MODEL 1
REMARK VINA RESULT:      -4.9      0.000      0.000
REMARK  Name = 56775627
REMARK  12 active torsions:
REMARK  status: ('A' for Active; 'I' for Inactive)
REMARK    1  A    between atoms: O_4  and  C_24
REMARK    2  A    between atoms: N_5  and  C_8
REMARK    3  A    between atoms: N_5  and  C_13
REMARK    4  A    between atoms: N_7  and  C_17
REMARK    5  A    between atoms: N_7  and  C_21
REMARK    6  A    between atoms: N_7  and  C_22
REMARK    7  A    between atoms: C_8  and  C_11
REMARK    8  A    between atoms: C_11  and  C_12
REMARK    9  A    between atoms: C_13  and  C_15
REMARK   10  A    between atoms: C_16  and  C_17
REMARK   11  A    between atoms: C_19  and  C_24
REMARK   12  A    between atoms: C_21  and  C_23
REMARK                            x       y       z     vdW  Elec       q    Type
REMARK                         _______ _______ _______ _____ _____    ______ ____
ROOT
ATOM     11  C   UNL     1      -2.637   3.931  25.991  0.00  0.00    +0.085 C 
ENDROOT
BRANCH  11  12
ATOM      2  O   UNL     1       0.125   1.678  25.775  0.00  0.00    -0.358 OA
ATOM      6  N   UNL     1      -0.923   2.275  26.466  0.00  0.00    -0.083 NA
ATOM     12  C   UNL     1      -1.477   3.118  25.591  0.00  0.00    +0.086 A 
ATOM     14  C   UNL     1      -0.828   3.097  24.345  0.00  0.00    +0.072 A 
ATOM     16  C   UNL     1       0.171   2.176  24.513  0.00  0.00    +0.151 A 
BRANCH  16  17
ATOM     17  C   UNL     1       1.254   1.636  23.616  0.00  0.00    +0.161 C 
BRANCH  17   7
ATOM      7  N   UNL     1       0.986   0.258  23.208  0.00  0.00    -0.294 NA
ATOM     22  C   UNL     1      -0.343   0.153  22.605  0.00  0.00    +0.105 C 
BRANCH   7  21
ATOM     21  C   UNL     1       2.008  -0.206  22.271  0.00  0.00    +0.119 C 
BRANCH  21  23
ATOM     23  C   UNL     1       3.371  -0.259  22.909  0.00  0.00    -0.033 A 
ATOM     25  C   UNL     1       4.198   0.863  22.882  0.00  0.00    +0.005 A 
ATOM     26  C   UNL     1       3.806  -1.431  23.528  0.00  0.00    +0.005 A 
ATOM     27  C   UNL     1       5.461   0.814  23.473  0.00  0.00    +0.000 A 
ATOM     28  C   UNL     1       5.068  -1.481  24.120  0.00  0.00    +0.000 A 
ATOM     29  C   UNL     1       5.895  -0.358  24.093  0.00  0.00    +0.000 A 
ENDBRANCH  21  23
ENDBRANCH   7  21
ENDBRANCH  17   7
ENDBRANCH  16  17
ENDBRANCH  11  12
BRANCH  11   8
ATOM      1  O   UNL     1      -5.968   4.033  25.423  0.00  0.00    -0.376 OA
ATOM      8  C   UNL     1      -3.930   3.401  25.356  0.00  0.00    +0.072 C 
ATOM      9  C   UNL     1      -5.148   3.171  26.245  0.00  0.00    +0.184 C 
ATOM     10  C   UNL     1      -4.830   4.369  24.596  0.00  0.00    +0.184 C 
BRANCH   8   5
ATOM      5  N   UNL     1      -3.716   2.217  24.538  0.00  0.00    -0.300 NA
ATOM     30  H   UNL     1      -2.750   1.887  24.515  0.00  0.00    +0.123 HD
BRANCH   5  13
ATOM     13  C   UNL     1      -4.579   1.132  25.001  0.00  0.00    +0.156 C 
BRANCH  13  15
ATOM      3  O   UNL     1      -2.712  -0.409  25.243  0.00  0.00    -0.461 OA
ATOM     15  C   UNL     1      -3.965  -0.219  24.752  0.00  0.00    +0.119 A 
ATOM     18  C   UNL     1      -4.408  -1.351  24.109  0.00  0.00    +0.046 A 
ATOM     19  C   UNL     1      -2.352  -1.676  24.911  0.00  0.00    +0.131 A 
ATOM     20  C   UNL     1      -3.361  -2.298  24.212  0.00  0.00    +0.047 A 
BRANCH  19  24
ATOM     24  C   UNL     1      -1.016  -2.109  25.345  0.00  0.00    +0.230 C 
BRANCH  24   4
ATOM      4  O   UNL     1      -0.258  -0.986  25.803  0.00  0.00    -0.387 OA
ATOM     31  H   UNL     1      -0.601  -0.753  26.683  0.00  0.00    +0.210 HD
ENDBRANCH  24   4
ENDBRANCH  19  24
ENDBRANCH  13  15
ENDBRANCH   5  13
ENDBRANCH   8   5
ENDBRANCH  11   8
TORSDOF 11
ENDMDL
MODEL 2
REMARK VINA RESULT:      -4.6      1.808      6.614
REMARK  Name = 56775627
REMARK  12 active torsions:
REMARK  status: ('A' for Active; 'I' for Inactive)
REMARK    1  A    between atoms: O_4  and  C_24
REMARK    2  A    between atoms: N_5  and  C_8
REMARK    3  A    between atoms: N_5  and  C_13
REMARK    4  A    between atoms: N_7  and  C_17
REMARK    5  A    between atoms: N_7  and  C_21
REMARK    6  A    between atoms: N_7  and  C_22
REMARK    7  A    between atoms: C_8  and  C_11
REMARK    8  A    between atoms: C_11  and  C_12
REMARK    9  A    between atoms: C_13  and  C_15
REMARK   10  A    between atoms: C_16  and  C_17
REMARK   11  A    between atoms: C_19  and  C_24
REMARK   12  A    between atoms: C_21  and  C_23
REMARK                            x       y       z     vdW  Elec       q    Type
REMARK                         _______ _______ _______ _____ _____    ______ ____
ROOT
ATOM     11  C   UNL     1      -3.039  -1.586  24.403  0.00  0.00    +0.085 C 
ENDROOT
BRANCH  11  12
ATOM      2  O   UNL     1      -4.203   1.723  23.734  0.00  0.00    -0.358 OA
ATOM      6  N   UNL     1      -3.438   0.604  23.427  0.00  0.00    -0.083 NA
ATOM     12  C   UNL     1      -3.691  -0.266  24.408  0.00  0.00    +0.086 A 
ATOM     14  C   UNL     1      -4.598   0.243  25.353  0.00  0.00    +0.072 A 
ATOM     16  C   UNL     1      -4.889   1.496  24.884  0.00  0.00    +0.151 A 
BRANCH  16  17
ATOM     17  C   UNL     1      -5.777   2.612  25.368  0.00  0.00    +0.161 C 
BRANCH  17   7
ATOM      7  N   UNL     1      -5.073   3.893  25.399  0.00  0.00    -0.294 NA
ATOM     22  C   UNL     1      -6.021   4.992  25.580  0.00  0.00    +0.105 C 
BRANCH   7  21
ATOM     21  C   UNL     1      -4.072   3.902  26.464  0.00  0.00    +0.119 C 
BRANCH  21  23
ATOM     23  C   UNL     1      -2.672   3.998  25.918  0.00  0.00    -0.033 A 
ATOM     25  C   UNL     1      -2.245   5.170  25.294  0.00  0.00    +0.005 A 
ATOM     26  C   UNL     1      -1.802   2.915  26.038  0.00  0.00    +0.005 A 
ATOM     27  C   UNL     1      -0.948   5.259  24.788  0.00  0.00    +0.000 A 
ATOM     28  C   UNL     1      -0.504   3.003  25.533  0.00  0.00    +0.000 A 
ATOM     29  C   UNL     1      -0.078   4.176  24.909  0.00  0.00    +0.000 A 
ENDBRANCH  21  23
ENDBRANCH   7  21
ENDBRANCH  17   7
ENDBRANCH  16  17
ENDBRANCH  11  12
BRANCH  11   8
ATOM      1  O   UNL     1      -0.114  -1.978  26.051  0.00  0.00    -0.376 OA
ATOM      8  C   UNL     1      -1.516  -1.452  24.530  0.00  0.00    +0.072 C 
ATOM      9  C   UNL     1      -0.933  -0.815  25.787  0.00  0.00    +0.184 C 
ATOM     10  C   UNL     1      -0.697  -2.675  24.926  0.00  0.00    +0.184 C 
BRANCH   8   5
ATOM      5  N   UNL     1      -0.902  -0.834  23.363  0.00  0.00    -0.300 NA
ATOM     30  H   UNL     1      -1.564  -0.412  22.710  0.00  0.00    +0.123 HD
BRANCH   5  13
ATOM     13  C   UNL     1       0.059   0.181  23.789  0.00  0.00    +0.156 C 
BRANCH  13  15
ATOM      3  O   UNL     1       2.451   0.580  23.587  0.00  0.00    -0.461 OA
ATOM     15  C   UNL     1       1.324   0.132  22.974  0.00  0.00    +0.119 A 
ATOM     18  C   UNL     1       1.604  -0.282  21.693  0.00  0.00    +0.046 A 
ATOM     19  C   UNL     1       3.461   0.450  22.688  0.00  0.00    +0.131 A 
ATOM     20  C   UNL     1       2.991  -0.076  21.506  0.00  0.00    +0.047 A 
BRANCH  19  24
ATOM     24  C   UNL     1       4.793   0.878  23.138  0.00  0.00    +0.230 C 
BRANCH  24   4
ATOM      4  O   UNL     1       5.015   0.464  24.489  0.00  0.00    -0.387 OA
ATOM     31  H   UNL     1       5.767   0.983  24.824  0.00  0.00    +0.210 HD
ENDBRANCH  24   4
ENDBRANCH  19  24
ENDBRANCH  13  15
ENDBRANCH   5  13
ENDBRANCH   8   5
ENDBRANCH  11   8
TORSDOF 11
ENDMDL
MODEL 3
REMARK VINA RESULT:      -3.2      2.245      6.936
REMARK  Name = 56775627
REMARK  12 active torsions:
REMARK  status: ('A' for Active; 'I' for Inactive)
REMARK    1  A    between atoms: O_4  and  C_24
REMARK    2  A    between atoms: N_5  and  C_8
REMARK    3  A    between atoms: N_5  and  C_13
REMARK    4  A    between atoms: N_7  and  C_17
REMARK    5  A    between atoms: N_7  and  C_21
REMARK    6  A    between atoms: N_7  and  C_22
REMARK    7  A    between atoms: C_8  and  C_11
REMARK    8  A    between atoms: C_11  and  C_12
REMARK    9  A    between atoms: C_13  and  C_15
REMARK   10  A    between atoms: C_16  and  C_17
REMARK   11  A    between atoms: C_19  and  C_24
REMARK   12  A    between atoms: C_21  and  C_23
REMARK                            x       y       z     vdW  Elec       q    Type
REMARK                         _______ _______ _______ _____ _____    ______ ____
ROOT
ATOM     11  C   UNL     1      -0.211   3.267  23.870  0.00  0.00    +0.085 C 
ENDROOT
BRANCH  11  12
ATOM      2  O   UNL     1      -2.845   4.176  26.103  0.00  0.00    -0.358 OA
ATOM      6  N   UNL     1      -1.516   4.202  25.695  0.00  0.00    -0.083 NA
ATOM     12  C   UNL     1      -1.483   3.459  24.585  0.00  0.00    +0.086 A 
ATOM     14  C   UNL     1      -2.746   2.944  24.248  0.00  0.00    +0.072 A 
ATOM     16  C   UNL     1      -3.567   3.424  25.234  0.00  0.00    +0.151 A 
BRANCH  16  17
ATOM     17  C   UNL     1      -5.038   3.288  25.525  0.00  0.00    +0.161 C 
BRANCH  17   7
ATOM      7  N   UNL     1      -5.404   1.909  25.845  0.00  0.00    -0.294 NA
ATOM     22  C   UNL     1      -6.712   1.866  26.498  0.00  0.00    +0.105 C 
BRANCH   7  21
ATOM     21  C   UNL     1      -5.413   1.088  24.635  0.00  0.00    +0.119 C 
BRANCH  21  23
ATOM     23  C   UNL     1      -4.589  -0.162  24.799  0.00  0.00    -0.033 A 
ATOM     25  C   UNL     1      -4.570  -1.123  23.788  0.00  0.00    +0.005 A 
ATOM     26  C   UNL     1      -3.845  -0.359  25.962  0.00  0.00    +0.005 A 
ATOM     27  C   UNL     1      -3.807  -2.281  23.941  0.00  0.00    +0.000 A 
ATOM     28  C   UNL     1      -3.081  -1.516  26.115  0.00  0.00    +0.000 A 
ATOM     29  C   UNL     1      -3.062  -2.477  25.103  0.00  0.00    +0.000 A 
ENDBRANCH  21  23
ENDBRANCH   7  21
ENDBRANCH  17   7
ENDBRANCH  16  17
ENDBRANCH  11  12
BRANCH  11   8
ATOM      1  O   UNL     1      -0.710  -0.048  24.302  0.00  0.00    -0.376 OA
ATOM      8  C   UNL     1       0.279   1.817  23.990  0.00  0.00    +0.072 C 
ATOM      9  C   UNL     1      -0.185   0.978  25.176  0.00  0.00    +0.184 C 
ATOM     10  C   UNL     1      -0.382   0.741  23.136  0.00  0.00    +0.184 C 
BRANCH   8   5
ATOM      5  N   UNL     1       1.724   1.694  23.865  0.00  0.00    -0.300 NA
ATOM     30  H   UNL     1       2.206   1.461  24.734  0.00  0.00    +0.123 HD
BRANCH   5  13
ATOM     13  C   UNL     1       2.050   0.690  22.855  0.00  0.00    +0.156 C 
BRANCH  13  15
ATOM      3  O   UNL     1       4.465   0.528  23.110  0.00  0.00    -0.461 OA
ATOM     15  C   UNL     1       3.270  -0.108  23.231  0.00  0.00    +0.119 A 
ATOM     18  C   UNL     1       3.451  -1.392  23.688  0.00  0.00    +0.046 A 
ATOM     19  C   UNL     1       5.419  -0.359  23.494  0.00  0.00    +0.131 A 
ATOM     20  C   UNL     1       4.847  -1.556  23.860  0.00  0.00    +0.047 A 
BRANCH  19  24
ATOM     24  C   UNL     1       6.809   0.116  23.444  0.00  0.00    +0.230 C 
BRANCH  24   4
ATOM      4  O   UNL     1       7.537  -0.593  22.438  0.00  0.00    -0.387 OA
ATOM     31  H   UNL     1       7.848   0.067  21.795  0.00  0.00    +0.210 HD
ENDBRANCH  24   4
ENDBRANCH  19  24
ENDBRANCH  13  15
ENDBRANCH   5  13
ENDBRANCH   8   5
ENDBRANCH  11   8
TORSDOF 11
ENDMDL
MODEL 4
REMARK VINA RESULT:      -3.0      1.823      6.418
REMARK  Name = 56775627
REMARK  12 active torsions:
REMARK  status: ('A' for Active; 'I' for Inactive)
REMARK    1  A    between atoms: O_4  and  C_24
REMARK    2  A    between atoms: N_5  and  C_8
REMARK    3  A    between atoms: N_5  and  C_13
REMARK    4  A    between atoms: N_7  and  C_17
REMARK    5  A    between atoms: N_7  and  C_21
REMARK    6  A    between atoms: N_7  and  C_22
REMARK    7  A    between atoms: C_8  and  C_11
REMARK    8  A    between atoms: C_11  and  C_12
REMARK    9  A    between atoms: C_13  and  C_15
REMARK   10  A    between atoms: C_16  and  C_17
REMARK   11  A    between atoms: C_19  and  C_24
REMARK   12  A    between atoms: C_21  and  C_23
REMARK                            x       y       z     vdW  Elec       q    Type
REMARK                         _______ _______ _______ _____ _____    ______ ____
ROOT
ATOM     11  C   UNL     1      -1.011   4.493  25.347  0.00  0.00    +0.085 C 
ENDROOT
BRANCH  11  12
ATOM      2  O   UNL     1      -4.415   4.168  24.317  0.00  0.00    -0.358 OA
ATOM      6  N   UNL     1      -3.121   4.647  24.150  0.00  0.00    -0.083 NA
ATOM     12  C   UNL     1      -2.442   4.177  25.199  0.00  0.00    +0.086 A 
ATOM     14  C   UNL     1      -3.245   3.402  26.053  0.00  0.00    +0.072 A 
ATOM     16  C   UNL     1      -4.476   3.427  25.454  0.00  0.00    +0.151 A 
BRANCH  16  17
ATOM     17  C   UNL     1      -5.814   2.825  25.793  0.00  0.00    +0.161 C 
BRANCH  17   7
ATOM      7  N   UNL     1      -6.012   1.534  25.134  0.00  0.00    -0.294 NA
ATOM     22  C   UNL     1      -7.222   1.561  24.312  0.00  0.00    +0.105 C 
BRANCH   7  21
ATOM     21  C   UNL     1      -4.848   1.193  24.317  0.00  0.00    +0.119 C 
BRANCH  21  23
ATOM     23  C   UNL     1      -4.314  -0.176  24.647  0.00  0.00    -0.033 A 
ATOM     25  C   UNL     1      -3.700  -0.408  25.877  0.00  0.00    +0.005 A 
ATOM     26  C   UNL     1      -4.433  -1.212  23.721  0.00  0.00    +0.005 A 
ATOM     27  C   UNL     1      -3.204  -1.675  26.182  0.00  0.00    +0.000 A 
ATOM     28  C   UNL     1      -3.939  -2.481  24.026  0.00  0.00    +0.000 A 
ATOM     29  C   UNL     1      -3.325  -2.712  25.257  0.00  0.00    +0.000 A 
ENDBRANCH  21  23
ENDBRANCH   7  21
ENDBRANCH  17   7
ENDBRANCH  16  17
ENDBRANCH  11  12
BRANCH  11   8
ATOM      1  O   UNL     1       0.213   1.859  27.075  0.00  0.00    -0.376 OA
ATOM      8  C   UNL     1      -0.171   3.215  25.473  0.00  0.00    +0.072 C 
ATOM      9  C   UNL     1       0.818   3.093  26.626  0.00  0.00    +0.184 C 
ATOM     10  C   UNL     1      -0.813   1.964  26.061  0.00  0.00    +0.184 C 
BRANCH   8   5
ATOM      5  N   UNL     1       0.506   2.858  24.234  0.00  0.00    -0.300 NA
ATOM     30  H   UNL     1       1.524   2.930  24.272  0.00  0.00    +0.123 HD
BRANCH   5  13
ATOM     13  C   UNL     1       0.139   1.498  23.844  0.00  0.00    +0.156 C 
BRANCH  13  15
ATOM      3  O   UNL     1       2.525   1.140  23.530  0.00  0.00    -0.461 OA
ATOM     15  C   UNL     1       1.270   0.791  23.145  0.00  0.00    +0.119 A 
ATOM     18  C   UNL     1       1.316  -0.169  22.162  0.00  0.00    +0.046 A 
ATOM     19  C   UNL     1       3.382   0.394  22.784  0.00  0.00    +0.131 A 
ATOM     20  C   UNL     1       2.687  -0.428  21.928  0.00  0.00    +0.047 A 
BRANCH  19  24
ATOM     24  C   UNL     1       4.816   0.606  23.032  0.00  0.00    +0.230 C 
BRANCH  24   4
ATOM      4  O   UNL     1       5.108   0.429  24.421  0.00  0.00    -0.387 OA
ATOM     31  H   UNL     1       4.266   0.220  24.863  0.00  0.00    +0.210 HD
ENDBRANCH  24   4
ENDBRANCH  19  24
ENDBRANCH  13  15
ENDBRANCH   5  13
ENDBRANCH   8   5
ENDBRANCH  11   8
TORSDOF 11
ENDMDL
MODEL 5
REMARK VINA RESULT:      -1.6      1.475      2.790
REMARK  Name = 56775627
REMARK  12 active torsions:
REMARK  status: ('A' for Active; 'I' for Inactive)
REMARK    1  A    between atoms: O_4  and  C_24
REMARK    2  A    between atoms: N_5  and  C_8
REMARK    3  A    between atoms: N_5  and  C_13
REMARK    4  A    between atoms: N_7  and  C_17
REMARK    5  A    between atoms: N_7  and  C_21
REMARK    6  A    between atoms: N_7  and  C_22
REMARK    7  A    between atoms: C_8  and  C_11
REMARK    8  A    between atoms: C_11  and  C_12
REMARK    9  A    between atoms: C_13  and  C_15
REMARK   10  A    between atoms: C_16  and  C_17
REMARK   11  A    between atoms: C_19  and  C_24
REMARK   12  A    between atoms: C_21  and  C_23
REMARK                            x       y       z     vdW  Elec       q    Type
REMARK                         _______ _______ _______ _____ _____    ______ ____
ROOT
ATOM     11  C   UNL     1      -0.656   2.817  26.251  0.00  0.00    +0.085 C 
ENDROOT
BRANCH  11  12
ATOM      2  O   UNL     1      -0.823  -0.625  25.314  0.00  0.00    -0.358 OA
ATOM      6  N   UNL     1      -0.981   0.408  26.231  0.00  0.00    -0.083 NA
ATOM     12  C   UNL     1      -0.613   1.511  25.573  0.00  0.00    +0.086 A 
ATOM     14  C   UNL     1      -0.217   1.239  24.252  0.00  0.00    +0.072 A 
ATOM     16  C   UNL     1      -0.369  -0.117  24.140  0.00  0.00    +0.151 A 
BRANCH  16  17
ATOM     17  C   UNL     1      -0.141  -1.104  23.025  0.00  0.00    +0.161 C 
BRANCH  17   7
ATOM      7  N   UNL     1       1.125  -0.863  22.335  0.00  0.00    -0.294 NA
ATOM     22  C   UNL     1       0.898  -0.678  20.901  0.00  0.00    +0.105 C 
BRANCH   7  21
ATOM     21  C   UNL     1       1.800   0.306  22.898  0.00  0.00    +0.119 C 
BRANCH  21  23
ATOM     23  C   UNL     1       3.240   0.015  23.232  0.00  0.00    -0.033 A 
ATOM     25  C   UNL     1       4.197   1.025  23.132  0.00  0.00    +0.005 A 
ATOM     26  C   UNL     1       3.616  -1.264  23.641  0.00  0.00    +0.005 A 
ATOM     27  C   UNL     1       5.530   0.755  23.440  0.00  0.00    +0.000 A 
ATOM     28  C   UNL     1       4.949  -1.534  23.951  0.00  0.00    +0.000 A 
ATOM     29  C   UNL     1       5.906  -0.523  23.851  0.00  0.00    +0.000 A 
ENDBRANCH  21  23
ENDBRANCH   7  21
ENDBRANCH  17   7
ENDBRANCH  16  17
ENDBRANCH  11  12
BRANCH  11   8
ATOM      1  O   UNL     1      -0.460   5.000  23.678  0.00  0.00    -0.376 OA
ATOM      8  C   UNL     1      -1.239   3.899  25.332  0.00  0.00    +0.072 C 
ATOM      9  C   UNL     1      -0.448   5.185  25.112  0.00  0.00    +0.184 C 
ATOM     10  C   UNL     1      -1.127   3.725  23.822  0.00  0.00    +0.184 C 
BRANCH   8   5
ATOM      5  N   UNL     1      -2.613   4.245  25.665  0.00  0.00    -0.300 NA
ATOM     30  H   UNL     1      -2.757   5.228  25.901  0.00  0.00    +0.123 HD
BRANCH   5  13
ATOM     13  C   UNL     1      -3.496   3.887  24.557  0.00  0.00    +0.156 C 
BRANCH  13  15
ATOM      3  O   UNL     1      -3.686   1.466  24.418  0.00  0.00    -0.461 OA
ATOM     15  C   UNL     1      -4.262   2.622  24.837  0.00  0.00    +0.119 A 
ATOM     18  C   UNL     1      -5.468   2.367  25.447  0.00  0.00    +0.046 A 
ATOM     19  C   UNL     1      -4.532   0.461  24.766  0.00  0.00    +0.131 A 
ATOM     20  C   UNL     1      -5.643   0.964  25.402  0.00  0.00    +0.047 A 
BRANCH  19  24
ATOM     24  C   UNL     1      -4.108  -0.901  24.408  0.00  0.00    +0.230 C 
BRANCH  24   4
ATOM      4  O   UNL     1      -3.578  -1.570  25.555  0.00  0.00    -0.387 OA
ATOM     31  H   UNL     1      -2.948  -0.959  25.973  0.00  0.00    +0.210 HD
ENDBRANCH  24   4
ENDBRANCH  19  24
ENDBRANCH  13  15
ENDBRANCH   5  13
ENDBRANCH   8   5
ENDBRANCH  11   8
TORSDOF 11
ENDMDL
MODEL 6
REMARK VINA RESULT:      -1.4      1.348      1.954
REMARK  Name = 56775627
REMARK  12 active torsions:
REMARK  status: ('A' for Active; 'I' for Inactive)
REMARK    1  A    between atoms: O_4  and  C_24
REMARK    2  A    between atoms: N_5  and  C_8
REMARK    3  A    between atoms: N_5  and  C_13
REMARK    4  A    between atoms: N_7  and  C_17
REMARK    5  A    between atoms: N_7  and  C_21
REMARK    6  A    between atoms: N_7  and  C_22
REMARK    7  A    between atoms: C_8  and  C_11
REMARK    8  A    between atoms: C_11  and  C_12
REMARK    9  A    between atoms: C_13  and  C_15
REMARK   10  A    between atoms: C_16  and  C_17
REMARK   11  A    between atoms: C_19  and  C_24
REMARK   12  A    between atoms: C_21  and  C_23
REMARK                            x       y       z     vdW  Elec       q    Type
REMARK                         _______ _______ _______ _____ _____    ______ ____
ROOT
ATOM     11  C   UNL     1      -2.817   4.182  26.220  0.00  0.00    +0.085 C 
ENDROOT
BRANCH  11  12
ATOM      2  O   UNL     1       0.101   3.958  24.174  0.00  0.00    -0.358 OA
ATOM      6  N   UNL     1      -0.982   4.653  24.697  0.00  0.00    -0.083 NA
ATOM     12  C   UNL     1      -1.605   3.777  25.489  0.00  0.00    +0.086 A 
ATOM     14  C   UNL     1      -0.967   2.525  25.506  0.00  0.00    +0.072 A 
ATOM     16  C   UNL     1       0.100   2.691  24.664  0.00  0.00    +0.151 A 
BRANCH  16  17
ATOM     17  C   UNL     1       1.213   1.790  24.199  0.00  0.00    +0.161 C 
BRANCH  17   7
ATOM      7  N   UNL     1       0.703   0.571  23.574  0.00  0.00    -0.294 NA
ATOM     22  C   UNL     1      -0.656   0.784  23.074  0.00  0.00    +0.105 C 
BRANCH   7  21
ATOM     21  C   UNL     1       1.584   0.145  22.488  0.00  0.00    +0.119 C 
BRANCH  21  23
ATOM     23  C   UNL     1       3.006  -0.025  22.953  0.00  0.00    -0.033 A 
ATOM     25  C   UNL     1       3.414  -1.229  23.527  0.00  0.00    +0.005 A 
ATOM     26  C   UNL     1       3.916   1.022  22.810  0.00  0.00    +0.005 A 
ATOM     27  C   UNL     1       4.731  -1.386  23.958  0.00  0.00    +0.000 A 
ATOM     28  C   UNL     1       5.234   0.866  23.240  0.00  0.00    +0.000 A 
ATOM     29  C   UNL     1       5.641  -0.339  23.814  0.00  0.00    +0.000 A 
ENDBRANCH  21  23
ENDBRANCH   7  21
ENDBRANCH  17   7
ENDBRANCH  16  17
ENDBRANCH  11  12
BRANCH  11   8
ATOM      1  O   UNL     1      -5.676   4.223  24.418  0.00  0.00    -0.376 OA
ATOM      8  C   UNL     1      -4.068   3.517  25.630  0.00  0.00    +0.072 C 
ATOM      9  C   UNL     1      -5.425   4.179  25.841  0.00  0.00    +0.184 C 
ATOM     10  C   UNL     1      -4.362   3.685  24.144  0.00  0.00    +0.184 C 
BRANCH   8   5
ATOM      5  N   UNL     1      -4.176   2.106  25.974  0.00  0.00    -0.300 NA
ATOM     30  H   UNL     1      -5.003   1.866  26.522  0.00  0.00    +0.123 HD
BRANCH   5  13
ATOM     13  C   UNL     1      -4.160   1.297  24.757  0.00  0.00    +0.156 C 
BRANCH  13  15
ATOM      3  O   UNL     1      -4.072  -1.080  24.245  0.00  0.00    -0.461 OA
ATOM     15  C   UNL     1      -3.570  -0.067  24.998  0.00  0.00    +0.119 A 
ATOM     18  C   UNL     1      -2.596  -0.535  25.848  0.00  0.00    +0.046 A 
ATOM     19  C   UNL     1      -3.411  -2.207  24.617  0.00  0.00    +0.131 A 
ATOM     20  C   UNL     1      -2.492  -1.924  25.601  0.00  0.00    +0.047 A 
BRANCH  19  24
ATOM     24  C   UNL     1      -3.793  -3.446  23.925  0.00  0.00    +0.230 C 
BRANCH  24   4
ATOM      4  O   UNL     1      -4.751  -3.164  22.901  0.00  0.00    -0.387 OA
ATOM     31  H   UNL     1      -4.929  -4.002  22.441  0.00  0.00    +0.210 HD
ENDBRANCH  24   4
ENDBRANCH  19  24
ENDBRANCH  13  15
ENDBRANCH   5  13
ENDBRANCH   8   5
ENDBRANCH  11   8
TORSDOF 11
ENDMDL
MODEL 7
REMARK VINA RESULT:      -1.2      2.282      4.201
REMARK  Name = 56775627
REMARK  12 active torsions:
REMARK  status: ('A' for Active; 'I' for Inactive)
REMARK    1  A    between atoms: O_4  and  C_24
REMARK    2  A    between atoms: N_5  and  C_8
REMARK    3  A    between atoms: N_5  and  C_13
REMARK    4  A    between atoms: N_7  and  C_17
REMARK    5  A    between atoms: N_7  and  C_21
REMARK    6  A    between atoms: N_7  and  C_22
REMARK    7  A    between atoms: C_8  and  C_11
REMARK    8  A    between atoms: C_11  and  C_12
REMARK    9  A    between atoms: C_13  and  C_15
REMARK   10  A    between atoms: C_16  and  C_17
REMARK   11  A    between atoms: C_19  and  C_24
REMARK   12  A    between atoms: C_21  and  C_23
REMARK                            x       y       z     vdW  Elec       q    Type
REMARK                         _______ _______ _______ _____ _____    ______ ____
ROOT
ATOM     11  C   UNL     1      -1.700   4.976  25.190  0.00  0.00    +0.085 C 
ENDROOT
BRANCH  11  12
ATOM      2  O   UNL     1       0.465   2.197  25.773  0.00  0.00    -0.358 OA
ATOM      6  N   UNL     1      -0.334   3.245  26.213  0.00  0.00    -0.083 NA
ATOM     12  C   UNL     1      -0.802   3.814  25.098  0.00  0.00    +0.086 A 
ATOM     14  C   UNL     1      -0.336   3.174  23.937  0.00  0.00    +0.072 A 
ATOM     16  C   UNL     1       0.455   2.165  24.415  0.00  0.00    +0.151 A 
BRANCH  16  17
ATOM     17  C   UNL     1       1.274   1.082  23.763  0.00  0.00    +0.161 C 
BRANCH  17   7
ATOM      7  N   UNL     1       0.444  -0.036  23.320  0.00  0.00    -0.294 NA
ATOM     22  C   UNL     1       0.891  -0.518  22.013  0.00  0.00    +0.105 C 
BRANCH   7  21
ATOM     21  C   UNL     1       0.478  -1.119  24.301  0.00  0.00    +0.119 C 
BRANCH  21  23
ATOM     23  C   UNL     1      -0.900  -1.471  24.797  0.00  0.00    -0.033 A 
ATOM     25  C   UNL     1      -1.622  -2.494  24.184  0.00  0.00    +0.005 A 
ATOM     26  C   UNL     1      -1.453  -0.774  25.871  0.00  0.00    +0.005 A 
ATOM     27  C   UNL     1      -2.898  -2.820  24.643  0.00  0.00    +0.000 A 
ATOM     28  C   UNL     1      -2.729  -1.100  26.331  0.00  0.00    +0.000 A 
ATOM     29  C   UNL     1      -3.451  -2.124  25.717  0.00  0.00    +0.000 A 
ENDBRANCH  21  23
ENDBRANCH   7  21
ENDBRANCH  17   7
ENDBRANCH  16  17
ENDBRANCH  11  12
BRANCH  11   8
ATOM      1  O   UNL     1      -3.626   3.987  27.786  0.00  0.00    -0.376 OA
ATOM      8  C   UNL     1      -3.044   4.589  25.823  0.00  0.00    +0.072 C 
ATOM      9  C   UNL     1      -3.139   3.290  26.616  0.00  0.00    +0.184 C 
ATOM     10  C   UNL     1      -3.469   5.262  27.123  0.00  0.00    +0.184 C 
BRANCH   8   5
ATOM      5  N   UNL     1      -4.152   4.645  24.880  0.00  0.00    -0.300 NA
ATOM     30  H   UNL     1      -3.872   4.674  23.899  0.00  0.00    +0.123 HD
BRANCH   5  13
ATOM     13  C   UNL     1      -5.038   3.502  25.089  0.00  0.00    +0.156 C 
BRANCH  13  15
ATOM      3  O   UNL     1      -3.603   2.467  23.419  0.00  0.00    -0.461 OA
ATOM     15  C   UNL     1      -4.537   2.269  24.385  0.00  0.00    +0.119 A 
ATOM     18  C   UNL     1      -4.829   0.931  24.508  0.00  0.00    +0.046 A 
ATOM     19  C   UNL     1      -3.295   1.241  22.920  0.00  0.00    +0.131 A 
ATOM     20  C   UNL     1      -4.022   0.263  23.557  0.00  0.00    +0.047 A 
BRANCH  19  24
ATOM     24  C   UNL     1      -2.290   1.209  21.846  0.00  0.00    +0.230 C 
BRANCH  24   4
ATOM      4  O   UNL     1      -2.476   2.318  20.963  0.00  0.00    -0.387 OA
ATOM     31  H   UNL     1      -1.977   2.121  20.152  0.00  0.00    +0.210 HD
ENDBRANCH  24   4
ENDBRANCH  19  24
ENDBRANCH  13  15
ENDBRANCH   5  13
ENDBRANCH   8   5
ENDBRANCH  11   8
TORSDOF 11
ENDMDL
MODEL 8
REMARK VINA RESULT:      -1.0      2.164      6.450
REMARK  Name = 56775627
REMARK  12 active torsions:
REMARK  status: ('A' for Active; 'I' for Inactive)
REMARK    1  A    between atoms: O_4  and  C_24
REMARK    2  A    between atoms: N_5  and  C_8
REMARK    3  A    between atoms: N_5  and  C_13
REMARK    4  A    between atoms: N_7  and  C_17
REMARK    5  A    between atoms: N_7  and  C_21
REMARK    6  A    between atoms: N_7  and  C_22
REMARK    7  A    between atoms: C_8  and  C_11
REMARK    8  A    between atoms: C_11  and  C_12
REMARK    9  A    between atoms: C_13  and  C_15
REMARK   10  A    between atoms: C_16  and  C_17
REMARK   11  A    between atoms: C_19  and  C_24
REMARK   12  A    between atoms: C_21  and  C_23
REMARK                            x       y       z     vdW  Elec       q    Type
REMARK                         _______ _______ _______ _____ _____    ______ ____
ROOT
ATOM     11  C   UNL     1       0.113   2.109  23.476  0.00  0.00    +0.085 C 
ENDROOT
BRANCH  11  12
ATOM      2  O   UNL     1      -3.367   1.581  22.873  0.00  0.00    -0.358 OA
ATOM      6  N   UNL     1      -2.072   1.849  22.444  0.00  0.00    -0.083 NA
ATOM     12  C   UNL     1      -1.334   1.854  23.558  0.00  0.00    +0.086 A 
ATOM     14  C   UNL     1      -2.100   1.597  24.708  0.00  0.00    +0.072 A 
ATOM     16  C   UNL     1      -3.370   1.432  24.223  0.00  0.00    +0.151 A 
BRANCH  16  17
ATOM     17  C   UNL     1      -4.700   1.133  24.863  0.00  0.00    +0.161 C 
BRANCH  17   7
ATOM      7  N   UNL     1      -5.653   2.226  24.675  0.00  0.00    -0.294 NA
ATOM     22  C   UNL     1      -7.025   1.727  24.754  0.00  0.00    +0.105 C 
BRANCH   7  21
ATOM     21  C   UNL     1      -5.433   3.273  25.671  0.00  0.00    +0.119 C 
BRANCH  21  23
ATOM     23  C   UNL     1      -4.115   3.973  25.469  0.00  0.00    -0.033 A 
ATOM     25  C   UNL     1      -3.149   3.945  26.475  0.00  0.00    +0.005 A 
ATOM     26  C   UNL     1      -3.860   4.648  24.276  0.00  0.00    +0.005 A 
ATOM     27  C   UNL     1      -1.928   4.593  26.288  0.00  0.00    +0.000 A 
ATOM     28  C   UNL     1      -2.639   5.296  24.088  0.00  0.00    +0.000 A 
ATOM     29  C   UNL     1      -1.673   5.268  25.094  0.00  0.00    +0.000 A 
ENDBRANCH  21  23
ENDBRANCH   7  21
ENDBRANCH  17   7
ENDBRANCH  16  17
ENDBRANCH  11  12
BRANCH  11   8
ATOM      1  O   UNL     1       2.304  -0.140  22.223  0.00  0.00    -0.376 OA
ATOM      8  C   UNL     1       0.911   0.799  23.539  0.00  0.00    +0.072 C 
ATOM      9  C   UNL     1       0.864  -0.152  22.348  0.00  0.00    +0.184 C 
ATOM     10  C   UNL     1       2.413   0.836  23.285  0.00  0.00    +0.184 C 
BRANCH   8   5
ATOM      5  N   UNL     1       0.659   0.040  24.756  0.00  0.00    -0.300 NA
ATOM     30  H   UNL     1       0.012   0.487  25.407  0.00  0.00    +0.123 HD
BRANCH   5  13
ATOM     13  C   UNL     1       0.152  -1.287  24.415  0.00  0.00    +0.156 C 
BRANCH  13  15
ATOM      3  O   UNL     1      -2.176  -1.873  24.018  0.00  0.00    -0.461 OA
ATOM     15  C   UNL     1      -1.244  -1.504  24.935  0.00  0.00    +0.119 A 
ATOM     18  C   UNL     1      -1.810  -1.406  26.185  0.00  0.00    +0.046 A 
ATOM     19  C   UNL     1      -3.349  -2.013  24.690  0.00  0.00    +0.131 A 
ATOM     20  C   UNL     1      -3.176  -1.737  26.026  0.00  0.00    +0.047 A 
BRANCH  19  24
ATOM     24  C   UNL     1      -4.515  -2.413  23.888  0.00  0.00    +0.230 C 
BRANCH  24   4
ATOM      4  O   UNL     1      -4.426  -3.798  23.545  0.00  0.00    -0.387 OA
ATOM     31  H   UNL     1      -3.878  -4.224  24.227  0.00  0.00    +0.210 HD
ENDBRANCH  24   4
ENDBRANCH  19  24
ENDBRANCH  13  15
ENDBRANCH   5  13
ENDBRANCH   8   5
ENDBRANCH  11   8
TORSDOF 11
ENDMDL
MODEL 9
REMARK VINA RESULT:      -0.9      2.416      6.253
REMARK  Name = 56775627
REMARK  12 active torsions:
REMARK  status: ('A' for Active; 'I' for Inactive)
REMARK    1  A    between atoms: O_4  and  C_24
REMARK    2  A    between atoms: N_5  and  C_8
REMARK    3  A    between atoms: N_5  and  C_13
REMARK    4  A    between atoms: N_7  and  C_17
REMARK    5  A    between atoms: N_7  and  C_21
REMARK    6  A    between atoms: N_7  and  C_22
REMARK    7  A    between atoms: C_8  and  C_11
REMARK    8  A    between atoms: C_11  and  C_12
REMARK    9  A    between atoms: C_13  and  C_15
REMARK   10  A    between atoms: C_16  and  C_17
REMARK   11  A    between atoms: C_19  and  C_24
REMARK   12  A    between atoms: C_21  and  C_23
REMARK                            x       y       z     vdW  Elec       q    Type
REMARK                         _______ _______ _______ _____ _____    ______ ____
ROOT
ATOM     11  C   UNL     1      -3.469  -0.753  23.207  0.00  0.00    +0.085 C 
ENDROOT
BRANCH  11  12
ATOM      2  O   UNL     1      -2.935   2.773  23.026  0.00  0.00    -0.358 OA
ATOM      6  N   UNL     1      -2.600   1.462  22.709  0.00  0.00    -0.083 NA
ATOM     12  C   UNL     1      -3.517   0.713  23.328  0.00  0.00    +0.086 A 
ATOM     14  C   UNL     1      -4.446   1.488  24.043  0.00  0.00    +0.072 A 
ATOM     16  C   UNL     1      -4.036   2.776  23.821  0.00  0.00    +0.151 A 
BRANCH  16  17
ATOM     17  C   UNL     1      -4.542   4.123  24.263  0.00  0.00    +0.161 C 
BRANCH  17   7
ATOM      7  N   UNL     1      -5.171   4.063  25.581  0.00  0.00    -0.294 NA
ATOM     22  C   UNL     1      -5.884   2.797  25.750  0.00  0.00    +0.105 C 
BRANCH   7  21
ATOM     21  C   UNL     1      -4.169   4.227  26.633  0.00  0.00    +0.119 C 
BRANCH  21  23
ATOM     23  C   UNL     1      -2.774   4.318  26.071  0.00  0.00    -0.033 A 
ATOM     25  C   UNL     1      -1.908   3.230  26.173  0.00  0.00    +0.005 A 
ATOM     26  C   UNL     1      -2.350   5.492  25.448  0.00  0.00    +0.005 A 
ATOM     27  C   UNL     1      -0.617   3.315  25.652  0.00  0.00    +0.000 A 
ATOM     28  C   UNL     1      -1.059   5.577  24.926  0.00  0.00    +0.000 A 
ATOM     29  C   UNL     1      -0.193   4.487  25.028  0.00  0.00    +0.000 A 
ENDBRANCH  21  23
ENDBRANCH   7  21
ENDBRANCH  17   7
ENDBRANCH  16  17
ENDBRANCH  11  12
BRANCH  11   8
ATOM      1  O   UNL     1      -3.079  -3.345  25.341  0.00  0.00    -0.376 OA
ATOM      8  C   UNL     1      -2.916  -1.397  24.485  0.00  0.00    +0.072 C 
ATOM      9  C   UNL     1      -3.873  -2.138  25.412  0.00  0.00    +0.184 C 
ATOM     10  C   UNL     1      -2.186  -2.731  24.384  0.00  0.00    +0.184 C 
BRANCH   8   5
ATOM      5  N   UNL     1      -2.111  -0.479  25.279  0.00  0.00    -0.300 NA
ATOM     30  H   UNL     1      -2.439  -0.349  26.237  0.00  0.00    +0.123 HD
BRANCH   5  13
ATOM     13  C   UNL     1      -0.724  -0.937  25.309  0.00  0.00    +0.156 C 
BRANCH  13  15
ATOM      3  O   UNL     1       0.669  -0.661  23.333  0.00  0.00    -0.461 OA
ATOM     15  C   UNL     1       0.168  -0.077  24.453  0.00  0.00    +0.119 A 
ATOM     18  C   UNL     1       0.608   1.221  24.559  0.00  0.00    +0.046 A 
ATOM     19  C   UNL     1       1.437   0.276  22.717  0.00  0.00    +0.131 A 
ATOM     20  C   UNL     1       1.431   1.451  23.431  0.00  0.00    +0.047 A 
BRANCH  19  24
ATOM     24  C   UNL     1       2.089  -0.137  21.466  0.00  0.00    +0.230 C 
BRANCH  24   4
ATOM      4  O   UNL     1       1.274  -1.086  20.774  0.00  0.00    -0.387 OA
ATOM     31  H   UNL     1       1.746  -1.323  19.957  0.00  0.00    +0.210 HD
ENDBRANCH  24   4
ENDBRANCH  19  24
ENDBRANCH  13  15
ENDBRANCH   5  13
ENDBRANCH   8   5
ENDBRANCH  11   8
TORSDOF 11
ENDMDL
