MODEL 1
REMARK VINA RESULT:      -0.1      0.000      0.000
REMARK  Name = 45783972
REMARK  15 active torsions:
REMARK  status: ('A' for Active; 'I' for Inactive)
REMARK    1  A    between atoms: N_2  and  C_13
REMARK    2  A    between atoms: N_2  and  C_19
REMARK    3  A    between atoms: N_5  and  C_28
REMARK    4  A    between atoms: N_5  and  C_29
REMARK    5  A    between atoms: N_5  and  C_30
REMARK    6  A    between atoms: C_6  and  C_10
REMARK    7  A    between atoms: C_7  and  C_13
REMARK    8  A    between atoms: C_9  and  C_14
REMARK    9  A    between atoms: C_10  and  C_15
REMARK   10  A    between atoms: C_10  and  C_16
REMARK   11  A    between atoms: C_11  and  C_17
REMARK   12  A    between atoms: C_14  and  C_18
REMARK   13  A    between atoms: C_19  and  C_20
REMARK   14  A    between atoms: C_19  and  C_21
REMARK   15  A    between atoms: C_22  and  C_23
REMARK                            x       y       z     vdW  Elec       q    Type
REMARK                         _______ _______ _______ _____ _____    ______ ____
ROOT
ATOM      6  C   UNL     1      -3.486   2.161  24.103  0.00  0.00    +0.000 C 
ATOM      7  C   UNL     1      -4.236   3.406  24.639  0.00  0.00    +0.029 C 
ATOM      8  C   UNL     1      -4.460   0.990  23.909  0.00  0.00    +0.012 C 
ATOM      9  C   UNL     1      -5.173   0.603  25.219  0.00  0.00    +0.024 C 
ATOM     11  C   UNL     1      -5.713   1.818  25.946  0.00  0.00    -0.073 C 
ATOM     12  C   UNL     1      -5.292   3.064  25.665  0.00  0.00    -0.023 C 
ATOM     17  C   UNL     1      -6.781   1.572  26.975  0.00  0.00    +0.039 C 
ENDROOT
BRANCH   6  10
ATOM     10  C   UNL     1      -2.761   2.458  22.786  0.00  0.00    -0.013 C 
ATOM     15  C   UNL     1      -3.593   3.401  21.923  0.00  0.00    +0.007 C 
ATOM     16  C   UNL     1      -2.464   1.161  22.039  0.00  0.00    +0.007 C 
ENDBRANCH   6  10
BRANCH   7  13
ATOM     13  C   UNL     1      -3.260   4.428  25.233  0.00  0.00    +0.089 C 
BRANCH  13   2
ATOM      2  N   UNL     1      -2.395   3.799  26.218  0.00  0.00    -0.313 NA
ATOM     31  H   UNL     1      -2.605   4.173  27.142  0.00  0.00    +0.122 HD
BRANCH   2  19
ATOM     19  C   UNL     1      -0.991   4.034  25.908  0.00  0.00    +0.047 C 
ATOM     20  C   UNL     1      -0.295   2.699  25.661  0.00  0.00    +0.023 C 
ATOM     21  C   UNL     1      -0.862   4.953  24.696  0.00  0.00    +0.023 C 
ENDBRANCH   2  19
ENDBRANCH  13   2
ENDBRANCH   7  13
BRANCH   9  14
ATOM     14  C   UNL     1      -4.252  -0.218  26.127  0.00  0.00    +0.105 C 
BRANCH  14  18
ATOM      1  O   UNL     1      -2.006  -0.372  25.185  0.00  0.00    -0.420 OA
ATOM      3  N   UNL     1      -3.309  -2.135  24.740  0.00  0.00    -0.112 NA
ATOM      4  N   UNL     1      -2.078  -2.354  24.151  0.00  0.00    -0.107 NA
ATOM     18  C   UNL     1      -3.222  -0.967  25.332  0.00  0.00    +0.218 A 
ATOM     22  C   UNL     1      -1.350  -1.300  24.437  0.00  0.00    +0.248 A 
BRANCH  22  23
ATOM     23  C   UNL     1       0.005  -0.982  24.090  0.00  0.00    +0.039 A 
ATOM     24  C   UNL     1       0.285   0.179  23.368  0.00  0.00    +0.015 A 
ATOM     25  C   UNL     1       1.042  -1.831  24.476  0.00  0.00    +0.015 A 
ATOM     26  C   UNL     1       1.602   0.489  23.031  0.00  0.00    +0.024 A 
ATOM     27  C   UNL     1       2.359  -1.521  24.139  0.00  0.00    +0.024 A 
ATOM     28  C   UNL     1       2.639  -0.361  23.417  0.00  0.00    +0.029 A 
BRANCH  28   5
ATOM      5  N   UNL     1       3.971  -0.047  23.074  0.00  0.00    -0.336 N 
ATOM     29  C   UNL     1       5.076  -0.693  23.756  0.00  0.00    +0.129 C 
ATOM     30  C   UNL     1       4.253   0.931  22.042  0.00  0.00    +0.129 C 
ENDBRANCH  28   5
ENDBRANCH  22  23
ENDBRANCH  14  18
ENDBRANCH   9  14
TORSDOF 8
ENDMDL
MODEL 2
REMARK VINA RESULT:       3.1      1.902      4.065
REMARK  Name = 45783972
REMARK  15 active torsions:
REMARK  status: ('A' for Active; 'I' for Inactive)
REMARK    1  A    between atoms: N_2  and  C_13
REMARK    2  A    between atoms: N_2  and  C_19
REMARK    3  A    between atoms: N_5  and  C_28
REMARK    4  A    between atoms: N_5  and  C_29
REMARK    5  A    between atoms: N_5  and  C_30
REMARK    6  A    between atoms: C_6  and  C_10
REMARK    7  A    between atoms: C_7  and  C_13
REMARK    8  A    between atoms: C_9  and  C_14
REMARK    9  A    between atoms: C_10  and  C_15
REMARK   10  A    between atoms: C_10  and  C_16
REMARK   11  A    between atoms: C_11  and  C_17
REMARK   12  A    between atoms: C_14  and  C_18
REMARK   13  A    between atoms: C_19  and  C_20
REMARK   14  A    between atoms: C_19  and  C_21
REMARK   15  A    between atoms: C_22  and  C_23
REMARK                            x       y       z     vdW  Elec       q    Type
REMARK                         _______ _______ _______ _____ _____    ______ ____
ROOT
ATOM      6  C   UNL     1      -2.386   1.723  25.739  0.00  0.00    +0.000 C 
ATOM      7  C   UNL     1      -3.415   0.572  25.856  0.00  0.00    +0.029 C 
ATOM      8  C   UNL     1      -3.015   3.053  26.183  0.00  0.00    +0.012 C 
ATOM      9  C   UNL     1      -4.253   3.419  25.344  0.00  0.00    +0.024 C 
ATOM     11  C   UNL     1      -5.196   2.243  25.189  0.00  0.00    -0.073 C 
ATOM     12  C   UNL     1      -4.809   0.980  25.435  0.00  0.00    -0.023 C 
ATOM     17  C   UNL     1      -6.610   2.558  24.788  0.00  0.00    +0.039 C 
ENDROOT
BRANCH   6  10
ATOM     10  C   UNL     1      -1.125   1.444  26.564  0.00  0.00    -0.013 C 
ATOM     15  C   UNL     1      -0.122   2.582  26.403  0.00  0.00    +0.007 C 
ATOM     16  C   UNL     1      -0.504   0.113  26.152  0.00  0.00    +0.007 C 
ENDBRANCH   6  10
BRANCH   7  13
ATOM     13  C   UNL     1      -2.974  -0.650  25.043  0.00  0.00    +0.089 C 
BRANCH  13   2
ATOM      2  N   UNL     1      -3.557  -1.866  25.587  0.00  0.00    -0.313 NA
ATOM     31  H   UNL     1      -3.136  -2.069  26.492  0.00  0.00    +0.122 HD
BRANCH   2  19
ATOM     19  C   UNL     1      -3.344  -2.995  24.690  0.00  0.00    +0.047 C 
ATOM     20  C   UNL     1      -4.355  -2.934  23.549  0.00  0.00    +0.023 C 
ATOM     21  C   UNL     1      -1.914  -2.987  24.156  0.00  0.00    +0.023 C 
ENDBRANCH   2  19
ENDBRANCH  13   2
ENDBRANCH   7  13
BRANCH   9  14
ATOM     14  C   UNL     1      -3.848   3.983  23.978  0.00  0.00    +0.105 C 
BRANCH  14  18
ATOM      1  O   UNL     1      -1.807   2.698  23.611  0.00  0.00    -0.420 OA
ATOM      3  N   UNL     1      -3.414   2.314  22.103  0.00  0.00    -0.112 NA
ATOM      4  N   UNL     1      -2.326   1.528  21.777  0.00  0.00    -0.107 NA
ATOM     18  C   UNL     1      -3.067   2.980  23.180  0.00  0.00    +0.218 A 
ATOM     22  C   UNL     1      -1.412   1.783  22.682  0.00  0.00    +0.248 A 
BRANCH  22  23
ATOM     23  C   UNL     1      -0.087   1.259  22.843  0.00  0.00    +0.039 A 
ATOM     24  C   UNL     1       0.898   2.030  23.460  0.00  0.00    +0.015 A 
ATOM     25  C   UNL     1       0.216  -0.023  22.385  0.00  0.00    +0.015 A 
ATOM     26  C   UNL     1       2.187   1.520  23.617  0.00  0.00    +0.024 A 
ATOM     27  C   UNL     1       1.505  -0.534  22.542  0.00  0.00    +0.024 A 
ATOM     28  C   UNL     1       2.489   0.238  23.158  0.00  0.00    +0.029 A 
BRANCH  28   5
ATOM      5  N   UNL     1       3.793  -0.277  23.317  0.00  0.00    -0.336 N 
ATOM     29  C   UNL     1       3.994  -1.638  23.774  0.00  0.00    +0.129 C 
ATOM     30  C   UNL     1       4.949   0.550  23.032  0.00  0.00    +0.129 C 
ENDBRANCH  28   5
ENDBRANCH  22  23
ENDBRANCH  14  18
ENDBRANCH   9  14
TORSDOF 8
ENDMDL
MODEL 3
REMARK VINA RESULT:       3.8      1.779      2.957
REMARK  Name = 45783972
REMARK  15 active torsions:
REMARK  status: ('A' for Active; 'I' for Inactive)
REMARK    1  A    between atoms: N_2  and  C_13
REMARK    2  A    between atoms: N_2  and  C_19
REMARK    3  A    between atoms: N_5  and  C_28
REMARK    4  A    between atoms: N_5  and  C_29
REMARK    5  A    between atoms: N_5  and  C_30
REMARK    6  A    between atoms: C_6  and  C_10
REMARK    7  A    between atoms: C_7  and  C_13
REMARK    8  A    between atoms: C_9  and  C_14
REMARK    9  A    between atoms: C_10  and  C_15
REMARK   10  A    between atoms: C_10  and  C_16
REMARK   11  A    between atoms: C_11  and  C_17
REMARK   12  A    between atoms: C_14  and  C_18
REMARK   13  A    between atoms: C_19  and  C_20
REMARK   14  A    between atoms: C_19  and  C_21
REMARK   15  A    between atoms: C_22  and  C_23
REMARK                            x       y       z     vdW  Elec       q    Type
REMARK                         _______ _______ _______ _____ _____    ______ ____
ROOT
ATOM      6  C   UNL     1      -1.800   3.967  24.884  0.00  0.00    +0.000 C 
ATOM      7  C   UNL     1      -1.943   3.503  26.355  0.00  0.00    +0.029 C 
ATOM      8  C   UNL     1      -3.084   4.667  24.415  0.00  0.00    +0.012 C 
ATOM      9  C   UNL     1      -4.318   3.750  24.518  0.00  0.00    +0.024 C 
ATOM     11  C   UNL     1      -4.383   3.044  25.857  0.00  0.00    -0.073 C 
ATOM     12  C   UNL     1      -3.316   2.955  26.671  0.00  0.00    -0.023 C 
ATOM     17  C   UNL     1      -5.717   2.481  26.261  0.00  0.00    +0.039 C 
ENDROOT
BRANCH   6  10
ATOM     10  C   UNL     1      -0.601   4.902  24.697  0.00  0.00    -0.013 C 
ATOM     15  C   UNL     1      -1.023   6.354  24.899  0.00  0.00    +0.007 C 
ATOM     16  C   UNL     1       0.018   4.706  23.317  0.00  0.00    +0.007 C 
ENDBRANCH   6  10
BRANCH   7  13
ATOM     13  C   UNL     1      -0.882   2.456  26.711  0.00  0.00    +0.089 C 
BRANCH  13   2
ATOM      2  N   UNL     1       0.368   3.098  27.083  0.00  0.00    -0.313 NA
ATOM     31  H   UNL     1       0.998   3.103  26.284  0.00  0.00    +0.122 HD
BRANCH   2  19
ATOM     19  C   UNL     1       1.002   2.404  28.197  0.00  0.00    +0.047 C 
ATOM     20  C   UNL     1       2.455   2.853  28.313  0.00  0.00    +0.023 C 
ATOM     21  C   UNL     1       0.240   2.673  29.492  0.00  0.00    +0.023 C 
ENDBRANCH   2  19
ENDBRANCH  13   2
ENDBRANCH   7  13
BRANCH   9  14
ATOM     14  C   UNL     1      -4.357   2.744  23.363  0.00  0.00    +0.105 C 
BRANCH  14  18
ATOM      1  O   UNL     1      -2.127   1.753  23.374  0.00  0.00    -0.420 OA
ATOM      3  N   UNL     1      -3.746   0.373  24.066  0.00  0.00    -0.112 NA
ATOM      4  N   UNL     1      -2.548  -0.313  24.122  0.00  0.00    -0.107 NA
ATOM     18  C   UNL     1      -3.453   1.574  23.624  0.00  0.00    +0.218 A 
ATOM     22  C   UNL     1      -1.631   0.530  23.709  0.00  0.00    +0.248 A 
BRANCH  22  23
ATOM     23  C   UNL     1      -0.214   0.367  23.561  0.00  0.00    +0.039 A 
ATOM     24  C   UNL     1       0.303  -0.845  23.102  0.00  0.00    +0.015 A 
ATOM     25  C   UNL     1       0.646   1.420  23.874  0.00  0.00    +0.015 A 
ATOM     26  C   UNL     1       1.682  -1.004  22.957  0.00  0.00    +0.024 A 
ATOM     27  C   UNL     1       2.024   1.261  23.728  0.00  0.00    +0.024 A 
ATOM     28  C   UNL     1       2.542   0.049  23.270  0.00  0.00    +0.029 A 
BRANCH  28   5
ATOM      5  N   UNL     1       3.936  -0.113  23.124  0.00  0.00    -0.336 N 
ATOM     29  C   UNL     1       4.619  -1.211  23.779  0.00  0.00    +0.129 C 
ATOM     30  C   UNL     1       4.703   0.821  22.325  0.00  0.00    +0.129 C 
ENDBRANCH  28   5
ENDBRANCH  22  23
ENDBRANCH  14  18
ENDBRANCH   9  14
TORSDOF 8
ENDMDL
