MODEL 1
REMARK VINA RESULT:       7.7      0.000      0.000
REMARK  Name = 7673849
REMARK  4 active torsions:
REMARK  status: ('A' for Active; 'I' for Inactive)
REMARK    1  A    between atoms: N_3  and  C_13
REMARK    2  A    between atoms: C_13  and  C_18
REMARK    3  A    between atoms: C_16  and  C_19
REMARK    4  A    between atoms: C_27  and  C_32
REMARK                            x       y       z     vdW  Elec       q    Type
REMARK                         _______ _______ _______ _____ _____    ______ ____
ROOT
ATOM      1  O   UNL     1      -0.413  -0.719  21.863  0.00  0.00    -0.267 OA
ATOM      3  N   UNL     1      -4.112  -0.035  25.175  0.00  0.00    -0.294 NA
ATOM      4  N   UNL     1      -1.668  -1.446  23.690  0.00  0.00    -0.311 N 
ATOM      6  C   UNL     1      -4.180  -1.933  23.540  0.00  0.00    +0.024 C 
ATOM      7  C   UNL     1      -3.012  -2.223  25.672  0.00  0.00    +0.050 C 
ATOM      8  C   UNL     1      -3.903  -2.931  24.655  0.00  0.00    +0.017 C 
ATOM      9  C   UNL     1      -4.884  -0.683  24.109  0.00  0.00    +0.090 C 
ATOM     10  C   UNL     1      -3.754  -0.988  26.236  0.00  0.00    +0.094 C 
ATOM     11  C   UNL     1      -2.857  -1.595  22.839  0.00  0.00    +0.130 C 
ATOM     12  C   UNL     1      -1.697  -1.808  25.039  0.00  0.00    +0.026 A 
ATOM     14  C   UNL     1      -0.573  -1.771  25.772  0.00  0.00    +0.022 A 
ATOM     15  C   UNL     1      -0.484  -1.020  23.056  0.00  0.00    +0.259 A 
ATOM     16  C   UNL     1       0.749  -0.957  23.914  0.00  0.00    +0.047 A 
ATOM     17  C   UNL     1       0.670  -1.335  25.198  0.00  0.00    +0.015 A 
ENDROOT
BRANCH  16  19
ATOM     19  C   UNL     1       1.992  -0.508  23.371  0.00  0.00    -0.011 A 
ATOM     23  C   UNL     1       3.191  -0.840  24.002  0.00  0.00    +0.027 A 
ATOM     24  C   UNL     1       2.007   0.265  22.210  0.00  0.00    +0.009 A 
ATOM     27  C   UNL     1       4.404  -0.399  23.472  0.00  0.00    +0.052 A 
ATOM     28  C   UNL     1       3.219   0.706  21.680  0.00  0.00    +0.002 A 
ATOM     31  C   UNL     1       4.418   0.374  22.311  0.00  0.00    +0.019 A 
BRANCH  27  32
ATOM      5  N   UNL     1       6.632  -1.017  24.641  0.00  0.00    -0.191 NA
ATOM     32  C   UNL     1       5.632  -0.740  24.117  0.00  0.00    +0.099 C 
ENDBRANCH  27  32
ENDBRANCH  16  19
BRANCH   3  13
ATOM     13  C   UNL     1      -4.836   1.110  25.724  0.00  0.00    +0.158 C 
BRANCH  13  18
ATOM      2  O   UNL     1      -2.745   2.144  25.155  0.00  0.00    -0.458 OA
ATOM     18  C   UNL     1      -4.012   2.351  25.558  0.00  0.00    +0.120 A 
ATOM     20  C   UNL     1      -4.298   3.664  25.738  0.00  0.00    +0.054 A 
ATOM     21  C   UNL     1      -3.102   4.360  25.421  0.00  0.00    +0.020 A 
ATOM     22  C   UNL     1      -2.177   3.381  25.068  0.00  0.00    +0.135 A 
ATOM     25  C   UNL     1      -2.698   5.706  25.392  0.00  0.00    +0.011 A 
ATOM     26  C   UNL     1      -0.865   3.648  24.684  0.00  0.00    +0.047 A 
ATOM     29  C   UNL     1      -1.383   6.005  25.010  0.00  0.00    +0.001 A 
ATOM     30  C   UNL     1      -0.484   4.993  24.663  0.00  0.00    +0.004 A 
ENDBRANCH  13  18
ENDBRANCH   3  13
TORSDOF 4
ENDMDL
MODEL 2
REMARK VINA RESULT:      10.1      3.531      6.463
REMARK  Name = 7673849
REMARK  4 active torsions:
REMARK  status: ('A' for Active; 'I' for Inactive)
REMARK    1  A    between atoms: N_3  and  C_13
REMARK    2  A    between atoms: C_13  and  C_18
REMARK    3  A    between atoms: C_16  and  C_19
REMARK    4  A    between atoms: C_27  and  C_32
REMARK                            x       y       z     vdW  Elec       q    Type
REMARK                         _______ _______ _______ _____ _____    ______ ____
ROOT
ATOM      1  O   UNL     1      -2.064   3.678  28.361  0.00  0.00    -0.267 OA
ATOM      3  N   UNL     1      -4.815   1.787  24.623  0.00  0.00    -0.294 NA
ATOM      4  N   UNL     1      -2.725   3.670  26.124  0.00  0.00    -0.311 N 
ATOM      6  C   UNL     1      -5.132   4.152  25.388  0.00  0.00    +0.024 C 
ATOM      7  C   UNL     1      -3.425   3.650  23.706  0.00  0.00    +0.050 C 
ATOM      8  C   UNL     1      -4.481   4.673  24.114  0.00  0.00    +0.017 C 
ATOM      9  C   UNL     1      -5.776   2.774  25.129  0.00  0.00    +0.090 C 
ATOM     10  C   UNL     1      -4.105   2.288  23.437  0.00  0.00    +0.094 C 
ATOM     11  C   UNL     1      -4.075   4.109  26.501  0.00  0.00    +0.130 C 
ATOM     12  C   UNL     1      -2.365   3.511  24.783  0.00  0.00    +0.026 A 
ATOM     14  C   UNL     1      -1.097   3.218  24.454  0.00  0.00    +0.022 A 
ATOM     15  C   UNL     1      -1.792   3.518  27.170  0.00  0.00    +0.259 A 
ATOM     16  C   UNL     1      -0.389   3.157  26.769  0.00  0.00    +0.047 A 
ATOM     17  C   UNL     1      -0.095   3.035  25.466  0.00  0.00    +0.015 A 
ENDROOT
BRANCH  16  19
ATOM     19  C   UNL     1       0.622   2.951  27.758  0.00  0.00    -0.011 A 
ATOM     23  C   UNL     1       0.263   2.682  29.079  0.00  0.00    +0.027 A 
ATOM     24  C   UNL     1       1.968   3.020  27.402  0.00  0.00    +0.009 A 
ATOM     27  C   UNL     1       1.250   2.483  30.044  0.00  0.00    +0.052 A 
ATOM     28  C   UNL     1       2.956   2.820  28.367  0.00  0.00    +0.002 A 
ATOM     31  C   UNL     1       2.597   2.553  29.687  0.00  0.00    +0.019 A 
BRANCH  27  32
ATOM      5  N   UNL     1       0.584   1.983  32.497  0.00  0.00    -0.191 NA
ATOM     32  C   UNL     1       0.883   2.207  31.397  0.00  0.00    +0.099 C 
ENDBRANCH  27  32
ENDBRANCH  16  19
BRANCH   3  13
ATOM     13  C   UNL     1      -5.474   0.513  24.339  0.00  0.00    +0.158 C 
BRANCH  13  18
ATOM      2  O   UNL     1      -3.259  -0.263  24.847  0.00  0.00    -0.458 OA
ATOM     18  C   UNL     1      -4.455  -0.584  24.318  0.00  0.00    +0.120 A 
ATOM     20  C   UNL     1      -4.501  -1.861  23.864  0.00  0.00    +0.054 A 
ATOM     21  C   UNL     1      -3.216  -2.404  24.125  0.00  0.00    +0.020 A 
ATOM     22  C   UNL     1      -2.490  -1.383  24.730  0.00  0.00    +0.135 A 
ATOM     25  C   UNL     1      -2.586  -3.644  23.919  0.00  0.00    +0.011 A 
ATOM     26  C   UNL     1      -1.167  -1.507  25.150  0.00  0.00    +0.047 A 
ATOM     29  C   UNL     1      -1.255  -3.799  24.331  0.00  0.00    +0.001 A 
ATOM     30  C   UNL     1      -0.560  -2.749  24.935  0.00  0.00    +0.004 A 
ENDBRANCH  13  18
ENDBRANCH   3  13
TORSDOF 4
ENDMDL
MODEL 3
REMARK VINA RESULT:      10.1      1.969      5.142
REMARK  Name = 7673849
REMARK  4 active torsions:
REMARK  status: ('A' for Active; 'I' for Inactive)
REMARK    1  A    between atoms: N_3  and  C_13
REMARK    2  A    between atoms: C_13  and  C_18
REMARK    3  A    between atoms: C_16  and  C_19
REMARK    4  A    between atoms: C_27  and  C_32
REMARK                            x       y       z     vdW  Elec       q    Type
REMARK                         _______ _______ _______ _____ _____    ______ ____
ROOT
ATOM      1  O   UNL     1       0.911   1.780  26.004  0.00  0.00    -0.267 OA
ATOM      3  N   UNL     1      -3.950   2.871  25.458  0.00  0.00    -0.294 NA
ATOM      4  N   UNL     1      -0.787   3.129  25.145  0.00  0.00    -0.311 N 
ATOM      6  C   UNL     1      -2.399   4.447  26.638  0.00  0.00    +0.024 C 
ATOM      7  C   UNL     1      -2.620   4.575  24.204  0.00  0.00    +0.050 C 
ATOM      8  C   UNL     1      -2.459   5.417  25.467  0.00  0.00    +0.017 C 
ATOM      9  C   UNL     1      -3.694   3.610  26.700  0.00  0.00    +0.090 C 
ATOM     10  C   UNL     1      -3.934   3.764  24.289  0.00  0.00    +0.094 C 
ATOM     11  C   UNL     1      -1.142   3.578  26.498  0.00  0.00    +0.130 C 
ATOM     12  C   UNL     1      -1.434   3.646  24.020  0.00  0.00    +0.026 A 
ATOM     14  C   UNL     1      -1.021   3.308  22.788  0.00  0.00    +0.022 A 
ATOM     15  C   UNL     1       0.298   2.235  25.038  0.00  0.00    +0.259 A 
ATOM     16  C   UNL     1       0.713   1.851  23.645  0.00  0.00    +0.047 A 
ATOM     17  C   UNL     1       0.070   2.393  22.600  0.00  0.00    +0.015 A 
ENDROOT
BRANCH  16  19
ATOM     19  C   UNL     1       1.782   0.927  23.432  0.00  0.00    -0.011 A 
ATOM     23  C   UNL     1       3.099   1.311  23.687  0.00  0.00    +0.027 A 
ATOM     24  C   UNL     1       1.509  -0.359  22.967  0.00  0.00    +0.009 A 
ATOM     27  C   UNL     1       4.142   0.408  23.477  0.00  0.00    +0.052 A 
ATOM     28  C   UNL     1       2.551  -1.262  22.758  0.00  0.00    +0.002 A 
ATOM     31  C   UNL     1       3.868  -0.878  23.011  0.00  0.00    +0.019 A 
BRANCH  27  32
ATOM      5  N   UNL     1       6.587   1.120  23.952  0.00  0.00    -0.191 NA
ATOM     32  C   UNL     1       5.491   0.801  23.738  0.00  0.00    +0.099 C 
ENDBRANCH  27  32
ENDBRANCH  16  19
BRANCH   3  13
ATOM     13  C   UNL     1      -5.210   2.135  25.536  0.00  0.00    +0.158 C 
BRANCH  13  18
ATOM      2  O   UNL     1      -3.952   0.093  25.649  0.00  0.00    -0.458 OA
ATOM     18  C   UNL     1      -4.996   0.724  25.081  0.00  0.00    +0.120 A 
ATOM     20  C   UNL     1      -5.659  -0.057  24.193  0.00  0.00    +0.054 A 
ATOM     21  C   UNL     1      -4.975  -1.300  24.194  0.00  0.00    +0.020 A 
ATOM     22  C   UNL     1      -3.933  -1.157  25.106  0.00  0.00    +0.135 A 
ATOM     25  C   UNL     1      -5.119  -2.529  23.528  0.00  0.00    +0.011 A 
ATOM     26  C   UNL     1      -3.014  -2.160  25.406  0.00  0.00    +0.047 A 
ATOM     29  C   UNL     1      -4.209  -3.558  23.809  0.00  0.00    +0.001 A 
ATOM     30  C   UNL     1      -3.176  -3.375  24.732  0.00  0.00    +0.004 A 
ENDBRANCH  13  18
ENDBRANCH   3  13
TORSDOF 4
ENDMDL
MODEL 4
REMARK VINA RESULT:      10.7      1.120      1.499
REMARK  Name = 7673849
REMARK  4 active torsions:
REMARK  status: ('A' for Active; 'I' for Inactive)
REMARK    1  A    between atoms: N_3  and  C_13
REMARK    2  A    between atoms: C_13  and  C_18
REMARK    3  A    between atoms: C_16  and  C_19
REMARK    4  A    between atoms: C_27  and  C_32
REMARK                            x       y       z     vdW  Elec       q    Type
REMARK                         _______ _______ _______ _____ _____    ______ ____
ROOT
ATOM      1  O   UNL     1      -0.083  -0.754  22.131  0.00  0.00    -0.267 OA
ATOM      3  N   UNL     1      -4.016  -0.033  25.154  0.00  0.00    -0.294 NA
ATOM      4  N   UNL     1      -1.554  -1.517  23.773  0.00  0.00    -0.311 N 
ATOM      6  C   UNL     1      -4.069  -1.786  23.363  0.00  0.00    +0.024 C 
ATOM      7  C   UNL     1      -3.131  -2.335  25.556  0.00  0.00    +0.050 C 
ATOM      8  C   UNL     1      -3.973  -2.887  24.409  0.00  0.00    +0.017 C 
ATOM      9  C   UNL     1      -4.730  -0.532  23.973  0.00  0.00    +0.090 C 
ATOM     10  C   UNL     1      -3.829  -1.093  26.156  0.00  0.00    +0.094 C 
ATOM     11  C   UNL     1      -2.665  -1.503  22.812  0.00  0.00    +0.130 C 
ATOM     12  C   UNL     1      -1.735  -1.981  25.078  0.00  0.00    +0.026 A 
ATOM     14  C   UNL     1      -0.685  -2.092  25.907  0.00  0.00    +0.022 A 
ATOM     15  C   UNL     1      -0.287  -1.140  23.283  0.00  0.00    +0.259 A 
ATOM     16  C   UNL     1       0.862  -1.245  24.247  0.00  0.00    +0.047 A 
ATOM     17  C   UNL     1       0.634  -1.715  25.483  0.00  0.00    +0.015 A 
ENDROOT
BRANCH  16  19
ATOM     19  C   UNL     1       2.180  -0.857  23.855  0.00  0.00    -0.011 A 
ATOM     23  C   UNL     1       2.398   0.394  23.279  0.00  0.00    +0.027 A 
ATOM     24  C   UNL     1       3.249  -1.731  24.048  0.00  0.00    +0.009 A 
ATOM     27  C   UNL     1       3.685   0.771  22.895  0.00  0.00    +0.052 A 
ATOM     28  C   UNL     1       4.536  -1.354  23.665  0.00  0.00    +0.002 A 
ATOM     31  C   UNL     1       4.754  -0.104  23.088  0.00  0.00    +0.019 A 
BRANCH  27  32
ATOM      5  N   UNL     1       4.091   3.096  21.826  0.00  0.00    -0.191 NA
ATOM     32  C   UNL     1       3.909   2.053  22.305  0.00  0.00    +0.099 C 
ENDBRANCH  27  32
ENDBRANCH  16  19
BRANCH   3  13
ATOM     13  C   UNL     1      -4.701   1.120  25.733  0.00  0.00    +0.158 C 
BRANCH  13  18
ATOM      2  O   UNL     1      -2.603   2.121  25.132  0.00  0.00    -0.458 OA
ATOM     18  C   UNL     1      -3.863   2.348  25.546  0.00  0.00    +0.120 A 
ATOM     20  C   UNL     1      -4.130   3.667  25.713  0.00  0.00    +0.054 A 
ATOM     21  C   UNL     1      -2.929   4.343  25.376  0.00  0.00    +0.020 A 
ATOM     22  C   UNL     1      -2.021   3.349  25.026  0.00  0.00    +0.135 A 
ATOM     25  C   UNL     1      -2.508   5.684  25.329  0.00  0.00    +0.011 A 
ATOM     26  C   UNL     1      -0.709   3.595  24.626  0.00  0.00    +0.047 A 
ATOM     29  C   UNL     1      -1.193   5.962  24.930  0.00  0.00    +0.001 A 
ATOM     30  C   UNL     1      -0.311   4.935  24.586  0.00  0.00    +0.004 A 
ENDBRANCH  13  18
ENDBRANCH   3  13
TORSDOF 4
ENDMDL
