MODEL 1
REMARK VINA RESULT:      -4.2      0.000      0.000
REMARK  Name = 56775967
REMARK  6 active torsions:
REMARK  status: ('A' for Active; 'I' for Inactive)
REMARK    1  A    between atoms: O_5  and  C_25
REMARK    2  A    between atoms: O_5  and  C_26
REMARK    3  A    between atoms: N_6  and  C_12
REMARK    4  A    between atoms: C_9  and  C_12
REMARK    5  A    between atoms: C_13  and  C_17
REMARK    6  A    between atoms: C_18  and  C_20
REMARK                            x       y       z     vdW  Elec       q    Type
REMARK                         _______ _______ _______ _____ _____    ______ ____
ROOT
ATOM      7  N   UNL     1      -1.791   1.832  24.139  0.00  0.00    -0.341 N 
ATOM      8  N   UNL     1      -2.004   3.920  24.863  0.00  0.00    -0.238 NA
ATOM     17  C   UNL     1      -2.643   2.808  24.577  0.00  0.00    +0.127 A 
ATOM     18  C   UNL     1      -0.529   2.357  24.144  0.00  0.00    +0.066 A 
ATOM     19  C   UNL     1      -0.687   3.646  24.595  0.00  0.00    +0.139 A 
ATOM     27  H   UNL     1      -2.054   0.892  23.873  0.00  0.00    +0.167 HD
ENDROOT
BRANCH  17  13
ATOM      4  O   UNL     1      -6.161   3.445  25.747  0.00  0.00    -0.377 OA
ATOM      6  N   UNL     1      -4.480   1.198  25.183  0.00  0.00    -0.288 NA
ATOM     13  C   UNL     1      -4.139   2.558  24.696  0.00  0.00    +0.149 C 
ATOM     14  C   UNL     1      -5.936   1.072  25.370  0.00  0.00    +0.113 C 
ATOM     15  C   UNL     1      -4.750   3.622  25.630  0.00  0.00    +0.186 C 
ATOM     16  C   UNL     1      -6.459   2.163  26.295  0.00  0.00    +0.175 C 
BRANCH   6  12
ATOM     12  C   UNL     1      -4.021   0.150  24.262  0.00  0.00    +0.088 C 
BRANCH  12   9
ATOM      9  C   UNL     1      -3.758  -1.131  24.984  0.00  0.00    +0.003 C 
ATOM     10  C   UNL     1      -2.493  -1.886  24.699  0.00  0.00    +0.005 C 
ATOM     11  C   UNL     1      -3.812  -2.424  24.226  0.00  0.00    +0.005 C 
ENDBRANCH  12   9
ENDBRANCH   6  12
ENDBRANCH  17  13
BRANCH  18  20
ATOM     20  C   UNL     1       0.638   1.618  23.743  0.00  0.00    +0.000 A 
ATOM     21  C   UNL     1       1.837   2.286  23.496  0.00  0.00    +0.013 A 
ATOM     22  C   UNL     1       0.571   0.231  23.603  0.00  0.00    +0.013 A 
ATOM     23  C   UNL     1       2.968   1.568  23.107  0.00  0.00    +0.046 A 
ATOM     24  C   UNL     1       1.702  -0.487  23.214  0.00  0.00    +0.046 A 
ATOM     25  C   UNL     1       2.901   0.183  22.966  0.00  0.00    +0.130 A 
BRANCH  25   5
ATOM      5  O   UNL     1       4.005  -0.518  22.591  0.00  0.00    -0.406 OA
BRANCH   5  26
ATOM      1  F   UNL     1       5.199  -1.620  24.158  0.00  0.00    -0.133 F 
ATOM      2  F   UNL     1       6.286  -0.392  22.714  0.00  0.00    -0.133 F 
ATOM      3  F   UNL     1       5.077   0.558  24.302  0.00  0.00    -0.133 F 
ATOM     26  C   UNL     1       5.149  -0.477  23.437  0.00  0.00    +0.575 C 
ENDBRANCH   5  26
ENDBRANCH  25   5
ENDBRANCH  18  20
TORSDOF 6
ENDMDL
MODEL 2
REMARK VINA RESULT:      -4.1      1.260      3.146
REMARK  Name = 56775967
REMARK  6 active torsions:
REMARK  status: ('A' for Active; 'I' for Inactive)
REMARK    1  A    between atoms: O_5  and  C_25
REMARK    2  A    between atoms: O_5  and  C_26
REMARK    3  A    between atoms: N_6  and  C_12
REMARK    4  A    between atoms: C_9  and  C_12
REMARK    5  A    between atoms: C_13  and  C_17
REMARK    6  A    between atoms: C_18  and  C_20
REMARK                            x       y       z     vdW  Elec       q    Type
REMARK                         _______ _______ _______ _____ _____    ______ ____
ROOT
ATOM      7  N   UNL     1      -1.775   1.183  24.618  0.00  0.00    -0.341 N 
ATOM      8  N   UNL     1      -3.199  -0.514  24.468  0.00  0.00    -0.238 NA
ATOM     17  C   UNL     1      -3.037   0.725  24.875  0.00  0.00    +0.127 A 
ATOM     18  C   UNL     1      -1.088   0.169  24.010  0.00  0.00    +0.066 A 
ATOM     19  C   UNL     1      -1.988  -0.866  23.928  0.00  0.00    +0.139 A 
ATOM     27  H   UNL     1      -1.425   2.107  24.832  0.00  0.00    +0.167 HD
ENDROOT
BRANCH  17  13
ATOM      4  O   UNL     1      -6.492   1.924  25.760  0.00  0.00    -0.377 OA
ATOM      6  N   UNL     1      -3.909   3.054  25.266  0.00  0.00    -0.288 NA
ATOM     13  C   UNL     1      -4.076   1.607  25.553  0.00  0.00    +0.149 C 
ATOM     14  C   UNL     1      -5.009   3.824  25.870  0.00  0.00    +0.113 C 
ATOM     15  C   UNL     1      -5.481   1.142  25.123  0.00  0.00    +0.186 C 
ATOM     16  C   UNL     1      -6.359   3.297  25.402  0.00  0.00    +0.175 C 
BRANCH   6  12
ATOM     12  C   UNL     1      -2.629   3.571  25.766  0.00  0.00    +0.088 C 
BRANCH  12   9
ATOM      9  C   UNL     1      -1.905   4.342  24.710  0.00  0.00    +0.003 C 
ATOM     10  C   UNL     1      -0.426   4.556  24.843  0.00  0.00    +0.005 C 
ATOM     11  C   UNL     1      -1.371   5.706  25.034  0.00  0.00    +0.005 C 
ENDBRANCH  12   9
ENDBRANCH   6  12
ENDBRANCH  17  13
BRANCH  18  20
ATOM     20  C   UNL     1       0.282   0.283  23.587  0.00  0.00    +0.000 A 
ATOM     21  C   UNL     1       1.050   1.375  23.992  0.00  0.00    +0.013 A 
ATOM     22  C   UNL     1       0.845  -0.700  22.772  0.00  0.00    +0.013 A 
ATOM     23  C   UNL     1       2.378   1.486  23.582  0.00  0.00    +0.046 A 
ATOM     24  C   UNL     1       2.174  -0.590  22.362  0.00  0.00    +0.046 A 
ATOM     25  C   UNL     1       2.940   0.503  22.767  0.00  0.00    +0.130 A 
BRANCH  25   5
ATOM      5  O   UNL     1       4.238   0.608  22.370  0.00  0.00    -0.406 OA
BRANCH   5  26
ATOM      1  F   UNL     1       4.781  -1.009  23.849  0.00  0.00    -0.133 F 
ATOM      2  F   UNL     1       6.353  -0.245  22.536  0.00  0.00    -0.133 F 
ATOM      3  F   UNL     1       5.572   1.001  24.185  0.00  0.00    -0.133 F 
ATOM     26  C   UNL     1       5.250   0.100  23.233  0.00  0.00    +0.575 C 
ENDBRANCH   5  26
ENDBRANCH  25   5
ENDBRANCH  18  20
TORSDOF 6
ENDMDL
