MODEL 1
REMARK VINA RESULT:      -4.2      0.000      0.000
REMARK  Name = 51137087
REMARK  3 active torsions:
REMARK  status: ('A' for Active; 'I' for Inactive)
REMARK    1  A    between atoms: N_3  and  C_9
REMARK    2  A    between atoms: C_5  and  C_10
REMARK    3  A    between atoms: C_9  and  C_11
REMARK                            x       y       z     vdW  Elec       q    Type
REMARK                         _______ _______ _______ _____ _____    ______ ____
ROOT
ATOM      3  N   UNL     1       0.878  -0.475  23.605  0.00  0.00    -0.297 NA
ATOM      5  C   UNL     1      -0.966  -0.062  24.993  0.00  0.00    +0.060 C 
ATOM      6  C   UNL     1      -1.130  -1.432  24.312  0.00  0.00    +0.027 C 
ATOM      7  C   UNL     1       0.132   0.644  24.187  0.00  0.00    +0.095 C 
ATOM      8  C   UNL     1      -0.146  -1.415  23.151  0.00  0.00    +0.085 C 
ENDROOT
BRANCH   5  10
ATOM      1  S   UNL     1      -3.745  -0.049  25.038  0.00  0.00    -0.072 S 
ATOM      4  N   UNL     1      -2.269   2.056  25.235  0.00  0.00    -0.244 NA
ATOM     10  C   UNL     1      -2.235   0.752  25.099  0.00  0.00    +0.084 A 
ATOM     12  C   UNL     1      -4.546   1.469  25.208  0.00  0.00    +0.039 A 
ATOM     13  C   UNL     1      -3.587   2.483  25.300  0.00  0.00    +0.078 A 
ATOM     15  C   UNL     1      -5.922   1.742  25.257  0.00  0.00    +0.017 A 
ATOM     16  C   UNL     1      -4.025   3.817  25.446  0.00  0.00    +0.029 A 
ATOM     19  C   UNL     1      -6.328   3.071  25.402  0.00  0.00    +0.001 A 
ATOM     20  C   UNL     1      -5.394   4.097  25.496  0.00  0.00    +0.002 A 
ENDBRANCH   5  10
BRANCH   3   9
ATOM      9  C   UNL     1       1.760  -0.051  22.528  0.00  0.00    +0.126 C 
BRANCH   9  11
ATOM      2  S   UNL     1       3.893  -1.373  23.727  0.00  0.00    -0.100 S 
ATOM     11  C   UNL     1       3.200  -0.005  22.965  0.00  0.00    +0.004 A 
ATOM     14  C   UNL     1       4.101   1.029  22.840  0.00  0.00    +0.012 A 
ATOM     17  C   UNL     1       5.378   0.694  23.377  0.00  0.00    +0.008 A 
ATOM     18  C   UNL     1       5.403  -0.584  23.893  0.00  0.00    +0.045 A 
ENDBRANCH   9  11
ENDBRANCH   3   9
TORSDOF 3
ENDMDL
MODEL 2
REMARK VINA RESULT:      -4.0     15.233     18.257
REMARK  Name = 51137087
REMARK  3 active torsions:
REMARK  status: ('A' for Active; 'I' for Inactive)
REMARK    1  A    between atoms: N_3  and  C_9
REMARK    2  A    between atoms: C_5  and  C_10
REMARK    3  A    between atoms: C_9  and  C_11
REMARK                            x       y       z     vdW  Elec       q    Type
REMARK                         _______ _______ _______ _____ _____    ______ ____
ROOT
ATOM      3  N   UNL     1      11.235  -8.462  31.690  0.00  0.00    -0.297 NA
ATOM      5  C   UNL     1      12.922  -7.229  30.626  0.00  0.00    +0.060 C 
ATOM      6  C   UNL     1      13.489  -8.581  31.093  0.00  0.00    +0.027 C 
ATOM      7  C   UNL     1      11.602  -7.075  31.392  0.00  0.00    +0.095 C 
ATOM      8  C   UNL     1      12.482  -9.100  32.110  0.00  0.00    +0.085 C 
ENDROOT
BRANCH   5  10
ATOM      1  S   UNL     1      13.584  -4.975  32.112  0.00  0.00    -0.072 S 
ATOM      4  N   UNL     1      14.873  -5.785  30.031  0.00  0.00    -0.244 NA
ATOM     10  C   UNL     1      13.852  -6.052  30.811  0.00  0.00    +0.084 A 
ATOM     12  C   UNL     1      14.949  -4.048  31.614  0.00  0.00    +0.039 A 
ATOM     13  C   UNL     1      15.513  -4.639  30.478  0.00  0.00    +0.078 A 
ATOM     15  C   UNL     1      15.484  -2.883  32.187  0.00  0.00    +0.017 A 
ATOM     16  C   UNL     1      16.652  -4.040  29.898  0.00  0.00    +0.029 A 
ATOM     19  C   UNL     1      16.611  -2.310  31.591  0.00  0.00    +0.001 A 
ATOM     20  C   UNL     1      17.190  -2.880  30.463  0.00  0.00    +0.002 A 
ENDBRANCH   5  10
BRANCH   3   9
ATOM      9  C   UNL     1      10.195  -8.555  32.703  0.00  0.00    +0.126 C 
BRANCH   9  11
ATOM      2  S   UNL     1       8.626 -10.628  31.715  0.00  0.00    -0.100 S 
ATOM     11  C   UNL     1       8.876  -8.982  32.117  0.00  0.00    +0.004 A 
ATOM     14  C   UNL     1       7.771  -8.208  31.837  0.00  0.00    +0.012 A 
ATOM     17  C   UNL     1       6.706  -8.976  31.285  0.00  0.00    +0.008 A 
ATOM     18  C   UNL     1       7.037 -10.308  31.164  0.00  0.00    +0.045 A 
ENDBRANCH   9  11
ENDBRANCH   3   9
TORSDOF 3
ENDMDL
MODEL 3
REMARK VINA RESULT:      -2.6     17.102     19.608
REMARK  Name = 51137087
REMARK  3 active torsions:
REMARK  status: ('A' for Active; 'I' for Inactive)
REMARK    1  A    between atoms: N_3  and  C_9
REMARK    2  A    between atoms: C_5  and  C_10
REMARK    3  A    between atoms: C_9  and  C_11
REMARK                            x       y       z     vdW  Elec       q    Type
REMARK                         _______ _______ _______ _____ _____    ______ ____
ROOT
ATOM      3  N   UNL     1      13.441  -9.390  31.916  0.00  0.00    -0.297 NA
ATOM      5  C   UNL     1      14.504  -9.612  29.837  0.00  0.00    +0.060 C 
ATOM      6  C   UNL     1      15.470 -10.036  30.958  0.00  0.00    +0.027 C 
ATOM      7  C   UNL     1      13.387  -8.845  30.557  0.00  0.00    +0.095 C 
ATOM      8  C   UNL     1      14.867  -9.466  32.234  0.00  0.00    +0.085 C 
ENDROOT
BRANCH   5  10
ATOM      1  S   UNL     1      15.360  -7.134  28.914  0.00  0.00    -0.072 S 
ATOM      4  N   UNL     1      15.539  -9.333  27.580  0.00  0.00    -0.244 NA
ATOM     10  C   UNL     1      15.138  -8.818  28.719  0.00  0.00    +0.084 A 
ATOM     12  C   UNL     1      16.060  -7.052  27.341  0.00  0.00    +0.039 A 
ATOM     13  C   UNL     1      16.072  -8.333  26.779  0.00  0.00    +0.078 A 
ATOM     15  C   UNL     1      16.564  -5.937  26.654  0.00  0.00    +0.017 A 
ATOM     16  C   UNL     1      16.606  -8.500  25.483  0.00  0.00    +0.029 A 
ATOM     19  C   UNL     1      17.087  -6.129  25.372  0.00  0.00    +0.001 A 
ATOM     20  C   UNL     1      17.110  -7.394  24.793  0.00  0.00    +0.002 A 
ENDBRANCH   5  10
BRANCH   3   9
ATOM      9  C   UNL     1      12.703  -8.575  32.869  0.00  0.00    +0.126 C 
BRANCH   9  11
ATOM      2  S   UNL     1      14.186  -6.223  32.869  0.00  0.00    -0.100 S 
ATOM     11  C   UNL     1      12.764  -7.111  32.524  0.00  0.00    +0.004 A 
ATOM     14  C   UNL     1      11.794  -6.328  31.937  0.00  0.00    +0.012 A 
ATOM     17  C   UNL     1      12.225  -4.980  31.768  0.00  0.00    +0.008 A 
ATOM     18  C   UNL     1      13.508  -4.785  32.234  0.00  0.00    +0.045 A 
ENDBRANCH   9  11
ENDBRANCH   3   9
TORSDOF 3
ENDMDL
MODEL 4
REMARK VINA RESULT:      -2.1      1.453      1.908
REMARK  Name = 51137087
REMARK  3 active torsions:
REMARK  status: ('A' for Active; 'I' for Inactive)
REMARK    1  A    between atoms: N_3  and  C_9
REMARK    2  A    between atoms: C_5  and  C_10
REMARK    3  A    between atoms: C_9  and  C_11
REMARK                            x       y       z     vdW  Elec       q    Type
REMARK                         _______ _______ _______ _____ _____    ______ ____
ROOT
ATOM      3  N   UNL     1       1.094   0.821  22.984  0.00  0.00    -0.297 NA
ATOM      5  C   UNL     1      -0.811   2.136  23.356  0.00  0.00    +0.060 C 
ATOM      6  C   UNL     1       0.317   2.584  24.303  0.00  0.00    +0.027 C 
ATOM      7  C   UNL     1      -0.362   0.763  22.839  0.00  0.00    +0.095 C 
ATOM      8  C   UNL     1       1.318   1.438  24.291  0.00  0.00    +0.085 C 
ENDROOT
BRANCH   5  10
ATOM      1  S   UNL     1      -2.998   0.615  24.149  0.00  0.00    -0.072 S 
ATOM      4  N   UNL     1      -2.828   3.175  24.404  0.00  0.00    -0.244 NA
ATOM     10  C   UNL     1      -2.189   2.111  23.977  0.00  0.00    +0.084 A 
ATOM     12  C   UNL     1      -4.339   1.432  24.860  0.00  0.00    +0.039 A 
ATOM     13  C   UNL     1      -4.063   2.802  24.914  0.00  0.00    +0.078 A 
ATOM     15  C   UNL     1      -5.547   0.900  25.338  0.00  0.00    +0.017 A 
ATOM     16  C   UNL     1      -5.033   3.667  25.466  0.00  0.00    +0.029 A 
ATOM     19  C   UNL     1      -6.490   1.779  25.878  0.00  0.00    +0.001 A 
ATOM     20  C   UNL     1      -6.238   3.145  25.943  0.00  0.00    +0.002 A 
ENDBRANCH   5  10
BRANCH   3   9
ATOM      9  C   UNL     1       1.714  -0.491  22.876  0.00  0.00    +0.126 C 
BRANCH   9  11
ATOM      2  S   UNL     1       4.109   0.907  22.670  0.00  0.00    -0.100 S 
ATOM     11  C   UNL     1       3.187  -0.443  23.179  0.00  0.00    +0.004 A 
ATOM     14  C   UNL     1       3.957  -1.374  23.844  0.00  0.00    +0.012 A 
ATOM     17  C   UNL     1       5.320  -0.972  23.936  0.00  0.00    +0.008 A 
ATOM     18  C   UNL     1       5.542   0.250  23.338  0.00  0.00    +0.045 A 
ENDBRANCH   9  11
ENDBRANCH   3   9
TORSDOF 3
ENDMDL
MODEL 5
REMARK VINA RESULT:      -1.9      2.977      6.479
REMARK  Name = 51137087
REMARK  3 active torsions:
REMARK  status: ('A' for Active; 'I' for Inactive)
REMARK    1  A    between atoms: N_3  and  C_9
REMARK    2  A    between atoms: C_5  and  C_10
REMARK    3  A    between atoms: C_9  and  C_11
REMARK                            x       y       z     vdW  Elec       q    Type
REMARK                         _______ _______ _______ _____ _____    ______ ____
ROOT
ATOM      3  N   UNL     1      -0.449   3.678  25.286  0.00  0.00    -0.297 NA
ATOM      5  C   UNL     1      -0.361   1.335  25.237  0.00  0.00    +0.060 C 
ATOM      6  C   UNL     1       0.421   1.905  24.040  0.00  0.00    +0.027 C 
ATOM      7  C   UNL     1      -1.206   2.511  25.745  0.00  0.00    +0.095 C 
ATOM      8  C   UNL     1      -0.043   3.350  23.920  0.00  0.00    +0.085 C 
ENDROOT
BRANCH   5  10
ATOM      1  S   UNL     1      -0.470  -1.439  25.093  0.00  0.00    -0.072 S 
ATOM      4  N   UNL     1      -2.437   0.133  24.538  0.00  0.00    -0.244 NA
ATOM     10  C   UNL     1      -1.186   0.106  24.931  0.00  0.00    +0.084 A 
ATOM     12  C   UNL     1      -1.952  -2.167  24.598  0.00  0.00    +0.039 A 
ATOM     13  C   UNL     1      -2.892  -1.163  24.344  0.00  0.00    +0.078 A 
ATOM     15  C   UNL     1      -2.261  -3.528  24.447  0.00  0.00    +0.017 A 
ATOM     16  C   UNL     1      -4.186  -1.538  23.923  0.00  0.00    +0.029 A 
ATOM     19  C   UNL     1      -3.550  -3.872  24.028  0.00  0.00    +0.001 A 
ATOM     20  C   UNL     1      -4.501  -2.891  23.770  0.00  0.00    +0.002 A 
ENDBRANCH   5  10
BRANCH   3   9
ATOM      9  C   UNL     1      -1.227   4.905  25.355  0.00  0.00    +0.126 C 
BRANCH   9  11
ATOM      2  S   UNL     1      -3.562   4.196  24.021  0.00  0.00    -0.100 S 
ATOM     11  C   UNL     1      -2.705   4.630  25.438  0.00  0.00    +0.004 A 
ATOM     14  C   UNL     1      -3.525   4.675  26.545  0.00  0.00    +0.012 A 
ATOM     17  C   UNL     1      -4.874   4.348  26.224  0.00  0.00    +0.008 A 
ATOM     18  C   UNL     1      -5.034   4.067  24.885  0.00  0.00    +0.045 A 
ENDBRANCH   9  11
ENDBRANCH   3   9
TORSDOF 3
ENDMDL
MODEL 6
REMARK VINA RESULT:      -1.7      2.086      7.178
REMARK  Name = 51137087
REMARK  3 active torsions:
REMARK  status: ('A' for Active; 'I' for Inactive)
REMARK    1  A    between atoms: N_3  and  C_9
REMARK    2  A    between atoms: C_5  and  C_10
REMARK    3  A    between atoms: C_9  and  C_11
REMARK                            x       y       z     vdW  Elec       q    Type
REMARK                         _______ _______ _______ _____ _____    ______ ____
ROOT
ATOM      3  N   UNL     1      -3.415   1.718  24.548  0.00  0.00    -0.297 NA
ATOM      5  C   UNL     1      -1.159   2.127  24.057  0.00  0.00    +0.060 C 
ATOM      6  C   UNL     1      -2.012   2.368  22.799  0.00  0.00    +0.027 C 
ATOM      7  C   UNL     1      -2.075   1.339  25.002  0.00  0.00    +0.095 C 
ATOM      8  C   UNL     1      -3.341   1.684  23.088  0.00  0.00    +0.085 C 
ENDROOT
BRANCH   5  10
ATOM      1  S   UNL     1       0.234  -0.269  23.849  0.00  0.00    -0.072 S 
ATOM      4  N   UNL     1       1.288   2.065  23.553  0.00  0.00    -0.244 NA
ATOM     10  C   UNL     1       0.163   1.439  23.806  0.00  0.00    +0.084 A 
ATOM     12  C   UNL     1       1.920  -0.199  23.499  0.00  0.00    +0.039 A 
ATOM     13  C   UNL     1       2.305   1.140  23.374  0.00  0.00    +0.078 A 
ATOM     15  C   UNL     1       2.836  -1.252  23.345  0.00  0.00    +0.017 A 
ATOM     16  C   UNL     1       3.656   1.432  23.085  0.00  0.00    +0.029 A 
ATOM     19  C   UNL     1       4.167  -0.935  23.060  0.00  0.00    +0.001 A 
ATOM     20  C   UNL     1       4.574   0.389  22.930  0.00  0.00    +0.002 A 
ENDBRANCH   5  10
BRANCH   3   9
ATOM      9  C   UNL     1      -4.447   0.836  25.073  0.00  0.00    +0.126 C 
BRANCH   9  11
ATOM      2  S   UNL     1      -3.214  -1.435  26.103  0.00  0.00    -0.100 S 
ATOM     11  C   UNL     1      -4.095  -0.615  24.884  0.00  0.00    +0.004 A 
ATOM     14  C   UNL     1      -4.390  -1.438  23.818  0.00  0.00    +0.012 A 
ATOM     17  C   UNL     1      -3.886  -2.757  24.005  0.00  0.00    +0.008 A 
ATOM     18  C   UNL     1      -3.224  -2.893  25.206  0.00  0.00    +0.045 A 
ENDBRANCH   9  11
ENDBRANCH   3   9
TORSDOF 3
ENDMDL
MODEL 7
REMARK VINA RESULT:      -1.5     16.571     19.466
REMARK  Name = 51137087
REMARK  3 active torsions:
REMARK  status: ('A' for Active; 'I' for Inactive)
REMARK    1  A    between atoms: N_3  and  C_9
REMARK    2  A    between atoms: C_5  and  C_10
REMARK    3  A    between atoms: C_9  and  C_11
REMARK                            x       y       z     vdW  Elec       q    Type
REMARK                         _______ _______ _______ _____ _____    ______ ____
ROOT
ATOM      3  N   UNL     1      12.566  -9.294  32.408  0.00  0.00    -0.297 NA
ATOM      5  C   UNL     1      13.983 -10.054  30.701  0.00  0.00    +0.060 C 
ATOM      6  C   UNL     1      14.814  -9.738  31.957  0.00  0.00    +0.027 C 
ATOM      7  C   UNL     1      12.631  -9.371  30.946  0.00  0.00    +0.095 C 
ATOM      8  C   UNL     1      13.905  -8.876  32.823  0.00  0.00    +0.085 C 
ENDROOT
BRANCH   5  10
ATOM      1  S   UNL     1      14.728 -10.781  28.124  0.00  0.00    -0.072 S 
ATOM      4  N   UNL     1      15.119  -8.452  29.157  0.00  0.00    -0.244 NA
ATOM     10  C   UNL     1      14.623  -9.643  29.395  0.00  0.00    +0.084 A 
ATOM     12  C   UNL     1      15.507  -9.598  27.141  0.00  0.00    +0.039 A 
ATOM     13  C   UNL     1      15.629  -8.409  27.868  0.00  0.00    +0.078 A 
ATOM     15  C   UNL     1      15.975  -9.713  25.823  0.00  0.00    +0.017 A 
ATOM     16  C   UNL     1      16.243  -7.298  27.250  0.00  0.00    +0.029 A 
ATOM     19  C   UNL     1      16.579  -8.598  25.235  0.00  0.00    +0.001 A 
ATOM     20  C   UNL     1      16.712  -7.405  25.938  0.00  0.00    +0.002 A 
ENDBRANCH   5  10
BRANCH   3   9
ATOM      9  C   UNL     1      11.531  -8.380  32.868  0.00  0.00    +0.126 C 
BRANCH   9  11
ATOM      2  S   UNL     1      10.709  -5.723  32.869  0.00  0.00    -0.100 S 
ATOM     11  C   UNL     1      11.860  -6.948  32.542  0.00  0.00    +0.004 A 
ATOM     14  C   UNL     1      13.014  -6.438  31.987  0.00  0.00    +0.012 A 
ATOM     17  C   UNL     1      12.952  -5.024  31.829  0.00  0.00    +0.008 A 
ATOM     18  C   UNL     1      11.752  -4.506  32.268  0.00  0.00    +0.045 A 
ENDBRANCH   9  11
ENDBRANCH   3   9
TORSDOF 3
ENDMDL
MODEL 8
REMARK VINA RESULT:      -0.8      3.901      6.373
REMARK  Name = 51137087
REMARK  3 active torsions:
REMARK  status: ('A' for Active; 'I' for Inactive)
REMARK    1  A    between atoms: N_3  and  C_9
REMARK    2  A    between atoms: C_5  and  C_10
REMARK    3  A    between atoms: C_9  and  C_11
REMARK                            x       y       z     vdW  Elec       q    Type
REMARK                         _______ _______ _______ _____ _____    ______ ____
ROOT
ATOM      3  N   UNL     1      -4.698   4.059  25.296  0.00  0.00    -0.297 NA
ATOM      5  C   UNL     1      -4.978   1.879  24.481  0.00  0.00    +0.060 C 
ATOM      6  C   UNL     1      -5.860   2.080  25.726  0.00  0.00    +0.027 C 
ATOM      7  C   UNL     1      -3.984   3.046  24.515  0.00  0.00    +0.095 C 
ATOM      8  C   UNL     1      -5.302   3.323  26.406  0.00  0.00    +0.085 C 
ENDROOT
BRANCH   5  10
ATOM      1  S   UNL     1      -2.618   0.423  24.670  0.00  0.00    -0.072 S 
ATOM      4  N   UNL     1      -4.921  -0.592  24.112  0.00  0.00    -0.244 NA
ATOM     10  C   UNL     1      -4.302   0.530  24.393  0.00  0.00    +0.084 A 
ATOM     12  C   UNL     1      -2.690  -1.277  24.396  0.00  0.00    +0.039 A 
ATOM     13  C   UNL     1      -4.011  -1.638  24.110  0.00  0.00    +0.078 A 
ATOM     15  C   UNL     1      -1.653  -2.224  24.432  0.00  0.00    +0.017 A 
ATOM     16  C   UNL     1      -4.301  -2.996  23.851  0.00  0.00    +0.029 A 
ATOM     19  C   UNL     1      -1.968  -3.560  24.171  0.00  0.00    +0.001 A 
ATOM     20  C   UNL     1      -3.274  -3.943  23.885  0.00  0.00    +0.002 A 
ENDBRANCH   5  10
BRANCH   3   9
ATOM      9  C   UNL     1      -3.821   5.129  25.750  0.00  0.00    +0.126 C 
BRANCH   9  11
ATOM      2  S   UNL     1      -1.669   3.413  26.151  0.00  0.00    -0.100 S 
ATOM     11  C   UNL     1      -2.373   4.822  25.477  0.00  0.00    +0.004 A 
ATOM     14  C   UNL     1      -1.471   5.541  24.724  0.00  0.00    +0.012 A 
ATOM     17  C   UNL     1      -0.186   4.928  24.699  0.00  0.00    +0.008 A 
ATOM     18  C   UNL     1      -0.154   3.763  25.436  0.00  0.00    +0.045 A 
ENDBRANCH   9  11
ENDBRANCH   3   9
TORSDOF 3
ENDMDL
MODEL 9
REMARK VINA RESULT:      -0.4     15.938     19.297
REMARK  Name = 51137087
REMARK  3 active torsions:
REMARK  status: ('A' for Active; 'I' for Inactive)
REMARK    1  A    between atoms: N_3  and  C_9
REMARK    2  A    between atoms: C_5  and  C_10
REMARK    3  A    between atoms: C_9  and  C_11
REMARK                            x       y       z     vdW  Elec       q    Type
REMARK                         _______ _______ _______ _____ _____    ______ ____
ROOT
ATOM      3  N   UNL     1      12.427  -7.916  32.247  0.00  0.00    -0.297 NA
ATOM      5  C   UNL     1      14.224  -8.614  30.911  0.00  0.00    +0.060 C 
ATOM      6  C   UNL     1      14.761  -7.908  32.169  0.00  0.00    +0.027 C 
ATOM      7  C   UNL     1      12.742  -8.224  30.849  0.00  0.00    +0.095 C 
ATOM      8  C   UNL     1      13.571  -7.141  32.728  0.00  0.00    +0.085 C 
ENDROOT
BRANCH   5  10
ATOM      1  S   UNL     1      15.104  -6.668  29.133  0.00  0.00    -0.072 S 
ATOM      4  N   UNL     1      15.539  -9.195  28.868  0.00  0.00    -0.244 NA
ATOM     10  C   UNL     1      14.972  -8.296  29.637  0.00  0.00    +0.084 A 
ATOM     12  C   UNL     1      16.003  -7.178  27.753  0.00  0.00    +0.039 A 
ATOM     13  C   UNL     1      16.136  -8.570  27.783  0.00  0.00    +0.078 A 
ATOM     15  C   UNL     1      16.553  -6.402  26.719  0.00  0.00    +0.017 A 
ATOM     16  C   UNL     1      16.843  -9.205  26.739  0.00  0.00    +0.029 A 
ATOM     19  C   UNL     1      17.248  -7.057  25.698  0.00  0.00    +0.001 A 
ATOM     20  C   UNL     1      17.393  -8.440  25.707  0.00  0.00    +0.002 A 
ENDBRANCH   5  10
BRANCH   3   9
ATOM      9  C   UNL     1      11.170  -7.196  32.386  0.00  0.00    +0.126 C 
BRANCH   9  11
ATOM      2  S   UNL     1       8.539  -7.953  32.872  0.00  0.00    -0.100 S 
ATOM     11  C   UNL     1       9.993  -8.037  31.971  0.00  0.00    +0.004 A 
ATOM     14  C   UNL     1       9.897  -8.917  30.916  0.00  0.00    +0.012 A 
ATOM     17  C   UNL     1       8.612  -9.530  30.846  0.00  0.00    +0.008 A 
ATOM     18  C   UNL     1       7.776  -9.096  31.851  0.00  0.00    +0.045 A 
ENDBRANCH   9  11
ENDBRANCH   3   9
TORSDOF 3
ENDMDL
