MODEL 1
REMARK VINA RESULT:      -5.4      0.000      0.000
REMARK  Name = 56775566
REMARK  6 active torsions:
REMARK  status: ('A' for Active; 'I' for Inactive)
REMARK    1  A    between atoms: N_4  and  C_6
REMARK    2  A    between atoms: N_4  and  C_10
REMARK    3  A    between atoms: C_6  and  C_9
REMARK    4  A    between atoms: C_9  and  C_11
REMARK    5  A    between atoms: C_10  and  C_12
REMARK    6  A    between atoms: C_14  and  C_17
REMARK                            x       y       z     vdW  Elec       q    Type
REMARK                         _______ _______ _______ _____ _____    ______ ____
ROOT
ATOM      2  O   UNL     1      15.246  -9.966  26.227  0.00  0.00    -0.376 OA
ATOM      6  C   UNL     1      15.977  -8.334  27.394  0.00  0.00    +0.072 C 
ATOM      7  C   UNL     1      16.042  -9.857  27.430  0.00  0.00    +0.184 C 
ATOM      8  C   UNL     1      15.225  -8.528  26.081  0.00  0.00    +0.184 C 
ENDROOT
BRANCH   6   4
ATOM      4  N   UNL     1      15.037  -7.881  28.411  0.00  0.00    -0.302 NA
ATOM     26  H   UNL     1      14.139  -7.548  28.065  0.00  0.00    +0.123 HD
BRANCH   4  10
ATOM     10  C   UNL     1      15.668  -6.865  29.249  0.00  0.00    +0.118 C 
BRANCH  10  12
ATOM      1 CL   UNL     1      16.649  -4.507  30.986  0.00  0.00    -0.083 Cl
ATOM     12  C   UNL     1      14.677  -6.201  30.167  0.00  0.00    -0.015 A 
ATOM     15  C   UNL     1      15.040  -5.130  30.984  0.00  0.00    +0.045 A 
ATOM     16  C   UNL     1      13.368  -6.682  30.188  0.00  0.00    +0.006 A 
ATOM     18  C   UNL     1      14.093  -4.540  31.822  0.00  0.00    +0.020 A 
ATOM     19  C   UNL     1      12.422  -6.092  31.025  0.00  0.00    +0.000 A 
ATOM     20  C   UNL     1      12.784  -5.022  31.842  0.00  0.00    +0.001 A 
ENDBRANCH  10  12
ENDBRANCH   4  10
ENDBRANCH   6   4
BRANCH   6   9
ATOM      9  C   UNL     1      17.286  -7.533  27.390  0.00  0.00    +0.085 C 
BRANCH   9  11
ATOM      3  O   UNL     1      17.352  -5.744  24.299  0.00  0.00    -0.354 OA
ATOM      5  N   UNL     1      17.372  -6.920  25.038  0.00  0.00    -0.083 NA
ATOM     11  C   UNL     1      17.291  -6.531  26.313  0.00  0.00    +0.086 A 
ATOM     13  C   UNL     1      17.219  -5.132  26.439  0.00  0.00    +0.076 A 
ATOM     14  C   UNL     1      17.261  -4.686  25.145  0.00  0.00    +0.167 A 
BRANCH  14  17
ATOM     17  C   UNL     1      17.229  -3.386  24.520  0.00  0.00    +0.020 A 
ATOM     21  C   UNL     1      17.029  -2.244  25.296  0.00  0.00    +0.011 A 
ATOM     22  C   UNL     1      17.397  -3.271  23.140  0.00  0.00    +0.011 A 
ATOM     23  C   UNL     1      16.997  -0.987  24.691  0.00  0.00    +0.001 A 
ATOM     24  C   UNL     1      17.364  -2.015  22.535  0.00  0.00    +0.001 A 
ATOM     25  C   UNL     1      17.165  -0.872  23.312  0.00  0.00    +0.000 A 
ENDBRANCH  14  17
ENDBRANCH   9  11
ENDBRANCH   6   9
TORSDOF 6
ENDMDL
MODEL 2
REMARK VINA RESULT:      -4.9     18.003     19.573
REMARK  Name = 56775566
REMARK  6 active torsions:
REMARK  status: ('A' for Active; 'I' for Inactive)
REMARK    1  A    between atoms: N_4  and  C_6
REMARK    2  A    between atoms: N_4  and  C_10
REMARK    3  A    between atoms: C_6  and  C_9
REMARK    4  A    between atoms: C_9  and  C_11
REMARK    5  A    between atoms: C_10  and  C_12
REMARK    6  A    between atoms: C_14  and  C_17
REMARK                            x       y       z     vdW  Elec       q    Type
REMARK                         _______ _______ _______ _____ _____    ______ ____
ROOT
ATOM      2  O   UNL     1      -5.753   3.885  25.360  0.00  0.00    -0.376 OA
ATOM      6  C   UNL     1      -3.692   3.361  25.169  0.00  0.00    +0.072 C 
ATOM      7  C   UNL     1      -4.742   4.104  24.350  0.00  0.00    +0.184 C 
ATOM      8  C   UNL     1      -4.783   3.253  26.228  0.00  0.00    +0.184 C 
ENDROOT
BRANCH   6   4
ATOM      4  N   UNL     1      -3.480   2.046  24.578  0.00  0.00    -0.302 NA
ATOM     26  H   UNL     1      -4.126   1.786  23.836  0.00  0.00    +0.123 HD
BRANCH   4  10
ATOM     10  C   UNL     1      -3.475   1.029  25.627  0.00  0.00    +0.118 C 
BRANCH  10  12
ATOM      1 CL   UNL     1      -0.993  -0.687  26.284  0.00  0.00    -0.083 Cl
ATOM     12  C   UNL     1      -3.405  -0.363  25.057  0.00  0.00    -0.015 A 
ATOM     15  C   UNL     1      -2.319  -1.201  25.306  0.00  0.00    +0.045 A 
ATOM     16  C   UNL     1      -4.462  -0.807  24.262  0.00  0.00    +0.006 A 
ATOM     18  C   UNL     1      -2.289  -2.485  24.760  0.00  0.00    +0.020 A 
ATOM     19  C   UNL     1      -4.432  -2.090  23.717  0.00  0.00    +0.000 A 
ATOM     20  C   UNL     1      -3.346  -2.929  23.965  0.00  0.00    +0.001 A 
ENDBRANCH  10  12
ENDBRANCH   4  10
ENDBRANCH   6   4
BRANCH   6   9
ATOM      9  C   UNL     1      -2.381   4.076  25.523  0.00  0.00    +0.085 C 
BRANCH   9  11
ATOM      3  O   UNL     1       0.544   2.027  25.612  0.00  0.00    -0.354 OA
ATOM      5  N   UNL     1      -0.442   2.788  26.228  0.00  0.00    -0.083 NA
ATOM     11  C   UNL     1      -1.217   3.225  25.231  0.00  0.00    +0.086 A 
ATOM     13  C   UNL     1      -0.772   2.776  23.975  0.00  0.00    +0.076 A 
ATOM     14  C   UNL     1       0.337   2.028  24.270  0.00  0.00    +0.167 A 
BRANCH  14  17
ATOM     17  C   UNL     1       1.286   1.272  23.490  0.00  0.00    +0.020 A 
ATOM     21  C   UNL     1       2.626   1.660  23.457  0.00  0.00    +0.011 A 
ATOM     22  C   UNL     1       0.865   0.155  22.770  0.00  0.00    +0.011 A 
ATOM     23  C   UNL     1       3.544   0.929  22.703  0.00  0.00    +0.001 A 
ATOM     24  C   UNL     1       1.783  -0.575  22.015  0.00  0.00    +0.001 A 
ATOM     25  C   UNL     1       3.124  -0.188  21.982  0.00  0.00    +0.000 A 
ENDBRANCH  14  17
ENDBRANCH   9  11
ENDBRANCH   6   9
TORSDOF 6
ENDMDL
MODEL 3
REMARK VINA RESULT:      -4.8     18.161     19.708
REMARK  Name = 56775566
REMARK  6 active torsions:
REMARK  status: ('A' for Active; 'I' for Inactive)
REMARK    1  A    between atoms: N_4  and  C_6
REMARK    2  A    between atoms: N_4  and  C_10
REMARK    3  A    between atoms: C_6  and  C_9
REMARK    4  A    between atoms: C_9  and  C_11
REMARK    5  A    between atoms: C_10  and  C_12
REMARK    6  A    between atoms: C_14  and  C_17
REMARK                            x       y       z     vdW  Elec       q    Type
REMARK                         _______ _______ _______ _____ _____    ______ ____
ROOT
ATOM      2  O   UNL     1      -6.216   3.473  25.819  0.00  0.00    -0.376 OA
ATOM      6  C   UNL     1      -4.539   2.508  24.917  0.00  0.00    +0.072 C 
ATOM      7  C   UNL     1      -6.052   2.327  24.953  0.00  0.00    +0.184 C 
ATOM      8  C   UNL     1      -4.800   3.758  25.751  0.00  0.00    +0.184 C 
ENDROOT
BRANCH   6   4
ATOM      4  N   UNL     1      -3.925   1.496  25.767  0.00  0.00    -0.302 NA
ATOM     26  H   UNL     1      -2.915   1.564  25.876  0.00  0.00    +0.123 HD
BRANCH   4  10
ATOM     10  C   UNL     1      -4.297   0.164  25.296  0.00  0.00    +0.118 C 
BRANCH  10  12
ATOM      1 CL   UNL     1      -4.563  -2.389  23.578  0.00  0.00    -0.083 Cl
ATOM     12  C   UNL     1      -3.102  -0.746  25.190  0.00  0.00    -0.015 A 
ATOM     15  C   UNL     1      -3.141  -1.918  24.434  0.00  0.00    +0.045 A 
ATOM     16  C   UNL     1      -1.938  -0.393  25.871  0.00  0.00    +0.006 A 
ATOM     18  C   UNL     1      -2.013  -2.737  24.360  0.00  0.00    +0.020 A 
ATOM     19  C   UNL     1      -0.811  -1.211  25.796  0.00  0.00    +0.000 A 
ATOM     20  C   UNL     1      -0.849  -2.383  25.041  0.00  0.00    +0.001 A 
ENDBRANCH  10  12
ENDBRANCH   4  10
ENDBRANCH   6   4
BRANCH   6   9
ATOM      9  C   UNL     1      -3.838   2.653  23.559  0.00  0.00    +0.085 C 
BRANCH   9  11
ATOM      3  O   UNL     1      -0.371   2.605  24.416  0.00  0.00    -0.354 OA
ATOM      5  N   UNL     1      -1.666   3.082  24.567  0.00  0.00    -0.083 NA
ATOM     11  C   UNL     1      -2.394   2.400  23.678  0.00  0.00    +0.086 A 
ATOM     13  C   UNL     1      -1.617   1.487  22.944  0.00  0.00    +0.076 A 
ATOM     14  C   UNL     1      -0.354   1.655  23.446  0.00  0.00    +0.167 A 
BRANCH  14  17
ATOM     17  C   UNL     1       0.932   1.060  23.175  0.00  0.00    +0.020 A 
ATOM     21  C   UNL     1       2.097   1.807  23.352  0.00  0.00    +0.011 A 
ATOM     22  C   UNL     1       1.011  -0.262  22.737  0.00  0.00    +0.011 A 
ATOM     23  C   UNL     1       3.340   1.232  23.090  0.00  0.00    +0.001 A 
ATOM     24  C   UNL     1       2.254  -0.837  22.474  0.00  0.00    +0.001 A 
ATOM     25  C   UNL     1       3.419  -0.090  22.651  0.00  0.00    +0.000 A 
ENDBRANCH  14  17
ENDBRANCH   9  11
ENDBRANCH   6   9
TORSDOF 6
ENDMDL
MODEL 4
REMARK VINA RESULT:      -3.9      4.353      8.422
REMARK  Name = 56775566
REMARK  6 active torsions:
REMARK  status: ('A' for Active; 'I' for Inactive)
REMARK    1  A    between atoms: N_4  and  C_6
REMARK    2  A    between atoms: N_4  and  C_10
REMARK    3  A    between atoms: C_6  and  C_9
REMARK    4  A    between atoms: C_9  and  C_11
REMARK    5  A    between atoms: C_10  and  C_12
REMARK    6  A    between atoms: C_14  and  C_17
REMARK                            x       y       z     vdW  Elec       q    Type
REMARK                         _______ _______ _______ _____ _____    ______ ____
ROOT
ATOM      2  O   UNL     1      17.299  -3.179  31.084  0.00  0.00    -0.376 OA
ATOM      6  C   UNL     1      15.672  -4.535  31.353  0.00  0.00    +0.072 C 
ATOM      7  C   UNL     1      16.895  -4.079  32.141  0.00  0.00    +0.184 C 
ATOM      8  C   UNL     1      16.109  -3.496  30.325  0.00  0.00    +0.184 C 
ENDROOT
BRANCH   6   4
ATOM      4  N   UNL     1      15.930  -5.864  30.814  0.00  0.00    -0.302 NA
ATOM     26  H   UNL     1      16.863  -6.235  30.982  0.00  0.00    +0.123 HD
BRANCH   4  10
ATOM     10  C   UNL     1      15.622  -5.886  29.386  0.00  0.00    +0.118 C 
BRANCH  10  12
ATOM      1 CL   UNL     1      16.373  -6.446  26.443  0.00  0.00    -0.083 Cl
ATOM     12  C   UNL     1      15.463  -7.291  28.870  0.00  0.00    -0.015 A 
ATOM     15  C   UNL     1      15.780  -7.627  27.553  0.00  0.00    +0.045 A 
ATOM     16  C   UNL     1      14.986  -8.269  29.743  0.00  0.00    +0.006 A 
ATOM     18  C   UNL     1      15.619  -8.940  27.110  0.00  0.00    +0.020 A 
ATOM     19  C   UNL     1      14.825  -9.581  29.300  0.00  0.00    +0.000 A 
ATOM     20  C   UNL     1      15.142  -9.917  27.984  0.00  0.00    +0.001 A 
ENDBRANCH  10  12
ENDBRANCH   4  10
ENDBRANCH   6   4
BRANCH   6   9
ATOM      9  C   UNL     1      14.283  -4.408  31.993  0.00  0.00    +0.085 C 
BRANCH   9  11
ATOM      3  O   UNL     1      13.400  -7.771  32.816  0.00  0.00    -0.354 OA
ATOM      5  N   UNL     1      14.255  -6.677  32.872  0.00  0.00    -0.083 NA
ATOM     11  C   UNL     1      13.650  -5.727  32.152  0.00  0.00    +0.086 A 
ATOM     13  C   UNL     1      12.422  -6.161  31.622  0.00  0.00    +0.076 A 
ATOM     14  C   UNL     1      12.312  -7.451  32.069  0.00  0.00    +0.167 A 
BRANCH  14  17
ATOM     17  C   UNL     1      11.327  -8.494  31.921  0.00  0.00    +0.020 A 
ATOM     21  C   UNL     1      11.719  -9.770  31.514  0.00  0.00    +0.011 A 
ATOM     22  C   UNL     1       9.984  -8.228  32.184  0.00  0.00    +0.011 A 
ATOM     23  C   UNL     1      10.767 -10.779  31.370  0.00  0.00    +0.001 A 
ATOM     24  C   UNL     1       9.031  -9.237  32.040  0.00  0.00    +0.001 A 
ATOM     25  C   UNL     1       9.423 -10.513  31.633  0.00  0.00    +0.000 A 
ENDBRANCH  14  17
ENDBRANCH   9  11
ENDBRANCH   6   9
TORSDOF 6
ENDMDL
MODEL 5
REMARK VINA RESULT:      -3.8     18.612     20.099
REMARK  Name = 56775566
REMARK  6 active torsions:
REMARK  status: ('A' for Active; 'I' for Inactive)
REMARK    1  A    between atoms: N_4  and  C_6
REMARK    2  A    between atoms: N_4  and  C_10
REMARK    3  A    between atoms: C_6  and  C_9
REMARK    4  A    between atoms: C_9  and  C_11
REMARK    5  A    between atoms: C_10  and  C_12
REMARK    6  A    between atoms: C_14  and  C_17
REMARK                            x       y       z     vdW  Elec       q    Type
REMARK                         _______ _______ _______ _____ _____    ______ ____
ROOT
ATOM      2  O   UNL     1      -3.988  -3.817  24.196  0.00  0.00    -0.376 OA
ATOM      6  C   UNL     1      -2.799  -2.219  24.966  0.00  0.00    +0.072 C 
ATOM      7  C   UNL     1      -3.421  -3.509  25.491  0.00  0.00    +0.184 C 
ATOM      8  C   UNL     1      -3.347  -2.659  23.613  0.00  0.00    +0.184 C 
ENDROOT
BRANCH   6   4
ATOM      4  N   UNL     1      -3.584  -1.091  25.447  0.00  0.00    -0.302 NA
ATOM     26  H   UNL     1      -4.257  -1.301  26.181  0.00  0.00    +0.123 HD
BRANCH   4  10
ATOM     10  C   UNL     1      -4.248  -0.437  24.321  0.00  0.00    +0.118 C 
BRANCH  10  12
ATOM      1 CL   UNL     1      -3.199   1.807  22.477  0.00  0.00    -0.083 Cl
ATOM     12  C   UNL     1      -4.631   0.983  24.645  0.00  0.00    -0.015 A 
ATOM     15  C   UNL     1      -4.199   2.054  23.862  0.00  0.00    +0.045 A 
ATOM     16  C   UNL     1      -5.438   1.214  25.758  0.00  0.00    +0.006 A 
ATOM     18  C   UNL     1      -4.574   3.356  24.194  0.00  0.00    +0.020 A 
ATOM     19  C   UNL     1      -5.813   2.515  26.089  0.00  0.00    +0.000 A 
ATOM     20  C   UNL     1      -5.381   3.586  25.307  0.00  0.00    +0.001 A 
ENDBRANCH  10  12
ENDBRANCH   4  10
ENDBRANCH   6   4
BRANCH   6   9
ATOM      9  C   UNL     1      -1.287  -2.005  25.122  0.00  0.00    +0.085 C 
BRANCH   9  11
ATOM      3  O   UNL     1       0.174   1.021  23.911  0.00  0.00    -0.354 OA
ATOM      5  N   UNL     1       0.093  -0.364  23.973  0.00  0.00    -0.083 NA
ATOM     11  C   UNL     1      -0.914  -0.616  24.815  0.00  0.00    +0.086 A 
ATOM     13  C   UNL     1      -1.500   0.562  25.311  0.00  0.00    +0.076 A 
ATOM     14  C   UNL     1      -0.780   1.562  24.712  0.00  0.00    +0.167 A 
BRANCH  14  17
ATOM     17  C   UNL     1      -0.821   3.003  24.751  0.00  0.00    +0.020 A 
ATOM     21  C   UNL     1      -1.665   3.653  25.652  0.00  0.00    +0.011 A 
ATOM     22  C   UNL     1      -0.018   3.747  23.887  0.00  0.00    +0.011 A 
ATOM     23  C   UNL     1      -1.706   5.046  25.689  0.00  0.00    +0.001 A 
ATOM     24  C   UNL     1      -0.059   5.141  23.924  0.00  0.00    +0.001 A 
ATOM     25  C   UNL     1      -0.903   5.791  24.826  0.00  0.00    +0.000 A 
ENDBRANCH  14  17
ENDBRANCH   9  11
ENDBRANCH   6   9
TORSDOF 6
ENDMDL
MODEL 6
REMARK VINA RESULT:      -3.6      4.137      7.834
REMARK  Name = 56775566
REMARK  6 active torsions:
REMARK  status: ('A' for Active; 'I' for Inactive)
REMARK    1  A    between atoms: N_4  and  C_6
REMARK    2  A    between atoms: N_4  and  C_10
REMARK    3  A    between atoms: C_6  and  C_9
REMARK    4  A    between atoms: C_9  and  C_11
REMARK    5  A    between atoms: C_10  and  C_12
REMARK    6  A    between atoms: C_14  and  C_17
REMARK                            x       y       z     vdW  Elec       q    Type
REMARK                         _______ _______ _______ _____ _____    ______ ____
ROOT
ATOM      2  O   UNL     1      17.329  -1.517  30.311  0.00  0.00    -0.376 OA
ATOM      6  C   UNL     1      16.344  -3.283  30.998  0.00  0.00    +0.072 C 
ATOM      7  C   UNL     1      17.322  -2.254  31.556  0.00  0.00    +0.184 C 
ATOM      8  C   UNL     1      16.330  -2.402  29.753  0.00  0.00    +0.184 C 
ENDROOT
BRANCH   6   4
ATOM      4  N   UNL     1      17.073  -4.508  30.698  0.00  0.00    -0.302 NA
ATOM     26  H   UNL     1      18.056  -4.512  30.961  0.00  0.00    +0.123 HD
BRANCH   4  10
ATOM     10  C   UNL     1      16.923  -4.836  29.283  0.00  0.00    +0.118 C 
BRANCH  10  12
ATOM      1 CL   UNL     1      16.282  -5.880  26.447  0.00  0.00    -0.083 Cl
ATOM     12  C   UNL     1      16.989  -6.321  29.043  0.00  0.00    -0.015 A 
ATOM     15  C   UNL     1      16.713  -6.873  27.791  0.00  0.00    +0.045 A 
ATOM     16  C   UNL     1      17.335  -7.150  30.110  0.00  0.00    +0.006 A 
ATOM     18  C   UNL     1      16.784  -8.254  27.607  0.00  0.00    +0.020 A 
ATOM     19  C   UNL     1      17.405  -8.530  29.926  0.00  0.00    +0.000 A 
ATOM     20  C   UNL     1      17.130  -9.083  28.675  0.00  0.00    +0.001 A 
ENDBRANCH  10  12
ENDBRANCH   4  10
ENDBRANCH   6   4
BRANCH   6   9
ATOM      9  C   UNL     1      15.026  -3.538  31.743  0.00  0.00    +0.085 C 
BRANCH   9  11
ATOM      3  O   UNL     1      14.864  -7.014  32.551  0.00  0.00    -0.354 OA
ATOM      5  N   UNL     1      15.362  -5.731  32.740  0.00  0.00    -0.083 NA
ATOM     11  C   UNL     1      14.737  -4.977  31.831  0.00  0.00    +0.086 A 
ATOM     13  C   UNL     1      13.840  -5.724  31.047  0.00  0.00    +0.076 A 
ATOM     14  C   UNL     1      13.958  -6.997  31.539  0.00  0.00    +0.167 A 
BRANCH  14  17
ATOM     17  C   UNL     1      13.348  -8.265  31.225  0.00  0.00    +0.020 A 
ATOM     21  C   UNL     1      12.176  -8.656  31.874  0.00  0.00    +0.011 A 
ATOM     22  C   UNL     1      13.929  -9.102  30.272  0.00  0.00    +0.011 A 
ATOM     23  C   UNL     1      11.586  -9.882  31.571  0.00  0.00    +0.001 A 
ATOM     24  C   UNL     1      13.339 -10.329  29.969  0.00  0.00    +0.001 A 
ATOM     25  C   UNL     1      12.167 -10.719  30.618  0.00  0.00    +0.000 A 
ENDBRANCH  14  17
ENDBRANCH   9  11
ENDBRANCH   6   9
TORSDOF 6
ENDMDL
MODEL 7
REMARK VINA RESULT:      -3.5     17.705     19.462
REMARK  Name = 56775566
REMARK  6 active torsions:
REMARK  status: ('A' for Active; 'I' for Inactive)
REMARK    1  A    between atoms: N_4  and  C_6
REMARK    2  A    between atoms: N_4  and  C_10
REMARK    3  A    between atoms: C_6  and  C_9
REMARK    4  A    between atoms: C_9  and  C_11
REMARK    5  A    between atoms: C_10  and  C_12
REMARK    6  A    between atoms: C_14  and  C_17
REMARK                            x       y       z     vdW  Elec       q    Type
REMARK                         _______ _______ _______ _____ _____    ______ ____
ROOT
ATOM      2  O   UNL     1       3.384  -0.610  22.512  0.00  0.00    -0.376 OA
ATOM      6  C   UNL     1       1.541   0.195  23.229  0.00  0.00    +0.072 C 
ATOM      7  C   UNL     1       2.754  -0.521  23.811  0.00  0.00    +0.184 C 
ATOM      8  C   UNL     1       2.309   0.148  21.912  0.00  0.00    +0.184 C 
ENDROOT
BRANCH   6   4
ATOM      4  N   UNL     1       0.431  -0.745  23.158  0.00  0.00    -0.302 NA
ATOM     26  H   UNL     1      -0.453  -0.361  22.830  0.00  0.00    +0.123 HD
BRANCH   4  10
ATOM     10  C   UNL     1       0.253  -1.397  24.453  0.00  0.00    +0.118 C 
BRANCH  10  12
ATOM      1 CL   UNL     1      -0.894  -0.162  27.041  0.00  0.00    -0.083 Cl
ATOM     12  C   UNL     1      -1.201  -1.632  24.766  0.00  0.00    -0.015 A 
ATOM     15  C   UNL     1      -1.795  -1.109  25.915  0.00  0.00    +0.045 A 
ATOM     16  C   UNL     1      -1.957  -2.394  23.875  0.00  0.00    +0.006 A 
ATOM     18  C   UNL     1      -3.146  -1.349  26.172  0.00  0.00    +0.020 A 
ATOM     19  C   UNL     1      -3.306  -2.633  24.132  0.00  0.00    +0.000 A 
ATOM     20  C   UNL     1      -3.901  -2.111  25.280  0.00  0.00    +0.001 A 
ENDBRANCH  10  12
ENDBRANCH   4  10
ENDBRANCH   6   4
BRANCH   6   9
ATOM      9  C   UNL     1       1.134   1.558  23.804  0.00  0.00    +0.085 C 
BRANCH   9  11
ATOM      3  O   UNL     1      -2.334   1.760  22.970  0.00  0.00    -0.354 OA
ATOM      5  N   UNL     1      -1.006   1.510  22.648  0.00  0.00    -0.083 NA
ATOM     11  C   UNL     1      -0.327   1.731  23.777  0.00  0.00    +0.086 A 
ATOM     13  C   UNL     1      -1.166   2.121  24.836  0.00  0.00    +0.076 A 
ATOM     14  C   UNL     1      -2.416   2.123  24.276  0.00  0.00    +0.167 A 
BRANCH  14  17
ATOM     17  C   UNL     1      -3.743   2.416  24.761  0.00  0.00    +0.020 A 
ATOM     21  C   UNL     1      -4.730   1.430  24.728  0.00  0.00    +0.011 A 
ATOM     22  C   UNL     1      -4.039   3.683  25.263  0.00  0.00    +0.011 A 
ATOM     23  C   UNL     1      -6.013   1.713  25.197  0.00  0.00    +0.001 A 
ATOM     24  C   UNL     1      -5.322   3.966  25.732  0.00  0.00    +0.001 A 
ATOM     25  C   UNL     1      -6.309   2.980  25.699  0.00  0.00    +0.000 A 
ENDBRANCH  14  17
ENDBRANCH   9  11
ENDBRANCH   6   9
TORSDOF 6
ENDMDL
MODEL 8
REMARK VINA RESULT:      -3.5     17.849     19.623
REMARK  Name = 56775566
REMARK  6 active torsions:
REMARK  status: ('A' for Active; 'I' for Inactive)
REMARK    1  A    between atoms: N_4  and  C_6
REMARK    2  A    between atoms: N_4  and  C_10
REMARK    3  A    between atoms: C_6  and  C_9
REMARK    4  A    between atoms: C_9  and  C_11
REMARK    5  A    between atoms: C_10  and  C_12
REMARK    6  A    between atoms: C_14  and  C_17
REMARK                            x       y       z     vdW  Elec       q    Type
REMARK                         _______ _______ _______ _____ _____    ______ ____
ROOT
ATOM      2  O   UNL     1       2.450  -0.434  21.946  0.00  0.00    -0.376 OA
ATOM      6  C   UNL     1       1.377   0.727  23.381  0.00  0.00    +0.072 C 
ATOM      7  C   UNL     1       2.822   0.309  23.130  0.00  0.00    +0.184 C 
ATOM      8  C   UNL     1       1.078   0.004  22.072  0.00  0.00    +0.184 C 
ENDROOT
BRANCH   6   4
ATOM      4  N   UNL     1       0.845  -0.062  24.485  0.00  0.00    -0.302 NA
ATOM     26  H   UNL     1       1.522  -0.347  25.190  0.00  0.00    +0.123 HD
BRANCH   4  10
ATOM     10  C   UNL     1       0.136  -1.227  23.961  0.00  0.00    +0.118 C 
BRANCH  10  12
ATOM      1 CL   UNL     1      -1.607  -3.618  23.076  0.00  0.00    -0.083 Cl
ATOM     12  C   UNL     1      -1.177  -1.446  24.666  0.00  0.00    -0.015 A 
ATOM     15  C   UNL     1      -2.022  -2.503  24.325  0.00  0.00    +0.045 A 
ATOM     16  C   UNL     1      -1.541  -0.561  25.680  0.00  0.00    +0.006 A 
ATOM     18  C   UNL     1      -3.231  -2.673  25.000  0.00  0.00    +0.020 A 
ATOM     19  C   UNL     1      -2.748  -0.732  26.355  0.00  0.00    +0.000 A 
ATOM     20  C   UNL     1      -3.594  -1.788  26.015  0.00  0.00    +0.001 A 
ENDBRANCH  10  12
ENDBRANCH   4  10
ENDBRANCH   6   4
BRANCH   6   9
ATOM      9  C   UNL     1       1.043   2.220  23.499  0.00  0.00    +0.085 C 
BRANCH   9  11
ATOM      3  O   UNL     1      -1.557   2.909  25.849  0.00  0.00    -0.354 OA
ATOM      5  N   UNL     1      -0.218   2.813  25.492  0.00  0.00    -0.083 NA
ATOM     11  C   UNL     1      -0.226   2.426  24.214  0.00  0.00    +0.086 A 
ATOM     13  C   UNL     1      -1.530   2.263  23.715  0.00  0.00    +0.076 A 
ATOM     14  C   UNL     1      -2.329   2.579  24.782  0.00  0.00    +0.167 A 
BRANCH  14  17
ATOM     17  C   UNL     1      -3.754   2.635  25.000  0.00  0.00    +0.020 A 
ATOM     21  C   UNL     1      -4.333   3.785  25.538  0.00  0.00    +0.011 A 
ATOM     22  C   UNL     1      -4.553   1.539  24.674  0.00  0.00    +0.011 A 
ATOM     23  C   UNL     1      -5.710   3.839  25.749  0.00  0.00    +0.001 A 
ATOM     24  C   UNL     1      -5.930   1.592  24.885  0.00  0.00    +0.001 A 
ATOM     25  C   UNL     1      -6.509   2.743  25.422  0.00  0.00    +0.000 A 
ENDBRANCH  14  17
ENDBRANCH   9  11
ENDBRANCH   6   9
TORSDOF 6
ENDMDL
MODEL 9
REMARK VINA RESULT:      -3.2      1.529      2.082
REMARK  Name = 56775566
REMARK  6 active torsions:
REMARK  status: ('A' for Active; 'I' for Inactive)
REMARK    1  A    between atoms: N_4  and  C_6
REMARK    2  A    between atoms: N_4  and  C_10
REMARK    3  A    between atoms: C_6  and  C_9
REMARK    4  A    between atoms: C_9  and  C_11
REMARK    5  A    between atoms: C_10  and  C_12
REMARK    6  A    between atoms: C_14  and  C_17
REMARK                            x       y       z     vdW  Elec       q    Type
REMARK                         _______ _______ _______ _____ _____    ______ ____
ROOT
ATOM      2  O   UNL     1      14.193  -8.035  25.975  0.00  0.00    -0.376 OA
ATOM      6  C   UNL     1      15.964  -8.031  27.168  0.00  0.00    +0.072 C 
ATOM      7  C   UNL     1      15.369  -8.873  26.044  0.00  0.00    +0.184 C 
ATOM      8  C   UNL     1      14.742  -7.140  26.970  0.00  0.00    +0.184 C 
ENDROOT
BRANCH   6   4
ATOM      4  N   UNL     1      15.819  -8.755  28.424  0.00  0.00    -0.302 NA
ATOM     26  H   UNL     1      14.938  -9.250  28.549  0.00  0.00    +0.123 HD
BRANCH   4  10
ATOM     10  C   UNL     1      16.058  -7.850  29.545  0.00  0.00    +0.118 C 
BRANCH  10  12
ATOM      1 CL   UNL     1      14.006  -9.994  30.400  0.00  0.00    -0.083 Cl
ATOM     12  C   UNL     1      14.771  -7.387  30.176  0.00  0.00    -0.015 A 
ATOM     15  C   UNL     1      13.792  -8.292  30.589  0.00  0.00    +0.045 A 
ATOM     16  C   UNL     1      14.569  -6.017  30.342  0.00  0.00    +0.006 A 
ATOM     18  C   UNL     1      12.612  -7.826  31.168  0.00  0.00    +0.020 A 
ATOM     19  C   UNL     1      13.389  -5.552  30.921  0.00  0.00    +0.000 A 
ATOM     20  C   UNL     1      12.411  -6.456  31.335  0.00  0.00    +0.001 A 
ENDBRANCH  10  12
ENDBRANCH   4  10
ENDBRANCH   6   4
BRANCH   6   9
ATOM      9  C   UNL     1      17.362  -7.426  26.985  0.00  0.00    +0.085 C 
BRANCH   9  11
ATOM      3  O   UNL     1      17.379  -5.474  23.993  0.00  0.00    -0.354 OA
ATOM      5  N   UNL     1      17.405  -6.689  24.667  0.00  0.00    -0.083 NA
ATOM     11  C   UNL     1      17.353  -6.367  25.963  0.00  0.00    +0.086 A 
ATOM     13  C   UNL     1      17.293  -4.977  26.165  0.00  0.00    +0.076 A 
ATOM     14  C   UNL     1      17.312  -4.462  24.896  0.00  0.00    +0.167 A 
BRANCH  14  17
ATOM     17  C   UNL     1      17.276  -3.131  24.342  0.00  0.00    +0.020 A 
ATOM     21  C   UNL     1      17.401  -2.945  22.964  0.00  0.00    +0.011 A 
ATOM     22  C   UNL     1      17.116  -2.030  25.182  0.00  0.00    +0.011 A 
ATOM     23  C   UNL     1      17.366  -1.658  22.428  0.00  0.00    +0.001 A 
ATOM     24  C   UNL     1      17.082  -0.742  24.646  0.00  0.00    +0.001 A 
ATOM     25  C   UNL     1      17.206  -0.557  23.269  0.00  0.00    +0.000 A 
ENDBRANCH  14  17
ENDBRANCH   9  11
ENDBRANCH   6   9
TORSDOF 6
ENDMDL
MODEL 10
REMARK VINA RESULT:      -3.2     17.337     18.647
REMARK  Name = 56775566
REMARK  6 active torsions:
REMARK  status: ('A' for Active; 'I' for Inactive)
REMARK    1  A    between atoms: N_4  and  C_6
REMARK    2  A    between atoms: N_4  and  C_10
REMARK    3  A    between atoms: C_6  and  C_9
REMARK    4  A    between atoms: C_9  and  C_11
REMARK    5  A    between atoms: C_10  and  C_12
REMARK    6  A    between atoms: C_14  and  C_17
REMARK                            x       y       z     vdW  Elec       q    Type
REMARK                         _______ _______ _______ _____ _____    ______ ____
ROOT
ATOM      2  O   UNL     1      -3.229  -2.847  24.295  0.00  0.00    -0.376 OA
ATOM      6  C   UNL     1      -2.585  -0.812  24.269  0.00  0.00    +0.072 C 
ATOM      7  C   UNL     1      -1.952  -2.187  24.451  0.00  0.00    +0.184 C 
ATOM      8  C   UNL     1      -3.877  -1.583  24.021  0.00  0.00    +0.184 C 
ENDROOT
BRANCH   6   4
ATOM      4  N   UNL     1      -2.670  -0.160  25.569  0.00  0.00    -0.302 NA
ATOM     26  H   UNL     1      -3.545  -0.292  26.073  0.00  0.00    +0.123 HD
BRANCH   4  10
ATOM     10  C   UNL     1      -2.376   1.265  25.427  0.00  0.00    +0.118 C 
BRANCH  10  12
ATOM      1 CL   UNL     1      -2.078   4.337  25.519  0.00  0.00    -0.083 Cl
ATOM     12  C   UNL     1      -3.630   2.098  25.430  0.00  0.00    -0.015 A 
ATOM     15  C   UNL     1      -3.582   3.492  25.471  0.00  0.00    +0.045 A 
ATOM     16  C   UNL     1      -4.861   1.444  25.392  0.00  0.00    +0.006 A 
ATOM     18  C   UNL     1      -4.765   4.231  25.473  0.00  0.00    +0.020 A 
ATOM     19  C   UNL     1      -6.043   2.182  25.394  0.00  0.00    +0.000 A 
ATOM     20  C   UNL     1      -5.996   3.575  25.435  0.00  0.00    +0.001 A 
ENDBRANCH  10  12
ENDBRANCH   4  10
ENDBRANCH   6   4
BRANCH   6   9
ATOM      9  C   UNL     1      -2.050   0.115  23.169  0.00  0.00    +0.085 C 
BRANCH   9  11
ATOM      3  O   UNL     1       1.174   1.480  23.880  0.00  0.00    -0.354 OA
ATOM      5  N   UNL     1      -0.212   1.562  23.838  0.00  0.00    -0.083 NA
ATOM     11  C   UNL     1      -0.615   0.384  23.353  0.00  0.00    +0.086 A 
ATOM     13  C   UNL     1       0.463  -0.474  23.073  0.00  0.00    +0.076 A 
ATOM     14  C   UNL     1       1.564   0.262  23.422  0.00  0.00    +0.167 A 
BRANCH  14  17
ATOM     17  C   UNL     1       2.987   0.026  23.409  0.00  0.00    +0.020 A 
ATOM     21  C   UNL     1       3.490  -1.224  23.770  0.00  0.00    +0.011 A 
ATOM     22  C   UNL     1       3.860   1.047  23.034  0.00  0.00    +0.011 A 
ATOM     23  C   UNL     1       4.866  -1.453  23.757  0.00  0.00    +0.001 A 
ATOM     24  C   UNL     1       5.236   0.819  23.022  0.00  0.00    +0.001 A 
ATOM     25  C   UNL     1       5.739  -0.432  23.382  0.00  0.00    +0.000 A 
ENDBRANCH  14  17
ENDBRANCH   9  11
ENDBRANCH   6   9
TORSDOF 6
ENDMDL
