MODEL 1
REMARK VINA RESULT:      -4.7      0.000      0.000
REMARK  Name = 26743149
REMARK  9 active torsions:
REMARK  status: ('A' for Active; 'I' for Inactive)
REMARK    1  A    between atoms: O_3  and  C_19
REMARK    2  A    between atoms: O_3  and  C_25
REMARK    3  A    between atoms: N_5  and  C_18
REMARK    4  A    between atoms: C_7  and  C_13
REMARK    5  A    between atoms: C_8  and  C_12
REMARK    6  A    between atoms: C_12  and  C_14
REMARK    7  A    between atoms: C_13  and  C_15
REMARK    8  A    between atoms: C_17  and  C_19
REMARK    9  A    between atoms: C_18  and  C_20
REMARK                            x       y       z     vdW  Elec       q    Type
REMARK                         _______ _______ _______ _____ _____    ______ ____
ROOT
ATOM      4  N   UNL     1      -0.316   5.263  24.656  0.00  0.00    -0.316 NA
ATOM      7  C   UNL     1      -2.803   4.270  25.892  0.00  0.00    +0.004 C 
ATOM      8  C   UNL     1      -1.503   3.434  25.844  0.00  0.00    +0.012 C 
ATOM      9  C   UNL     1      -2.445   5.763  25.803  0.00  0.00    +0.019 C 
ATOM     10  C   UNL     1      -0.617   3.831  24.651  0.00  0.00    +0.085 C 
ATOM     11  C   UNL     1      -1.531   6.074  24.619  0.00  0.00    +0.081 C 
ATOM     32  H   UNL     1       0.264   5.488  23.847  0.00  0.00    +0.122 HD
ENDROOT
BRANCH   8  12
ATOM     12  C   UNL     1      -1.758   1.926  25.845  0.00  0.00    +0.064 C 
BRANCH  12  14
ATOM      2  O   UNL     1      -0.957   0.683  22.564  0.00  0.00    -0.356 OA
ATOM      6  N   UNL     1      -1.758   1.396  23.446  0.00  0.00    -0.083 NA
ATOM     14  C   UNL     1      -1.161   1.269  24.634  0.00  0.00    +0.084 A 
ATOM     16  C   UNL     1       0.009   0.492  24.564  0.00  0.00    +0.074 A 
ATOM     17  C   UNL     1       0.091   0.148  23.240  0.00  0.00    +0.175 A 
BRANCH  17  19
ATOM     19  C   UNL     1       1.044  -0.644  22.454  0.00  0.00    +0.306 C 
BRANCH  19   3
ATOM      3  O   UNL     1       2.164   0.161  22.074  0.00  0.00    -0.484 OA
BRANCH   3  25
ATOM     25  C   UNL     1       3.327  -0.049  22.762  0.00  0.00    +0.121 A 
ATOM     27  C   UNL     1       4.268   0.975  22.869  0.00  0.00    +0.045 A 
ATOM     28  C   UNL     1       3.572  -1.286  23.356  0.00  0.00    +0.045 A 
ATOM     29  C   UNL     1       5.454   0.762  23.570  0.00  0.00    +0.004 A 
ATOM     30  C   UNL     1       4.759  -1.500  24.058  0.00  0.00    +0.004 A 
ATOM     31  C   UNL     1       5.701  -0.476  24.165  0.00  0.00    +0.000 A 
ENDBRANCH   3  25
ENDBRANCH  19   3
ENDBRANCH  17  19
ENDBRANCH  12  14
ENDBRANCH   8  12
BRANCH   7  13
ATOM     13  C   UNL     1      -3.829   3.890  24.817  0.00  0.00    +0.099 C 
BRANCH  13  15
ATOM      1  O   UNL     1      -5.472   2.826  26.239  0.00  0.00    -0.276 OA
ATOM      5  N   UNL     1      -4.607   1.660  24.423  0.00  0.00    -0.311 N 
ATOM     15  C   UNL     1      -4.733   2.759  25.261  0.00  0.00    +0.214 C 
ATOM     33  H   UNL     1      -3.950   1.699  23.648  0.00  0.00    +0.149 HD
BRANCH   5  18
ATOM     18  C   UNL     1      -5.351   0.436  24.612  0.00  0.00    +0.139 C 
BRANCH  18  20
ATOM     20  C   UNL     1      -4.450  -0.759  24.724  0.00  0.00    -0.030 A 
ATOM     21  C   UNL     1      -4.458  -1.735  23.728  0.00  0.00    +0.005 A 
ATOM     22  C   UNL     1      -3.603  -0.892  25.824  0.00  0.00    +0.005 A 
ATOM     23  C   UNL     1      -3.620  -2.845  23.832  0.00  0.00    +0.000 A 
ATOM     24  C   UNL     1      -2.765  -2.003  25.928  0.00  0.00    +0.000 A 
ATOM     26  C   UNL     1      -2.773  -2.979  24.933  0.00  0.00    +0.000 A 
ENDBRANCH  18  20
ENDBRANCH   5  18
ENDBRANCH  13  15
ENDBRANCH   7  13
TORSDOF 9
ENDMDL
MODEL 2
REMARK VINA RESULT:      -2.9      1.588      4.737
REMARK  Name = 26743149
REMARK  9 active torsions:
REMARK  status: ('A' for Active; 'I' for Inactive)
REMARK    1  A    between atoms: O_3  and  C_19
REMARK    2  A    between atoms: O_3  and  C_25
REMARK    3  A    between atoms: N_5  and  C_18
REMARK    4  A    between atoms: C_7  and  C_13
REMARK    5  A    between atoms: C_8  and  C_12
REMARK    6  A    between atoms: C_12  and  C_14
REMARK    7  A    between atoms: C_13  and  C_15
REMARK    8  A    between atoms: C_17  and  C_19
REMARK    9  A    between atoms: C_18  and  C_20
REMARK                            x       y       z     vdW  Elec       q    Type
REMARK                         _______ _______ _______ _____ _____    ______ ____
ROOT
ATOM      4  N   UNL     1      -3.471  -3.655  24.588  0.00  0.00    -0.316 NA
ATOM      7  C   UNL     1      -3.841  -0.756  24.188  0.00  0.00    +0.004 C 
ATOM      8  C   UNL     1      -2.620  -1.347  24.930  0.00  0.00    +0.012 C 
ATOM      9  C   UNL     1      -4.411  -1.817  23.232  0.00  0.00    +0.019 C 
ATOM     10  C   UNL     1      -2.950  -2.706  25.572  0.00  0.00    +0.085 C 
ATOM     11  C   UNL     1      -4.675  -3.150  23.931  0.00  0.00    +0.081 C 
ATOM     32  H   UNL     1      -3.685  -4.538  25.052  0.00  0.00    +0.122 HD
ENDROOT
BRANCH   8  12
ATOM     12  C   UNL     1      -2.028  -0.392  25.968  0.00  0.00    +0.064 C 
BRANCH  12  14
ATOM      2  O   UNL     1       0.567   1.994  25.245  0.00  0.00    -0.356 OA
ATOM      6  N   UNL     1      -0.454   1.492  26.042  0.00  0.00    -0.083 NA
ATOM     14  C   UNL     1      -0.905   0.417  25.389  0.00  0.00    +0.084 A 
ATOM     16  C   UNL     1      -0.213   0.194  24.186  0.00  0.00    +0.074 A 
ATOM     17  C   UNL     1       0.702   1.213  24.143  0.00  0.00    +0.175 A 
BRANCH  17  19
ATOM     19  C   UNL     1       1.743   1.604  23.186  0.00  0.00    +0.306 C 
BRANCH  19   3
ATOM      3  O   UNL     1       2.309   0.444  22.568  0.00  0.00    -0.484 OA
BRANCH   3  25
ATOM     25  C   UNL     1       3.512   0.018  23.057  0.00  0.00    +0.121 A 
ATOM     27  C   UNL     1       4.606   0.883  23.069  0.00  0.00    +0.045 A 
ATOM     28  C   UNL     1       3.645  -1.282  23.545  0.00  0.00    +0.045 A 
ATOM     29  C   UNL     1       5.833   0.448  23.569  0.00  0.00    +0.004 A 
ATOM     30  C   UNL     1       4.873  -1.717  24.044  0.00  0.00    +0.004 A 
ATOM     31  C   UNL     1       5.968  -0.852  24.056  0.00  0.00    +0.000 A 
ENDBRANCH   3  25
ENDBRANCH  19   3
ENDBRANCH  17  19
ENDBRANCH  12  14
ENDBRANCH   8  12
BRANCH   7  13
ATOM     13  C   UNL     1      -4.935  -0.215  25.118  0.00  0.00    +0.099 C 
BRANCH  13  15
ATOM      1  O   UNL     1      -5.729   1.960  25.820  0.00  0.00    -0.276 OA
ATOM      5  N   UNL     1      -4.352   1.795  23.955  0.00  0.00    -0.311 N 
ATOM     15  C   UNL     1      -5.068   1.291  25.031  0.00  0.00    +0.214 C 
ATOM     33  H   UNL     1      -3.851   1.153  23.347  0.00  0.00    +0.149 HD
BRANCH   5  18
ATOM     18  C   UNL     1      -4.303   3.202  23.631  0.00  0.00    +0.139 C 
BRANCH  18  20
ATOM     20  C   UNL     1      -3.034   3.846  24.112  0.00  0.00    -0.030 A 
ATOM     21  C   UNL     1      -1.869   3.741  23.354  0.00  0.00    +0.005 A 
ATOM     22  C   UNL     1      -3.024   4.550  25.315  0.00  0.00    +0.005 A 
ATOM     23  C   UNL     1      -0.690   4.340  23.801  0.00  0.00    +0.000 A 
ATOM     24  C   UNL     1      -1.845   5.149  25.762  0.00  0.00    +0.000 A 
ATOM     26  C   UNL     1      -0.678   5.044  25.005  0.00  0.00    +0.000 A 
ENDBRANCH  18  20
ENDBRANCH   5  18
ENDBRANCH  13  15
ENDBRANCH   7  13
TORSDOF 9
ENDMDL
MODEL 3
REMARK VINA RESULT:      -2.8      1.636      7.033
REMARK  Name = 26743149
REMARK  9 active torsions:
REMARK  status: ('A' for Active; 'I' for Inactive)
REMARK    1  A    between atoms: O_3  and  C_19
REMARK    2  A    between atoms: O_3  and  C_25
REMARK    3  A    between atoms: N_5  and  C_18
REMARK    4  A    between atoms: C_7  and  C_13
REMARK    5  A    between atoms: C_8  and  C_12
REMARK    6  A    between atoms: C_12  and  C_14
REMARK    7  A    between atoms: C_13  and  C_15
REMARK    8  A    between atoms: C_17  and  C_19
REMARK    9  A    between atoms: C_18  and  C_20
REMARK                            x       y       z     vdW  Elec       q    Type
REMARK                         _______ _______ _______ _____ _____    ______ ____
ROOT
ATOM      4  N   UNL     1      -2.595  -3.309  25.616  0.00  0.00    -0.316 NA
ATOM      7  C   UNL     1      -2.066  -0.520  24.815  0.00  0.00    +0.004 C 
ATOM      8  C   UNL     1      -3.495  -1.072  25.026  0.00  0.00    +0.012 C 
ATOM      9  C   UNL     1      -1.075  -1.363  25.637  0.00  0.00    +0.019 C 
ATOM     10  C   UNL     1      -3.559  -2.589  24.784  0.00  0.00    +0.085 C 
ATOM     11  C   UNL     1      -1.226  -2.861  25.374  0.00  0.00    +0.081 C 
ATOM     32  H   UNL     1      -2.662  -4.308  25.421  0.00  0.00    +0.122 HD
ENDROOT
BRANCH   8  12
ATOM     12  C   UNL     1      -4.548  -0.348  24.184  0.00  0.00    +0.064 C 
BRANCH  12  14
ATOM      2  O   UNL     1      -5.798   2.569  25.882  0.00  0.00    -0.356 OA
ATOM      6  N   UNL     1      -5.817   1.209  25.597  0.00  0.00    -0.083 NA
ATOM     14  C   UNL     1      -4.827   1.026  24.720  0.00  0.00    +0.084 A 
ATOM     16  C   UNL     1      -4.154   2.223  24.417  0.00  0.00    +0.074 A 
ATOM     17  C   UNL     1      -4.804   3.162  25.173  0.00  0.00    +0.175 A 
BRANCH  17  19
ATOM     19  C   UNL     1      -4.641   4.609  25.356  0.00  0.00    +0.306 C 
BRANCH  19   3
ATOM      3  O   UNL     1      -3.586   4.877  26.284  0.00  0.00    -0.484 OA
BRANCH   3  25
ATOM     25  C   UNL     1      -2.341   4.433  25.937  0.00  0.00    +0.121 A 
ATOM     27  C   UNL     1      -1.844   3.251  26.486  0.00  0.00    +0.045 A 
ATOM     28  C   UNL     1      -1.567   5.163  25.034  0.00  0.00    +0.045 A 
ATOM     29  C   UNL     1      -0.573   2.798  26.132  0.00  0.00    +0.004 A 
ATOM     30  C   UNL     1      -0.297   4.710  24.681  0.00  0.00    +0.004 A 
ATOM     31  C   UNL     1       0.201   3.528  25.229  0.00  0.00    +0.000 A 
ENDBRANCH   3  25
ENDBRANCH  19   3
ENDBRANCH  17  19
ENDBRANCH  12  14
ENDBRANCH   8  12
BRANCH   7  13
ATOM     13  C   UNL     1      -1.634  -0.451  23.345  0.00  0.00    +0.099 C 
BRANCH  13  15
ATOM      1  O   UNL     1      -0.960   1.846  22.991  0.00  0.00    -0.276 OA
ATOM      5  N   UNL     1       0.651   0.170  22.991  0.00  0.00    -0.311 N 
ATOM     15  C   UNL     1      -0.641   0.664  23.092  0.00  0.00    +0.214 C 
ATOM     33  H   UNL     1       0.808  -0.831  23.070  0.00  0.00    +0.149 HD
BRANCH   5  18
ATOM     18  C   UNL     1       1.800   1.012  22.748  0.00  0.00    +0.139 C 
BRANCH  18  20
ATOM     20  C   UNL     1       3.086   0.334  23.124  0.00  0.00    -0.030 A 
ATOM     21  C   UNL     1       4.282   1.048  23.107  0.00  0.00    +0.005 A 
ATOM     22  C   UNL     1       3.081  -1.011  23.492  0.00  0.00    +0.005 A 
ATOM     23  C   UNL     1       5.477   0.417  23.457  0.00  0.00    +0.000 A 
ATOM     24  C   UNL     1       4.275  -1.642  23.842  0.00  0.00    +0.000 A 
ATOM     26  C   UNL     1       5.473  -0.928  23.825  0.00  0.00    +0.000 A 
ENDBRANCH  18  20
ENDBRANCH   5  18
ENDBRANCH  13  15
ENDBRANCH   7  13
TORSDOF 9
ENDMDL
MODEL 4
REMARK VINA RESULT:      -2.8      1.454      6.611
REMARK  Name = 26743149
REMARK  9 active torsions:
REMARK  status: ('A' for Active; 'I' for Inactive)
REMARK    1  A    between atoms: O_3  and  C_19
REMARK    2  A    between atoms: O_3  and  C_25
REMARK    3  A    between atoms: N_5  and  C_18
REMARK    4  A    between atoms: C_7  and  C_13
REMARK    5  A    between atoms: C_8  and  C_12
REMARK    6  A    between atoms: C_12  and  C_14
REMARK    7  A    between atoms: C_13  and  C_15
REMARK    8  A    between atoms: C_17  and  C_19
REMARK    9  A    between atoms: C_18  and  C_20
REMARK                            x       y       z     vdW  Elec       q    Type
REMARK                         _______ _______ _______ _____ _____    ______ ____
ROOT
ATOM      4  N   UNL     1      -0.291   2.943  27.010  0.00  0.00    -0.316 NA
ATOM      7  C   UNL     1      -0.348   3.054  24.063  0.00  0.00    +0.004 C 
ATOM      8  C   UNL     1      -1.125   4.054  24.952  0.00  0.00    +0.012 C 
ATOM      9  C   UNL     1       0.839   2.489  24.861  0.00  0.00    +0.019 C 
ATOM     10  C   UNL     1      -1.480   3.441  26.317  0.00  0.00    +0.085 C 
ATOM     11  C   UNL     1       0.416   1.936  26.222  0.00  0.00    +0.081 C 
ATOM     32  H   UNL     1      -0.567   2.538  27.905  0.00  0.00    +0.122 HD
ENDROOT
BRANCH   8  12
ATOM     12  C   UNL     1      -2.376   4.613  24.273  0.00  0.00    +0.064 C 
BRANCH  12  14
ATOM      2  O   UNL     1      -5.529   3.437  25.551  0.00  0.00    -0.356 OA
ATOM      6  N   UNL     1      -4.560   4.418  25.381  0.00  0.00    -0.083 NA
ATOM     14  C   UNL     1      -3.601   3.835  24.656  0.00  0.00    +0.084 A 
ATOM     16  C   UNL     1      -3.907   2.499  24.342  0.00  0.00    +0.074 A 
ATOM     17  C   UNL     1      -5.129   2.299  24.928  0.00  0.00    +0.175 A 
BRANCH  17  19
ATOM     19  C   UNL     1      -6.042   1.153  25.009  0.00  0.00    +0.306 C 
BRANCH  19   3
ATOM      3  O   UNL     1      -5.639   0.132  24.091  0.00  0.00    -0.484 OA
BRANCH   3  25
ATOM     25  C   UNL     1      -4.699  -0.754  24.539  0.00  0.00    +0.121 A 
ATOM     27  C   UNL     1      -4.373  -1.872  23.770  0.00  0.00    +0.045 A 
ATOM     28  C   UNL     1      -4.067  -0.542  25.764  0.00  0.00    +0.045 A 
ATOM     29  C   UNL     1      -3.415  -2.777  24.226  0.00  0.00    +0.004 A 
ATOM     30  C   UNL     1      -3.109  -1.447  26.220  0.00  0.00    +0.004 A 
ATOM     31  C   UNL     1      -2.783  -2.565  25.452  0.00  0.00    +0.000 A 
ENDBRANCH   3  25
ENDBRANCH  19   3
ENDBRANCH  17  19
ENDBRANCH  12  14
ENDBRANCH   8  12
BRANCH   7  13
ATOM     13  C   UNL     1      -1.212   1.922  23.494  0.00  0.00    +0.099 C 
BRANCH  13  15
ATOM      1  O   UNL     1      -0.772  -0.359  24.170  0.00  0.00    -0.276 OA
ATOM      5  N   UNL     1       0.563   0.627  22.543  0.00  0.00    -0.311 N 
ATOM     15  C   UNL     1      -0.475   0.600  23.463  0.00  0.00    +0.214 C 
ATOM     33  H   UNL     1       0.740   1.479  22.018  0.00  0.00    +0.149 HD
BRANCH   5  18
ATOM     18  C   UNL     1       1.436  -0.501  22.306  0.00  0.00    +0.139 C 
BRANCH  18  20
ATOM     20  C   UNL     1       2.826  -0.253  22.816  0.00  0.00    -0.030 A 
ATOM     21  C   UNL     1       3.511  -1.261  23.492  0.00  0.00    +0.005 A 
ATOM     22  C   UNL     1       3.432   0.986  22.612  0.00  0.00    +0.005 A 
ATOM     23  C   UNL     1       4.803  -1.031  23.966  0.00  0.00    +0.000 A 
ATOM     24  C   UNL     1       4.724   1.216  23.086  0.00  0.00    +0.000 A 
ATOM     26  C   UNL     1       5.410   0.208  23.762  0.00  0.00    +0.000 A 
ENDBRANCH  18  20
ENDBRANCH   5  18
ENDBRANCH  13  15
ENDBRANCH   7  13
TORSDOF 9
ENDMDL
MODEL 5
REMARK VINA RESULT:      -2.1      1.635      2.301
REMARK  Name = 26743149
REMARK  9 active torsions:
REMARK  status: ('A' for Active; 'I' for Inactive)
REMARK    1  A    between atoms: O_3  and  C_19
REMARK    2  A    between atoms: O_3  and  C_25
REMARK    3  A    between atoms: N_5  and  C_18
REMARK    4  A    between atoms: C_7  and  C_13
REMARK    5  A    between atoms: C_8  and  C_12
REMARK    6  A    between atoms: C_12  and  C_14
REMARK    7  A    between atoms: C_13  and  C_15
REMARK    8  A    between atoms: C_17  and  C_19
REMARK    9  A    between atoms: C_18  and  C_20
REMARK                            x       y       z     vdW  Elec       q    Type
REMARK                         _______ _______ _______ _____ _____    ______ ____
ROOT
ATOM      4  N   UNL     1      -4.239   5.497  26.558  0.00  0.00    -0.316 NA
ATOM      7  C   UNL     1      -3.358   3.104  25.076  0.00  0.00    +0.004 C 
ATOM      8  C   UNL     1      -2.392   3.964  25.924  0.00  0.00    +0.012 C 
ATOM      9  C   UNL     1      -4.791   3.286  25.607  0.00  0.00    +0.019 C 
ATOM     10  C   UNL     1      -2.876   5.420  26.032  0.00  0.00    +0.085 C 
ATOM     11  C   UNL     1      -5.185   4.757  25.726  0.00  0.00    +0.081 C 
ATOM     32  H   UNL     1      -4.527   6.475  26.607  0.00  0.00    +0.122 HD
ENDROOT
BRANCH   8  12
ATOM     12  C   UNL     1      -0.948   3.914  25.423  0.00  0.00    +0.064 C 
BRANCH  12  14
ATOM      2  O   UNL     1      -0.275   0.385  25.203  0.00  0.00    -0.356 OA
ATOM      6  N   UNL     1      -0.732   1.510  25.878  0.00  0.00    -0.083 NA
ATOM     14  C   UNL     1      -0.555   2.521  25.024  0.00  0.00    +0.084 A 
ATOM     16  C   UNL     1       0.004   2.099  23.805  0.00  0.00    +0.074 A 
ATOM     17  C   UNL     1       0.161   0.748  23.970  0.00  0.00    +0.175 A 
BRANCH  17  19
ATOM     19  C   UNL     1       0.681  -0.326  23.116  0.00  0.00    +0.306 C 
BRANCH  19   3
ATOM      3  O   UNL     1       1.781   0.150  22.335  0.00  0.00    -0.484 OA
BRANCH   3  25
ATOM     25  C   UNL     1       3.028  -0.032  22.863  0.00  0.00    +0.121 A 
ATOM     27  C   UNL     1       3.947   1.018  22.857  0.00  0.00    +0.045 A 
ATOM     28  C   UNL     1       3.382  -1.266  23.408  0.00  0.00    +0.045 A 
ATOM     29  C   UNL     1       5.220   0.833  23.396  0.00  0.00    +0.004 A 
ATOM     30  C   UNL     1       4.655  -1.451  23.947  0.00  0.00    +0.004 A 
ATOM     31  C   UNL     1       5.575  -0.402  23.941  0.00  0.00    +0.000 A 
ENDBRANCH   3  25
ENDBRANCH  19   3
ENDBRANCH  17  19
ENDBRANCH  12  14
ENDBRANCH   8  12
BRANCH   7  13
ATOM     13  C   UNL     1      -3.294   3.391  23.571  0.00  0.00    +0.099 C 
BRANCH  13  15
ATOM      1  O   UNL     1      -2.735   2.100  21.603  0.00  0.00    -0.276 OA
ATOM      5  N   UNL     1      -3.604   1.019  23.468  0.00  0.00    -0.311 N 
ATOM     15  C   UNL     1      -3.168   2.124  22.751  0.00  0.00    +0.214 C 
ATOM     33  H   UNL     1      -3.964   1.148  24.409  0.00  0.00    +0.149 HD
BRANCH   5  18
ATOM     18  C   UNL     1      -3.599  -0.322  22.929  0.00  0.00    +0.139 C 
BRANCH  18  20
ATOM     20  C   UNL     1      -3.461  -1.360  24.005  0.00  0.00    -0.030 A 
ATOM     21  C   UNL     1      -3.271  -0.971  25.330  0.00  0.00    +0.005 A 
ATOM     22  C   UNL     1      -3.525  -2.714  23.678  0.00  0.00    +0.005 A 
ATOM     23  C   UNL     1      -3.144  -1.935  26.330  0.00  0.00    +0.000 A 
ATOM     24  C   UNL     1      -3.397  -3.679  24.678  0.00  0.00    +0.000 A 
ATOM     26  C   UNL     1      -3.207  -3.290  26.004  0.00  0.00    +0.000 A 
ENDBRANCH  18  20
ENDBRANCH   5  18
ENDBRANCH  13  15
ENDBRANCH   7  13
TORSDOF 9
ENDMDL
MODEL 6
REMARK VINA RESULT:      -2.0      1.733      7.607
REMARK  Name = 26743149
REMARK  9 active torsions:
REMARK  status: ('A' for Active; 'I' for Inactive)
REMARK    1  A    between atoms: O_3  and  C_19
REMARK    2  A    between atoms: O_3  and  C_25
REMARK    3  A    between atoms: N_5  and  C_18
REMARK    4  A    between atoms: C_7  and  C_13
REMARK    5  A    between atoms: C_8  and  C_12
REMARK    6  A    between atoms: C_12  and  C_14
REMARK    7  A    between atoms: C_13  and  C_15
REMARK    8  A    between atoms: C_17  and  C_19
REMARK    9  A    between atoms: C_18  and  C_20
REMARK                            x       y       z     vdW  Elec       q    Type
REMARK                         _______ _______ _______ _____ _____    ______ ____
ROOT
ATOM      4  N   UNL     1      -3.358  -1.342  25.608  0.00  0.00    -0.316 NA
ATOM      7  C   UNL     1      -0.607  -1.001  24.598  0.00  0.00    +0.004 C 
ATOM      8  C   UNL     1      -1.041  -0.546  26.011  0.00  0.00    +0.012 C 
ATOM      9  C   UNL     1      -1.547  -2.122  24.121  0.00  0.00    +0.019 C 
ATOM     10  C   UNL     1      -2.542  -0.216  26.065  0.00  0.00    +0.085 C 
ATOM     11  C   UNL     1      -3.021  -1.737  24.242  0.00  0.00    +0.081 C 
ATOM     32  H   UNL     1      -4.344  -1.082  25.650  0.00  0.00    +0.122 HD
ENDROOT
BRANCH   8  12
ATOM     12  C   UNL     1      -0.214   0.626  26.544  0.00  0.00    +0.064 C 
BRANCH  12  14
ATOM      2  O   UNL     1      -0.514   3.670  24.647  0.00  0.00    -0.356 OA
ATOM      6  N   UNL     1       0.166   2.519  25.026  0.00  0.00    -0.083 NA
ATOM     14  C   UNL     1      -0.633   1.922  25.914  0.00  0.00    +0.084 A 
ATOM     16  C   UNL     1      -1.819   2.644  26.134  0.00  0.00    +0.074 A 
ATOM     17  C   UNL     1      -1.694   3.734  25.314  0.00  0.00    +0.175 A 
BRANCH  17  19
ATOM     19  C   UNL     1      -2.545   4.896  25.032  0.00  0.00    +0.306 C 
BRANCH  19   3
ATOM      3  O   UNL     1      -3.621   4.525  24.166  0.00  0.00    -0.484 OA
BRANCH   3  25
ATOM     25  C   UNL     1      -4.415   3.495  24.587  0.00  0.00    +0.121 A 
ATOM     27  C   UNL     1      -5.261   3.671  25.682  0.00  0.00    +0.045 A 
ATOM     28  C   UNL     1      -4.380   2.270  23.922  0.00  0.00    +0.045 A 
ATOM     29  C   UNL     1      -6.072   2.621  26.113  0.00  0.00    +0.004 A 
ATOM     30  C   UNL     1      -5.191   1.220  24.353  0.00  0.00    +0.004 A 
ATOM     31  C   UNL     1      -6.037   1.395  25.448  0.00  0.00    +0.000 A 
ENDBRANCH   3  25
ENDBRANCH  19   3
ENDBRANCH  17  19
ENDBRANCH  12  14
ENDBRANCH   8  12
BRANCH   7  13
ATOM     13  C   UNL     1      -0.544   0.133  23.568  0.00  0.00    +0.099 C 
BRANCH  13  15
ATOM      1  O   UNL     1       0.835  -0.714  21.769  0.00  0.00    -0.276 OA
ATOM      5  N   UNL     1       1.656   0.976  23.138  0.00  0.00    -0.311 N 
ATOM     15  C   UNL     1       0.703   0.061  22.712  0.00  0.00    +0.214 C 
ATOM     33  H   UNL     1       1.457   1.561  23.945  0.00  0.00    +0.149 HD
BRANCH   5  18
ATOM     18  C   UNL     1       2.946   1.123  22.504  0.00  0.00    +0.139 C 
BRANCH  18  20
ATOM     20  C   UNL     1       3.992   0.260  23.148  0.00  0.00    -0.030 A 
ATOM     21  C   UNL     1       3.720  -1.080  23.419  0.00  0.00    +0.005 A 
ATOM     22  C   UNL     1       5.236   0.799  23.474  0.00  0.00    +0.005 A 
ATOM     23  C   UNL     1       4.692  -1.883  24.017  0.00  0.00    +0.000 A 
ATOM     24  C   UNL     1       6.208  -0.003  24.073  0.00  0.00    +0.000 A 
ATOM     26  C   UNL     1       5.936  -1.344  24.344  0.00  0.00    +0.000 A 
ENDBRANCH  18  20
ENDBRANCH   5  18
ENDBRANCH  13  15
ENDBRANCH   7  13
TORSDOF 9
ENDMDL
MODEL 7
REMARK VINA RESULT:      -1.1      1.867      5.978
REMARK  Name = 26743149
REMARK  9 active torsions:
REMARK  status: ('A' for Active; 'I' for Inactive)
REMARK    1  A    between atoms: O_3  and  C_19
REMARK    2  A    between atoms: O_3  and  C_25
REMARK    3  A    between atoms: N_5  and  C_18
REMARK    4  A    between atoms: C_7  and  C_13
REMARK    5  A    between atoms: C_8  and  C_12
REMARK    6  A    between atoms: C_12  and  C_14
REMARK    7  A    between atoms: C_13  and  C_15
REMARK    8  A    between atoms: C_17  and  C_19
REMARK    9  A    between atoms: C_18  and  C_20
REMARK                            x       y       z     vdW  Elec       q    Type
REMARK                         _______ _______ _______ _____ _____    ______ ____
ROOT
ATOM      4  N   UNL     1      -3.294   3.872  26.119  0.00  0.00    -0.316 NA
ATOM      7  C   UNL     1      -1.059   3.261  24.293  0.00  0.00    +0.004 C 
ATOM      8  C   UNL     1      -2.542   3.147  23.866  0.00  0.00    +0.012 C 
ATOM      9  C   UNL     1      -0.946   4.260  25.457  0.00  0.00    +0.019 C 
ATOM     10  C   UNL     1      -3.458   2.866  25.069  0.00  0.00    +0.085 C 
ATOM     11  C   UNL     1      -1.914   3.940  26.595  0.00  0.00    +0.081 C 
ATOM     32  H   UNL     1      -3.909   3.647  26.900  0.00  0.00    +0.122 HD
ENDROOT
BRANCH   8  12
ATOM     12  C   UNL     1      -2.771   2.113  22.763  0.00  0.00    +0.064 C 
BRANCH  12  14
ATOM      2  O   UNL     1      -5.001  -0.177  24.417  0.00  0.00    -0.356 OA
ATOM      6  N   UNL     1      -4.515   1.100  24.165  0.00  0.00    -0.083 NA
ATOM     14  C   UNL     1      -3.534   0.926  23.276  0.00  0.00    +0.084 A 
ATOM     16  C   UNL     1      -3.356  -0.426  22.934  0.00  0.00    +0.074 A 
ATOM     17  C   UNL     1      -4.303  -1.077  23.679  0.00  0.00    +0.175 A 
BRANCH  17  19
ATOM     19  C   UNL     1      -4.689  -2.485  23.826  0.00  0.00    +0.306 C 
BRANCH  19   3
ATOM      3  O   UNL     1      -3.669  -3.210  24.520  0.00  0.00    -0.484 OA
BRANCH   3  25
ATOM     25  C   UNL     1      -2.670  -2.467  25.084  0.00  0.00    +0.121 A 
ATOM     27  C   UNL     1      -2.958  -1.594  26.134  0.00  0.00    +0.045 A 
ATOM     28  C   UNL     1      -1.363  -2.581  24.612  0.00  0.00    +0.045 A 
ATOM     29  C   UNL     1      -1.940  -0.836  26.710  0.00  0.00    +0.004 A 
ATOM     30  C   UNL     1      -0.344  -1.823  25.188  0.00  0.00    +0.004 A 
ATOM     31  C   UNL     1      -0.632  -0.949  26.237  0.00  0.00    +0.000 A 
ENDBRANCH   3  25
ENDBRANCH  19   3
ENDBRANCH  17  19
ENDBRANCH  12  14
ENDBRANCH   8  12
BRANCH   7  13
ATOM     13  C   UNL     1      -0.410   1.921  24.659  0.00  0.00    +0.099 C 
BRANCH  13  15
ATOM      1  O   UNL     1       1.762   2.327  23.672  0.00  0.00    -0.276 OA
ATOM      5  N   UNL     1       0.600   0.392  23.119  0.00  0.00    -0.311 N 
ATOM     15  C   UNL     1       0.778   1.600  23.777  0.00  0.00    +0.214 C 
ATOM     33  H   UNL     1      -0.262  -0.129  23.259  0.00  0.00    +0.149 HD
BRANCH   5  18
ATOM     18  C   UNL     1       1.577  -0.161  22.208  0.00  0.00    +0.139 C 
BRANCH  18  20
ATOM     20  C   UNL     1       2.944  -0.230  22.824  0.00  0.00    -0.030 A 
ATOM     21  C   UNL     1       3.817   0.851  22.708  0.00  0.00    +0.005 A 
ATOM     22  C   UNL     1       3.341  -1.375  23.514  0.00  0.00    +0.005 A 
ATOM     23  C   UNL     1       5.088   0.787  23.280  0.00  0.00    +0.000 A 
ATOM     24  C   UNL     1       4.611  -1.439  24.087  0.00  0.00    +0.000 A 
ATOM     26  C   UNL     1       5.485  -0.358  23.970  0.00  0.00    +0.000 A 
ENDBRANCH  18  20
ENDBRANCH   5  18
ENDBRANCH  13  15
ENDBRANCH   7  13
TORSDOF 9
ENDMDL
