MODEL 1
REMARK VINA RESULT:      -4.2      0.000      0.000
REMARK  Name = 45783706
REMARK  7 active torsions:
REMARK  status: ('A' for Active; 'I' for Inactive)
REMARK    1  A    between atoms: O_2  and  C_25
REMARK    2  A    between atoms: O_2  and  C_26
REMARK    3  A    between atoms: N_3  and  C_11
REMARK    4  A    between atoms: C_7  and  C_12
REMARK    5  A    between atoms: C_11  and  C_13
REMARK    6  A    between atoms: C_16  and  C_20
REMARK    7  A    between atoms: C_19  and  C_21
REMARK                            x       y       z     vdW  Elec       q    Type
REMARK                         _______ _______ _______ _____ _____    ______ ____
ROOT
ATOM      3  N   UNL     1      -4.941   1.625  25.294  0.00  0.00    -0.287 NA
ATOM      7  C   UNL     1      -4.214   2.393  24.264  0.00  0.00    +0.146 C 
ATOM      8  C   UNL     1      -4.677   3.848  24.462  0.00  0.00    +0.030 C 
ATOM      9  C   UNL     1      -5.707   3.789  25.582  0.00  0.00    +0.017 C 
ATOM     10  C   UNL     1      -6.184   2.352  25.551  0.00  0.00    +0.085 C 
ENDROOT
BRANCH   7  12
ATOM      1  O   UNL     1      -2.118   2.836  25.439  0.00  0.00    -0.336 OA
ATOM      4  N   UNL     1      -1.883   1.603  23.585  0.00  0.00    -0.190 NA
ATOM      5  N   UNL     1      -0.749   2.558  25.328  0.00  0.00    -0.056 NA
ATOM     12  C   UNL     1      -2.712   2.237  24.374  0.00  0.00    +0.245 A 
ATOM     16  C   UNL     1      -0.691   1.827  24.210  0.00  0.00    +0.204 A 
BRANCH  16  20
ATOM      6  N   UNL     1       2.915   1.588  23.336  0.00  0.00    -0.221 NA
ATOM     20  C   UNL     1       0.542   1.306  23.693  0.00  0.00    +0.041 A 
ATOM     22  C   UNL     1       0.586   0.068  23.063  0.00  0.00    +0.018 A 
ATOM     23  C   UNL     1       1.723   2.021  23.803  0.00  0.00    +0.126 A 
ATOM     24  C   UNL     1       1.794  -0.412  22.569  0.00  0.00    +0.068 A 
ATOM     25  C   UNL     1       2.920   0.379  22.730  0.00  0.00    +0.214 A 
BRANCH  25   2
ATOM      2  O   UNL     1       4.123  -0.072  22.253  0.00  0.00    -0.480 OA
ATOM     26  C   UNL     1       5.247   0.071  23.114  0.00  0.00    +0.279 C 
ENDBRANCH  25   2
ENDBRANCH  16  20
ENDBRANCH   7  12
BRANCH   3  11
ATOM     11  C   UNL     1      -5.185   0.240  24.912  0.00  0.00    +0.120 C 
BRANCH  11  13
ATOM     13  C   UNL     1      -3.929  -0.588  24.973  0.00  0.00    -0.033 A 
ATOM     14  C   UNL     1      -3.023  -0.405  26.017  0.00  0.00    +0.005 A 
ATOM     15  C   UNL     1      -3.670  -1.538  23.984  0.00  0.00    +0.005 A 
ATOM     17  C   UNL     1      -1.858  -1.170  26.073  0.00  0.00    +0.003 A 
ATOM     18  C   UNL     1      -2.505  -2.303  24.040  0.00  0.00    +0.003 A 
ATOM     19  C   UNL     1      -1.599  -2.119  25.084  0.00  0.00    -0.050 A 
ATOM     21  C   UNL     1      -0.353  -2.936  25.144  0.00  0.00    +0.044 C 
ENDBRANCH  11  13
ENDBRANCH   3  11
TORSDOF 5
ENDMDL
MODEL 2
REMARK VINA RESULT:      -2.2      1.393      1.806
REMARK  Name = 45783706
REMARK  7 active torsions:
REMARK  status: ('A' for Active; 'I' for Inactive)
REMARK    1  A    between atoms: O_2  and  C_25
REMARK    2  A    between atoms: O_2  and  C_26
REMARK    3  A    between atoms: N_3  and  C_11
REMARK    4  A    between atoms: C_7  and  C_12
REMARK    5  A    between atoms: C_11  and  C_13
REMARK    6  A    between atoms: C_16  and  C_20
REMARK    7  A    between atoms: C_19  and  C_21
REMARK                            x       y       z     vdW  Elec       q    Type
REMARK                         _______ _______ _______ _____ _____    ______ ____
ROOT
ATOM      3  N   UNL     1      -3.624   2.764  25.612  0.00  0.00    -0.287 NA
ATOM      7  C   UNL     1      -2.976   3.293  24.396  0.00  0.00    +0.146 C 
ATOM      8  C   UNL     1      -2.394   4.653  24.823  0.00  0.00    +0.030 C 
ATOM      9  C   UNL     1      -2.817   4.828  26.275  0.00  0.00    +0.017 C 
ATOM     10  C   UNL     1      -4.027   3.926  26.405  0.00  0.00    +0.085 C 
ENDROOT
BRANCH   7  12
ATOM      1  O   UNL     1      -2.372   1.343  23.054  0.00  0.00    -0.336 OA
ATOM      4  N   UNL     1      -0.627   2.370  24.010  0.00  0.00    -0.190 NA
ATOM      5  N   UNL     1      -1.236   0.620  22.667  0.00  0.00    -0.056 NA
ATOM     12  C   UNL     1      -1.925   2.355  23.842  0.00  0.00    +0.245 A 
ATOM     16  C   UNL     1      -0.248   1.288  23.271  0.00  0.00    +0.204 A 
BRANCH  16  20
ATOM      6  N   UNL     1       3.464   1.517  23.238  0.00  0.00    -0.221 NA
ATOM     20  C   UNL     1       1.128   0.900  23.154  0.00  0.00    +0.041 A 
ATOM     22  C   UNL     1       1.478  -0.412  22.853  0.00  0.00    +0.018 A 
ATOM     23  C   UNL     1       2.150   1.818  23.336  0.00  0.00    +0.126 A 
ATOM     24  C   UNL     1       2.820  -0.760  22.744  0.00  0.00    +0.068 A 
ATOM     25  C   UNL     1       3.766   0.232  22.944  0.00  0.00    +0.214 A 
BRANCH  25   2
ATOM      2  O   UNL     1       5.094  -0.086  22.843  0.00  0.00    -0.480 OA
ATOM     26  C   UNL     1       5.808  -0.251  24.063  0.00  0.00    +0.279 C 
ENDBRANCH  25   2
ENDBRANCH  16  20
ENDBRANCH   7  12
BRANCH   3  11
ATOM     11  C   UNL     1      -4.747   1.880  25.326  0.00  0.00    +0.120 C 
BRANCH  11  13
ATOM     13  C   UNL     1      -4.301   0.458  25.113  0.00  0.00    -0.033 A 
ATOM     14  C   UNL     1      -3.302  -0.087  25.919  0.00  0.00    +0.005 A 
ATOM     15  C   UNL     1      -4.886  -0.314  24.109  0.00  0.00    +0.005 A 
ATOM     17  C   UNL     1      -2.886  -1.404  25.721  0.00  0.00    +0.003 A 
ATOM     18  C   UNL     1      -4.470  -1.631  23.911  0.00  0.00    +0.003 A 
ATOM     19  C   UNL     1      -3.470  -2.176  24.716  0.00  0.00    -0.050 A 
ATOM     21  C   UNL     1      -3.025  -3.583  24.504  0.00  0.00    +0.044 C 
ENDBRANCH  11  13
ENDBRANCH   3  11
TORSDOF 5
ENDMDL
MODEL 3
REMARK VINA RESULT:      -1.0      2.046      4.257
REMARK  Name = 45783706
REMARK  7 active torsions:
REMARK  status: ('A' for Active; 'I' for Inactive)
REMARK    1  A    between atoms: O_2  and  C_25
REMARK    2  A    between atoms: O_2  and  C_26
REMARK    3  A    between atoms: N_3  and  C_11
REMARK    4  A    between atoms: C_7  and  C_12
REMARK    5  A    between atoms: C_11  and  C_13
REMARK    6  A    between atoms: C_16  and  C_20
REMARK    7  A    between atoms: C_19  and  C_21
REMARK                            x       y       z     vdW  Elec       q    Type
REMARK                         _______ _______ _______ _____ _____    ______ ____
ROOT
ATOM      3  N   UNL     1      -3.237  -0.631  24.652  0.00  0.00    -0.287 NA
ATOM      7  C   UNL     1      -2.064  -1.527  24.663  0.00  0.00    +0.146 C 
ATOM      8  C   UNL     1      -2.517  -2.775  23.882  0.00  0.00    +0.030 C 
ATOM      9  C   UNL     1      -3.974  -2.514  23.527  0.00  0.00    +0.017 C 
ATOM     10  C   UNL     1      -4.415  -1.494  24.556  0.00  0.00    +0.085 C 
ENDROOT
BRANCH   7  12
ATOM      1  O   UNL     1      -1.046   0.102  23.153  0.00  0.00    -0.336 OA
ATOM      4  N   UNL     1       0.432  -1.128  24.300  0.00  0.00    -0.190 NA
ATOM      5  N   UNL     1       0.221   0.541  22.750  0.00  0.00    -0.056 NA
ATOM     12  C   UNL     1      -0.832  -0.880  24.067  0.00  0.00    +0.245 A 
ATOM     16  C   UNL     1       1.040  -0.232  23.470  0.00  0.00    +0.204 A 
BRANCH  16  20
ATOM      6  N   UNL     1       4.635  -1.143  23.742  0.00  0.00    -0.221 NA
ATOM     20  C   UNL     1       2.469  -0.133  23.384  0.00  0.00    +0.041 A 
ATOM     22  C   UNL     1       3.077   1.013  22.885  0.00  0.00    +0.018 A 
ATOM     23  C   UNL     1       3.285  -1.174  23.795  0.00  0.00    +0.126 A 
ATOM     24  C   UNL     1       4.464   1.083  22.815  0.00  0.00    +0.068 A 
ATOM     25  C   UNL     1       5.191  -0.013  23.252  0.00  0.00    +0.214 A 
BRANCH  25   2
ATOM      2  O   UNL     1       6.559   0.031  23.192  0.00  0.00    -0.480 OA
ATOM     26  C   UNL     1       7.211  -1.090  22.606  0.00  0.00    +0.279 C 
ENDBRANCH  25   2
ENDBRANCH  16  20
ENDBRANCH   7  12
BRANCH   3  11
ATOM     11  C   UNL     1      -3.296   0.251  25.810  0.00  0.00    +0.120 C 
BRANCH  11  13
ATOM     13  C   UNL     1      -2.693   1.599  25.520  0.00  0.00    -0.033 A 
ATOM     14  C   UNL     1      -1.354   1.843  25.824  0.00  0.00    +0.005 A 
ATOM     15  C   UNL     1      -3.473   2.605  24.947  0.00  0.00    +0.005 A 
ATOM     17  C   UNL     1      -0.794   3.093  25.557  0.00  0.00    +0.003 A 
ATOM     18  C   UNL     1      -2.913   3.854  24.680  0.00  0.00    +0.003 A 
ATOM     19  C   UNL     1      -1.574   4.099  24.986  0.00  0.00    -0.050 A 
ATOM     21  C   UNL     1      -0.976   5.435  24.701  0.00  0.00    +0.044 C 
ENDBRANCH  11  13
ENDBRANCH   3  11
TORSDOF 5
ENDMDL
MODEL 4
REMARK VINA RESULT:      -0.9      1.625      3.887
REMARK  Name = 45783706
REMARK  7 active torsions:
REMARK  status: ('A' for Active; 'I' for Inactive)
REMARK    1  A    between atoms: O_2  and  C_25
REMARK    2  A    between atoms: O_2  and  C_26
REMARK    3  A    between atoms: N_3  and  C_11
REMARK    4  A    between atoms: C_7  and  C_12
REMARK    5  A    between atoms: C_11  and  C_13
REMARK    6  A    between atoms: C_16  and  C_20
REMARK    7  A    between atoms: C_19  and  C_21
REMARK                            x       y       z     vdW  Elec       q    Type
REMARK                         _______ _______ _______ _____ _____    ______ ____
ROOT
ATOM      3  N   UNL     1      -4.369  -0.254  24.213  0.00  0.00    -0.287 NA
ATOM      7  C   UNL     1      -3.415  -0.834  25.179  0.00  0.00    +0.146 C 
ATOM      8  C   UNL     1      -3.438  -2.347  24.892  0.00  0.00    +0.030 C 
ATOM      9  C   UNL     1      -4.476  -2.527  23.793  0.00  0.00    +0.017 C 
ATOM     10  C   UNL     1      -5.352  -1.299  23.925  0.00  0.00    +0.085 C 
ENDROOT
BRANCH   7  12
ATOM      1  O   UNL     1      -1.719   0.753  25.936  0.00  0.00    -0.336 OA
ATOM      4  N   UNL     1      -1.068  -0.532  24.221  0.00  0.00    -0.190 NA
ATOM      5  N   UNL     1      -0.407   1.142  25.634  0.00  0.00    -0.056 NA
ATOM     12  C   UNL     1      -2.029  -0.236  25.058  0.00  0.00    +0.245 A 
ATOM     16  C   UNL     1      -0.093   0.339  24.613  0.00  0.00    +0.204 A 
BRANCH  16  20
ATOM      6  N   UNL     1       3.068  -0.811  23.027  0.00  0.00    -0.221 NA
ATOM     20  C   UNL     1       1.186   0.381  23.963  0.00  0.00    +0.041 A 
ATOM     22  C   UNL     1       1.785   1.594  23.644  0.00  0.00    +0.018 A 
ATOM     23  C   UNL     1       1.862  -0.783  23.636  0.00  0.00    +0.126 A 
ATOM     24  C   UNL     1       3.026   1.606  23.017  0.00  0.00    +0.068 A 
ATOM     25  C   UNL     1       3.620   0.387  22.732  0.00  0.00    +0.214 A 
BRANCH  25   2
ATOM      2  O   UNL     1       4.843   0.372  22.113  0.00  0.00    -0.480 OA
ATOM     26  C   UNL     1       5.962   0.016  22.916  0.00  0.00    +0.279 C 
ENDBRANCH  25   2
ENDBRANCH  16  20
ENDBRANCH   7  12
BRANCH   3  11
ATOM     11  C   UNL     1      -4.995   0.973  24.689  0.00  0.00    +0.120 C 
BRANCH  11  13
ATOM     13  C   UNL     1      -4.017   2.116  24.747  0.00  0.00    -0.033 A 
ATOM     14  C   UNL     1      -3.192   2.382  23.655  0.00  0.00    +0.005 A 
ATOM     15  C   UNL     1      -3.935   2.907  25.893  0.00  0.00    +0.005 A 
ATOM     17  C   UNL     1      -2.284   3.440  23.708  0.00  0.00    +0.003 A 
ATOM     18  C   UNL     1      -3.027   3.964  25.947  0.00  0.00    +0.003 A 
ATOM     19  C   UNL     1      -2.201   4.230  24.855  0.00  0.00    -0.050 A 
ATOM     21  C   UNL     1      -1.229   5.360  24.912  0.00  0.00    +0.044 C 
ENDBRANCH  11  13
ENDBRANCH   3  11
TORSDOF 5
ENDMDL
