MODEL 1
REMARK VINA RESULT:      -7.0      0.000      0.000
REMARK  Name = 75536912
REMARK  5 active torsions:
REMARK  status: ('A' for Active; 'I' for Inactive)
REMARK    1  A    between atoms: O_2  and  C_6
REMARK    2  A    between atoms: O_2  and  C_13
REMARK    3  A    between atoms: N_4  and  C_9
REMARK    4  A    between atoms: C_9  and  C_11
REMARK    5  A    between atoms: C_14  and  C_18
REMARK                            x       y       z     vdW  Elec       q    Type
REMARK                         _______ _______ _______ _____ _____    ______ ____
ROOT
ATOM      1  O   UNL     1      -3.551   4.364  24.242  0.00  0.00    -0.375 OA
ATOM      4  N   UNL     1      -1.207   2.842  24.930  0.00  0.00    -0.289 NA
ATOM      5  C   UNL     1      -2.219   2.062  25.643  0.00  0.00    +0.131 C 
ATOM      6  C   UNL     1      -3.515   1.969  24.829  0.00  0.00    +0.213 C 
ATOM      7  C   UNL     1      -1.286   4.290  25.152  0.00  0.00    +0.113 C 
ATOM      8  C   UNL     1      -4.317   3.263  24.717  0.00  0.00    +0.205 C 
ATOM     10  C   UNL     1      -2.687   4.892  25.241  0.00  0.00    +0.175 C 
ENDROOT
BRANCH   6   2
ATOM      2  O   UNL     1      -4.343   0.975  25.433  0.00  0.00    -0.485 OA
BRANCH   2  13
ATOM     13  C   UNL     1      -4.068  -0.327  25.114  0.00  0.00    +0.121 A 
ATOM     16  C   UNL     1      -3.389  -1.140  26.022  0.00  0.00    +0.045 A 
ATOM     17  C   UNL     1      -4.467  -0.841  23.880  0.00  0.00    +0.045 A 
ATOM     19  C   UNL     1      -3.109  -2.466  25.696  0.00  0.00    +0.004 A 
ATOM     20  C   UNL     1      -4.187  -2.167  23.554  0.00  0.00    +0.004 A 
ATOM     21  C   UNL     1      -3.508  -2.981  24.462  0.00  0.00    +0.000 A 
ENDBRANCH   2  13
ENDBRANCH   6   2
BRANCH   4   9
ATOM      9  C   UNL     1       0.145   2.364  25.224  0.00  0.00    +0.159 C 
BRANCH   9  11
ATOM      3  O   UNL     1       1.883   1.474  23.771  0.00  0.00    -0.464 OA
ATOM     11  C   UNL     1       0.608   1.340  24.221  0.00  0.00    +0.119 A 
ATOM     12  C   UNL     1       0.000   0.255  23.633  0.00  0.00    +0.046 A 
ATOM     14  C   UNL     1       2.092   0.463  22.888  0.00  0.00    +0.102 A 
ATOM     15  C   UNL     1       0.964  -0.315  22.769  0.00  0.00    +0.044 A 
ATOM     18  C   UNL     1       3.424   0.407  22.266  0.00  0.00    +0.086 C 
ENDBRANCH   9  11
ENDBRANCH   4   9
TORSDOF 4
ENDMDL
MODEL 2
REMARK VINA RESULT:      -6.6      2.108      4.774
REMARK  Name = 75536912
REMARK  5 active torsions:
REMARK  status: ('A' for Active; 'I' for Inactive)
REMARK    1  A    between atoms: O_2  and  C_6
REMARK    2  A    between atoms: O_2  and  C_13
REMARK    3  A    between atoms: N_4  and  C_9
REMARK    4  A    between atoms: C_9  and  C_11
REMARK    5  A    between atoms: C_14  and  C_18
REMARK                            x       y       z     vdW  Elec       q    Type
REMARK                         _______ _______ _______ _____ _____    ______ ____
ROOT
ATOM      1  O   UNL     1      -2.935  -2.963  24.750  0.00  0.00    -0.375 OA
ATOM      4  N   UNL     1      -1.636  -0.610  25.780  0.00  0.00    -0.289 NA
ATOM      5  C   UNL     1      -2.590   0.022  24.868  0.00  0.00    +0.131 C 
ATOM      6  C   UNL     1      -3.936  -0.712  24.888  0.00  0.00    +0.213 C 
ATOM      7  C   UNL     1      -0.879  -1.721  25.195  0.00  0.00    +0.113 C 
ATOM      8  C   UNL     1      -3.941  -2.096  24.241  0.00  0.00    +0.205 C 
ATOM     10  C   UNL     1      -1.643  -2.643  24.247  0.00  0.00    +0.175 C 
ENDROOT
BRANCH   6   2
ATOM      2  O   UNL     1      -4.893   0.106  24.213  0.00  0.00    -0.485 OA
BRANCH   2  13
ATOM     13  C   UNL     1      -4.923   1.427  24.566  0.00  0.00    +0.121 A 
ATOM     16  C   UNL     1      -5.671   1.838  25.670  0.00  0.00    +0.045 A 
ATOM     17  C   UNL     1      -4.205   2.363  23.821  0.00  0.00    +0.045 A 
ATOM     19  C   UNL     1      -5.700   3.185  26.029  0.00  0.00    +0.004 A 
ATOM     20  C   UNL     1      -4.235   3.710  24.180  0.00  0.00    +0.004 A 
ATOM     21  C   UNL     1      -4.983   4.122  25.285  0.00  0.00    +0.000 A 
ENDBRANCH   2  13
ENDBRANCH   6   2
BRANCH   4   9
ATOM      9  C   UNL     1      -0.716   0.372  26.358  0.00  0.00    +0.159 C 
BRANCH   9  11
ATOM      3  O   UNL     1      -1.097   2.733  25.901  0.00  0.00    -0.464 OA
ATOM     11  C   UNL     1      -0.542   1.571  25.464  0.00  0.00    +0.119 A 
ATOM     12  C   UNL     1       0.080   1.761  24.252  0.00  0.00    +0.046 A 
ATOM     14  C   UNL     1      -0.827   3.672  24.958  0.00  0.00    +0.102 A 
ATOM     15  C   UNL     1      -0.104   3.124  23.924  0.00  0.00    +0.044 A 
ATOM     18  C   UNL     1      -1.337   5.026  25.223  0.00  0.00    +0.086 C 
ENDBRANCH   9  11
ENDBRANCH   4   9
TORSDOF 4
ENDMDL
MODEL 3
REMARK VINA RESULT:      -6.3      2.088      6.288
REMARK  Name = 75536912
REMARK  5 active torsions:
REMARK  status: ('A' for Active; 'I' for Inactive)
REMARK    1  A    between atoms: O_2  and  C_6
REMARK    2  A    between atoms: O_2  and  C_13
REMARK    3  A    between atoms: N_4  and  C_9
REMARK    4  A    between atoms: C_9  and  C_11
REMARK    5  A    between atoms: C_14  and  C_18
REMARK                            x       y       z     vdW  Elec       q    Type
REMARK                         _______ _______ _______ _____ _____    ______ ____
ROOT
ATOM      1  O   UNL     1      -0.901  -1.985  23.695  0.00  0.00    -0.375 OA
ATOM      4  N   UNL     1      -3.358  -0.749  24.542  0.00  0.00    -0.289 NA
ATOM      5  C   UNL     1      -2.420  -0.039  25.411  0.00  0.00    +0.131 C 
ATOM      6  C   UNL     1      -1.113   0.271  24.671  0.00  0.00    +0.213 C 
ATOM      7  C   UNL     1      -3.188  -2.206  24.523  0.00  0.00    +0.113 C 
ATOM      8  C   UNL     1      -0.223  -0.934  24.374  0.00  0.00    +0.205 C 
ATOM     10  C   UNL     1      -1.753  -2.726  24.561  0.00  0.00    +0.175 C 
ENDROOT
BRANCH   6   2
ATOM      2  O   UNL     1      -0.368   1.198  25.462  0.00  0.00    -0.485 OA
BRANCH   2  13
ATOM     13  C   UNL     1      -0.703   2.518  25.332  0.00  0.00    +0.121 A 
ATOM     16  C   UNL     1      -0.082   3.303  24.361  0.00  0.00    +0.045 A 
ATOM     17  C   UNL     1      -1.668   3.078  26.171  0.00  0.00    +0.045 A 
ATOM     19  C   UNL     1      -0.425   4.649  24.229  0.00  0.00    +0.004 A 
ATOM     20  C   UNL     1      -2.010   4.423  26.039  0.00  0.00    +0.004 A 
ATOM     21  C   UNL     1      -1.388   5.209  25.067  0.00  0.00    +0.000 A 
ENDBRANCH   2  13
ENDBRANCH   6   2
BRANCH   4   9
ATOM      9  C   UNL     1      -4.746  -0.412  24.862  0.00  0.00    +0.159 C 
BRANCH   9  11
ATOM      3  O   UNL     1      -4.344   1.825  23.990  0.00  0.00    -0.464 OA
ATOM     11  C   UNL     1      -4.957   1.077  24.945  0.00  0.00    +0.119 A 
ATOM     12  C   UNL     1      -5.661   1.882  25.810  0.00  0.00    +0.046 A 
ATOM     14  C   UNL     1      -4.661   3.120  24.247  0.00  0.00    +0.102 A 
ATOM     15  C   UNL     1      -5.470   3.208  25.357  0.00  0.00    +0.044 A 
ATOM     18  C   UNL     1      -4.101   4.122  23.328  0.00  0.00    +0.086 C 
ENDBRANCH   9  11
ENDBRANCH   4   9
TORSDOF 4
ENDMDL
MODEL 4
REMARK VINA RESULT:      -5.8      1.718      2.336
REMARK  Name = 75536912
REMARK  5 active torsions:
REMARK  status: ('A' for Active; 'I' for Inactive)
REMARK    1  A    between atoms: O_2  and  C_6
REMARK    2  A    between atoms: O_2  and  C_13
REMARK    3  A    between atoms: N_4  and  C_9
REMARK    4  A    between atoms: C_9  and  C_11
REMARK    5  A    between atoms: C_14  and  C_18
REMARK                            x       y       z     vdW  Elec       q    Type
REMARK                         _______ _______ _______ _____ _____    ______ ____
ROOT
ATOM      1  O   UNL     1      -5.987   3.124  25.419  0.00  0.00    -0.375 OA
ATOM      4  N   UNL     1      -3.767   2.566  23.674  0.00  0.00    -0.289 NA
ATOM      5  C   UNL     1      -3.583   1.492  24.650  0.00  0.00    +0.131 C 
ATOM      6  C   UNL     1      -4.933   0.918  25.096  0.00  0.00    +0.213 C 
ATOM      7  C   UNL     1      -3.978   3.893  24.262  0.00  0.00    +0.113 C 
ATOM      8  C   UNL     1      -5.778   1.834  25.979  0.00  0.00    +0.205 C 
ATOM     10  C   UNL     1      -4.835   3.952  25.525  0.00  0.00    +0.175 C 
ENDROOT
BRANCH   6   2
ATOM      2  O   UNL     1      -4.682  -0.293  25.811  0.00  0.00    -0.485 OA
BRANCH   2  13
ATOM     13  C   UNL     1      -3.580  -1.010  25.430  0.00  0.00    +0.121 A 
ATOM     16  C   UNL     1      -2.324  -0.685  25.942  0.00  0.00    +0.045 A 
ATOM     17  C   UNL     1      -3.715  -2.067  24.529  0.00  0.00    +0.045 A 
ATOM     19  C   UNL     1      -1.203  -1.417  25.553  0.00  0.00    +0.004 A 
ATOM     20  C   UNL     1      -2.594  -2.799  24.141  0.00  0.00    +0.004 A 
ATOM     21  C   UNL     1      -1.336  -2.473  24.653  0.00  0.00    +0.000 A 
ENDBRANCH   2  13
ENDBRANCH   6   2
BRANCH   4   9
ATOM      9  C   UNL     1      -2.663   2.614  22.714  0.00  0.00    +0.159 C 
BRANCH   9  11
ATOM      3  O   UNL     1      -0.754   1.107  22.812  0.00  0.00    -0.464 OA
ATOM     11  C   UNL     1      -1.357   2.205  23.341  0.00  0.00    +0.119 A 
ATOM     12  C   UNL     1      -0.607   2.716  24.374  0.00  0.00    +0.046 A 
ATOM     14  C   UNL     1       0.392   0.917  23.515  0.00  0.00    +0.102 A 
ATOM     15  C   UNL     1       0.529   1.881  24.487  0.00  0.00    +0.044 A 
ATOM     18  C   UNL     1       1.220  -0.230  23.112  0.00  0.00    +0.086 C 
ENDBRANCH   9  11
ENDBRANCH   4   9
TORSDOF 4
ENDMDL
MODEL 5
REMARK VINA RESULT:      -5.2      2.109      4.979
REMARK  Name = 75536912
REMARK  5 active torsions:
REMARK  status: ('A' for Active; 'I' for Inactive)
REMARK    1  A    between atoms: O_2  and  C_6
REMARK    2  A    between atoms: O_2  and  C_13
REMARK    3  A    between atoms: N_4  and  C_9
REMARK    4  A    between atoms: C_9  and  C_11
REMARK    5  A    between atoms: C_14  and  C_18
REMARK                            x       y       z     vdW  Elec       q    Type
REMARK                         _______ _______ _______ _____ _____    ______ ____
ROOT
ATOM      1  O   UNL     1       0.233   3.354  25.668  0.00  0.00    -0.375 OA
ATOM      4  N   UNL     1      -2.584   3.735  25.213  0.00  0.00    -0.289 NA
ATOM      5  C   UNL     1      -2.303   2.749  24.169  0.00  0.00    +0.131 C 
ATOM      6  C   UNL     1      -1.297   1.701  24.662  0.00  0.00    +0.213 C 
ATOM      7  C   UNL     1      -1.645   4.861  25.255  0.00  0.00    +0.113 C 
ATOM      8  C   UNL     1       0.135   2.198  24.845  0.00  0.00    +0.205 C 
ATOM     10  C   UNL     1      -0.177   4.536  24.989  0.00  0.00    +0.175 C 
ENDROOT
BRANCH   6   2
ATOM      2  O   UNL     1      -1.285   0.626  23.722  0.00  0.00    -0.485 OA
BRANCH   2  13
ATOM     13  C   UNL     1      -2.044  -0.468  24.036  0.00  0.00    +0.121 A 
ATOM     16  C   UNL     1      -1.438  -1.613  24.553  0.00  0.00    +0.045 A 
ATOM     17  C   UNL     1      -3.426  -0.437  23.839  0.00  0.00    +0.045 A 
ATOM     19  C   UNL     1      -2.213  -2.727  24.874  0.00  0.00    +0.004 A 
ATOM     20  C   UNL     1      -4.200  -1.552  24.160  0.00  0.00    +0.004 A 
ATOM     21  C   UNL     1      -3.594  -2.698  24.677  0.00  0.00    +0.000 A 
ENDBRANCH   2  13
ENDBRANCH   6   2
BRANCH   4   9
ATOM      9  C   UNL     1      -3.958   4.232  25.124  0.00  0.00    +0.159 C 
BRANCH   9  11
ATOM      3  O   UNL     1      -5.436   2.842  26.468  0.00  0.00    -0.464 OA
ATOM     11  C   UNL     1      -4.965   3.118  25.223  0.00  0.00    +0.119 A 
ATOM     12  C   UNL     1      -5.538   2.280  24.295  0.00  0.00    +0.046 A 
ATOM     14  C   UNL     1      -6.319   1.819  26.332  0.00  0.00    +0.102 A 
ATOM     15  C   UNL     1      -6.417   1.438  25.014  0.00  0.00    +0.044 A 
ATOM     18  C   UNL     1      -6.964   1.347  27.567  0.00  0.00    +0.086 C 
ENDBRANCH   9  11
ENDBRANCH   4   9
TORSDOF 4
ENDMDL
MODEL 6
REMARK VINA RESULT:      -4.4      1.760      4.496
REMARK  Name = 75536912
REMARK  5 active torsions:
REMARK  status: ('A' for Active; 'I' for Inactive)
REMARK    1  A    between atoms: O_2  and  C_6
REMARK    2  A    between atoms: O_2  and  C_13
REMARK    3  A    between atoms: N_4  and  C_9
REMARK    4  A    between atoms: C_9  and  C_11
REMARK    5  A    between atoms: C_14  and  C_18
REMARK                            x       y       z     vdW  Elec       q    Type
REMARK                         _______ _______ _______ _____ _____    ______ ____
ROOT
ATOM      1  O   UNL     1      -4.245   3.893  26.441  0.00  0.00    -0.375 OA
ATOM      4  N   UNL     1      -4.608   1.370  25.104  0.00  0.00    -0.289 NA
ATOM      5  C   UNL     1      -3.646   1.990  24.192  0.00  0.00    +0.131 C 
ATOM      6  C   UNL     1      -2.598   2.798  24.967  0.00  0.00    +0.213 C 
ATOM      7  C   UNL     1      -5.742   2.226  25.467  0.00  0.00    +0.113 C 
ATOM      8  C   UNL     1      -3.106   4.086  25.612  0.00  0.00    +0.205 C 
ATOM     10  C   UNL     1      -5.437   3.707  25.686  0.00  0.00    +0.175 C 
ENDROOT
BRANCH   6   2
ATOM      2  O   UNL     1      -1.544   3.132  24.063  0.00  0.00    -0.485 OA
BRANCH   2  13
ATOM     13  C   UNL     1      -0.678   2.123  23.736  0.00  0.00    +0.121 A 
ATOM     16  C   UNL     1       0.641   2.163  24.186  0.00  0.00    +0.045 A 
ATOM     17  C   UNL     1      -1.118   1.055  22.953  0.00  0.00    +0.045 A 
ATOM     19  C   UNL     1       1.522   1.134  23.853  0.00  0.00    +0.004 A 
ATOM     20  C   UNL     1      -0.237   0.027  22.621  0.00  0.00    +0.004 A 
ATOM     21  C   UNL     1       1.084   0.066  23.070  0.00  0.00    +0.000 A 
ENDBRANCH   2  13
ENDBRANCH   6   2
BRANCH   4   9
ATOM      9  C   UNL     1      -5.093   0.091  24.583  0.00  0.00    +0.159 C 
BRANCH   9  11
ATOM      3  O   UNL     1      -2.863  -0.641  25.228  0.00  0.00    -0.464 OA
ATOM     11  C   UNL     1      -4.014  -0.959  24.579  0.00  0.00    +0.119 A 
ATOM     12  C   UNL     1      -3.931  -2.222  24.040  0.00  0.00    +0.046 A 
ATOM     14  C   UNL     1      -2.037  -1.712  25.103  0.00  0.00    +0.102 A 
ATOM     15  C   UNL     1      -2.648  -2.711  24.381  0.00  0.00    +0.044 A 
ATOM     18  C   UNL     1      -0.716  -1.592  25.737  0.00  0.00    +0.086 C 
ENDBRANCH   9  11
ENDBRANCH   4   9
TORSDOF 4
ENDMDL
MODEL 7
REMARK VINA RESULT:      -4.4      1.487      4.552
REMARK  Name = 75536912
REMARK  5 active torsions:
REMARK  status: ('A' for Active; 'I' for Inactive)
REMARK    1  A    between atoms: O_2  and  C_6
REMARK    2  A    between atoms: O_2  and  C_13
REMARK    3  A    between atoms: N_4  and  C_9
REMARK    4  A    between atoms: C_9  and  C_11
REMARK    5  A    between atoms: C_14  and  C_18
REMARK                            x       y       z     vdW  Elec       q    Type
REMARK                         _______ _______ _______ _____ _____    ______ ____
ROOT
ATOM      1  O   UNL     1      -2.569   5.215  24.973  0.00  0.00    -0.375 OA
ATOM      4  N   UNL     1      -3.999   2.757  25.417  0.00  0.00    -0.289 NA
ATOM      5  C   UNL     1      -2.636   2.232  25.341  0.00  0.00    +0.131 C 
ATOM      6  C   UNL     1      -1.643   3.183  26.020  0.00  0.00    +0.213 C 
ATOM      7  C   UNL     1      -4.358   3.679  24.334  0.00  0.00    +0.113 C 
ATOM      8  C   UNL     1      -1.382   4.497  25.286  0.00  0.00    +0.205 C 
ATOM     10  C   UNL     1      -3.270   4.646  23.873  0.00  0.00    +0.175 C 
ENDROOT
BRANCH   6   2
ATOM      2  O   UNL     1      -0.401   2.492  26.165  0.00  0.00    -0.485 OA
BRANCH   2  13
ATOM     13  C   UNL     1      -0.158   1.481  25.276  0.00  0.00    +0.121 A 
ATOM     16  C   UNL     1      -0.640   0.197  25.531  0.00  0.00    +0.045 A 
ATOM     17  C   UNL     1       0.572   1.736  24.114  0.00  0.00    +0.045 A 
ATOM     19  C   UNL     1      -0.392  -0.833  24.623  0.00  0.00    +0.004 A 
ATOM     20  C   UNL     1       0.820   0.706  23.208  0.00  0.00    +0.004 A 
ATOM     21  C   UNL     1       0.338  -0.579  23.462  0.00  0.00    +0.000 A 
ENDBRANCH   2  13
ENDBRANCH   6   2
BRANCH   4   9
ATOM      9  C   UNL     1      -4.985   1.678  25.503  0.00  0.00    +0.159 C 
BRANCH   9  11
ATOM      3  O   UNL     1      -4.123  -0.586  25.733  0.00  0.00    -0.464 OA
ATOM     11  C   UNL     1      -4.480   0.406  24.876  0.00  0.00    +0.119 A 
ATOM     12  C   UNL     1      -4.291   0.008  23.573  0.00  0.00    +0.046 A 
ATOM     14  C   UNL     1      -3.702  -1.628  24.969  0.00  0.00    +0.102 A 
ATOM     15  C   UNL     1      -3.787  -1.312  23.633  0.00  0.00    +0.044 A 
ATOM     18  C   UNL     1      -3.262  -2.830  25.693  0.00  0.00    +0.086 C 
ENDBRANCH   9  11
ENDBRANCH   4   9
TORSDOF 4
ENDMDL
MODEL 8
REMARK VINA RESULT:      -4.1     14.138     16.207
REMARK  Name = 75536912
REMARK  5 active torsions:
REMARK  status: ('A' for Active; 'I' for Inactive)
REMARK    1  A    between atoms: O_2  and  C_6
REMARK    2  A    between atoms: O_2  and  C_13
REMARK    3  A    between atoms: N_4  and  C_9
REMARK    4  A    between atoms: C_9  and  C_11
REMARK    5  A    between atoms: C_14  and  C_18
REMARK                            x       y       z     vdW  Elec       q    Type
REMARK                         _______ _______ _______ _____ _____    ______ ____
ROOT
ATOM      1  O   UNL     1      -4.396  -9.683  16.779  0.00  0.00    -0.375 OA
ATOM      4  N   UNL     1      -4.496 -10.207  13.951  0.00  0.00    -0.289 NA
ATOM      5  C   UNL     1      -5.781 -10.781  14.348  0.00  0.00    +0.131 C 
ATOM      6  C   UNL     1      -6.449  -9.931  15.436  0.00  0.00    +0.213 C 
ATOM      7  C   UNL     1      -3.360 -10.626  14.779  0.00  0.00    +0.113 C 
ATOM      8  C   UNL     1      -5.786  -9.982  16.810  0.00  0.00    +0.205 C 
ATOM     10  C   UNL     1      -3.622 -10.766  16.277  0.00  0.00    +0.175 C 
ENDROOT
BRANCH   6   2
ATOM      2  O   UNL     1      -7.801 -10.372  15.570  0.00  0.00    -0.485 OA
BRANCH   2  13
ATOM     13  C   UNL     1      -8.738  -9.405  15.811  0.00  0.00    +0.121 A 
ATOM     16  C   UNL     1      -9.522  -8.917  14.765  0.00  0.00    +0.045 A 
ATOM     17  C   UNL     1      -8.910  -8.907  17.103  0.00  0.00    +0.045 A 
ATOM     19  C   UNL     1     -10.477  -7.931  15.012  0.00  0.00    +0.004 A 
ATOM     20  C   UNL     1      -9.865  -7.922  17.349  0.00  0.00    +0.004 A 
ATOM     21  C   UNL     1     -10.649  -7.433  16.303  0.00  0.00    +0.000 A 
ENDBRANCH   2  13
ENDBRANCH   6   2
BRANCH   4   9
ATOM      9  C   UNL     1      -4.207 -10.462  12.539  0.00  0.00    +0.159 C 
BRANCH   9  11
ATOM      3  O   UNL     1      -5.135 -10.118  10.315  0.00  0.00    -0.464 OA
ATOM     11  C   UNL     1      -5.202  -9.788  11.632  0.00  0.00    +0.119 A 
ATOM     12  C   UNL     1      -6.206  -8.873  11.849  0.00  0.00    +0.046 A 
ATOM     14  C   UNL     1      -6.106  -9.406   9.686  0.00  0.00    +0.102 A 
ATOM     15  C   UNL     1      -6.793  -8.626  10.587  0.00  0.00    +0.044 A 
ATOM     18  C   UNL     1      -6.222  -9.606   8.234  0.00  0.00    +0.086 C 
ENDBRANCH   9  11
ENDBRANCH   4   9
TORSDOF 4
ENDMDL
MODEL 9
REMARK VINA RESULT:      -4.1      1.897      6.300
REMARK  Name = 75536912
REMARK  5 active torsions:
REMARK  status: ('A' for Active; 'I' for Inactive)
REMARK    1  A    between atoms: O_2  and  C_6
REMARK    2  A    between atoms: O_2  and  C_13
REMARK    3  A    between atoms: N_4  and  C_9
REMARK    4  A    between atoms: C_9  and  C_11
REMARK    5  A    between atoms: C_14  and  C_18
REMARK                            x       y       z     vdW  Elec       q    Type
REMARK                         _______ _______ _______ _____ _____    ______ ____
ROOT
ATOM      1  O   UNL     1       1.263  -0.086  23.013  0.00  0.00    -0.375 OA
ATOM      4  N   UNL     1      -1.410  -0.243  24.069  0.00  0.00    -0.289 NA
ATOM      5  C   UNL     1      -0.858   0.774  24.964  0.00  0.00    +0.131 C 
ATOM      6  C   UNL     1       0.080   1.721  24.204  0.00  0.00    +0.213 C 
ATOM      7  C   UNL     1      -0.569  -1.433  23.906  0.00  0.00    +0.113 C 
ATOM      8  C   UNL     1       1.409   1.115  23.760  0.00  0.00    +0.205 C 
ATOM     10  C   UNL     1       0.939  -1.199  23.838  0.00  0.00    +0.175 C 
ENDROOT
BRANCH   6   2
ATOM      2  O   UNL     1       0.353   2.840  25.050  0.00  0.00    -0.485 OA
BRANCH   2  13
ATOM     13  C   UNL     1      -0.693   3.686  25.299  0.00  0.00    +0.121 A 
ATOM     16  C   UNL     1      -1.727   3.287  26.145  0.00  0.00    +0.045 A 
ATOM     17  C   UNL     1      -0.722   4.950  24.707  0.00  0.00    +0.045 A 
ATOM     19  C   UNL     1      -2.792   4.152  26.399  0.00  0.00    +0.004 A 
ATOM     20  C   UNL     1      -1.787   5.813  24.961  0.00  0.00    +0.004 A 
ATOM     21  C   UNL     1      -2.823   5.414  25.807  0.00  0.00    +0.000 A 
ENDBRANCH   2  13
ENDBRANCH   6   2
BRANCH   4   9
ATOM      9  C   UNL     1      -2.761  -0.637  24.474  0.00  0.00    +0.159 C 
BRANCH   9  11
ATOM      3  O   UNL     1      -4.616   0.529  25.533  0.00  0.00    -0.464 OA
ATOM     11  C   UNL     1      -3.695   0.542  24.534  0.00  0.00    +0.119 A 
ATOM     12  C   UNL     1      -3.830   1.677  23.769  0.00  0.00    +0.046 A 
ATOM     14  C   UNL     1      -5.345   1.668  25.405  0.00  0.00    +0.102 A 
ATOM     15  C   UNL     1      -4.900   2.409  24.334  0.00  0.00    +0.044 A 
ATOM     18  C   UNL     1      -6.416   1.871  26.393  0.00  0.00    +0.086 C 
ENDBRANCH   9  11
ENDBRANCH   4   9
TORSDOF 4
ENDMDL
MODEL 10
REMARK VINA RESULT:      -4.1     14.073     15.947
REMARK  Name = 75536912
REMARK  5 active torsions:
REMARK  status: ('A' for Active; 'I' for Inactive)
REMARK    1  A    between atoms: O_2  and  C_6
REMARK    2  A    between atoms: O_2  and  C_13
REMARK    3  A    between atoms: N_4  and  C_9
REMARK    4  A    between atoms: C_9  and  C_11
REMARK    5  A    between atoms: C_14  and  C_18
REMARK                            x       y       z     vdW  Elec       q    Type
REMARK                         _______ _______ _______ _____ _____    ______ ____
ROOT
ATOM      1  O   UNL     1     -10.006  -7.486  16.020  0.00  0.00    -0.375 OA
ATOM      4  N   UNL     1      -8.609  -9.767  17.081  0.00  0.00    -0.289 NA
ATOM      5  C   UNL     1      -9.061 -10.332  15.810  0.00  0.00    +0.131 C 
ATOM      6  C   UNL     1      -8.980  -9.290  14.687  0.00  0.00    +0.213 C 
ATOM      7  C   UNL     1      -9.652  -9.072  17.843  0.00  0.00    +0.113 C 
ATOM      8  C   UNL     1     -10.001  -8.157  14.766  0.00  0.00    +0.205 C 
ATOM     10  C   UNL     1     -10.650  -8.245  17.036  0.00  0.00    +0.175 C 
ENDROOT
BRANCH   6   2
ATOM      2  O   UNL     1      -9.155  -9.970  13.443  0.00  0.00    -0.485 OA
BRANCH   2  13
ATOM     13  C   UNL     1      -8.232  -9.705  12.468  0.00  0.00    +0.121 A 
ATOM     16  C   UNL     1      -8.648  -9.483  11.155  0.00  0.00    +0.045 A 
ATOM     17  C   UNL     1      -6.875  -9.654  12.788  0.00  0.00    +0.045 A 
ATOM     19  C   UNL     1      -7.707  -9.212  10.162  0.00  0.00    +0.004 A 
ATOM     20  C   UNL     1      -5.934  -9.383  11.796  0.00  0.00    +0.004 A 
ATOM     21  C   UNL     1      -6.350  -9.162  10.481  0.00  0.00    +0.000 A 
ENDBRANCH   2  13
ENDBRANCH   6   2
BRANCH   4   9
ATOM      9  C   UNL     1      -7.968 -10.781  17.921  0.00  0.00    +0.159 C 
BRANCH   9  11
ATOM      3  O   UNL     1      -6.004 -10.775  16.484  0.00  0.00    -0.464 OA
ATOM     11  C   UNL     1      -6.472 -10.778  17.760  0.00  0.00    +0.119 A 
ATOM     12  C   UNL     1      -5.428 -10.780  18.656  0.00  0.00    +0.046 A 
ATOM     14  C   UNL     1      -4.648 -10.773  16.566  0.00  0.00    +0.102 A 
ATOM     15  C   UNL     1      -4.244 -10.776  17.882  0.00  0.00    +0.044 A 
ATOM     18  C   UNL     1      -3.918 -10.768  15.290  0.00  0.00    +0.086 C 
ENDBRANCH   9  11
ENDBRANCH   4   9
TORSDOF 4
ENDMDL
