MODEL 1
REMARK VINA RESULT:      -1.7      0.000      0.000
REMARK  Name = 25389387
REMARK  8 active torsions:
REMARK  status: ('A' for Active; 'I' for Inactive)
REMARK    1  A    between atoms: S_1  and  N_7
REMARK    2  A    between atoms: S_1  and  C_24
REMARK    3  A    between atoms: N_6  and  C_15
REMARK    4  A    between atoms: N_7  and  C_16
REMARK    5  A    between atoms: C_9  and  C_15
REMARK    6  A    between atoms: C_10  and  C_16
REMARK    7  A    between atoms: C_19  and  C_22
REMARK    8  A    between atoms: C_22  and  C_23
REMARK                            x       y       z     vdW  Elec       q    Type
REMARK                         _______ _______ _______ _____ _____    ______ ____
ROOT
ATOM      5  N   UNL     1      -3.733   4.178  24.246  0.00  0.00    -0.298 NA
ATOM      8  C   UNL     1      -1.901   4.332  26.086  0.00  0.00    -0.003 C 
ATOM      9  C   UNL     1      -1.599   3.179  25.103  0.00  0.00    +0.020 C 
ATOM     10  C   UNL     1      -4.364   4.183  25.594  0.00  0.00    +0.072 C 
ATOM     11  C   UNL     1      -3.295   4.123  26.707  0.00  0.00    +0.024 C 
ATOM     12  C   UNL     1      -2.787   3.042  24.125  0.00  0.00    +0.089 C 
ATOM     13  C   UNL     1      -1.964   5.627  25.252  0.00  0.00    +0.019 C 
ATOM     14  C   UNL     1      -2.964   5.438  24.097  0.00  0.00    +0.085 C 
ENDROOT
BRANCH   9  15
ATOM     15  C   UNL     1      -1.291   1.856  25.803  0.00  0.00    +0.089 C 
BRANCH  15   6
ATOM      6  N   UNL     1      -0.240   1.155  25.068  0.00  0.00    -0.302 NA
ATOM     17  C   UNL     1       0.511   2.093  24.223  0.00  0.00    +0.084 C 
ATOM     18  C   UNL     1      -0.812   0.064  24.268  0.00  0.00    +0.084 C 
ATOM     19  C   UNL     1       1.127   0.209  22.652  0.00  0.00    -0.004 C 
ATOM     20  C   UNL     1       1.649   1.384  23.486  0.00  0.00    +0.019 C 
ATOM     21  C   UNL     1       0.281  -0.715  23.534  0.00  0.00    +0.019 C 
BRANCH  19  22
ATOM     22  C   UNL     1       2.276  -0.554  22.001  0.00  0.00    +0.038 C 
BRANCH  22  23
ATOM     23  C   UNL     1       3.552  -0.415  22.787  0.00  0.00    -0.047 A 
ATOM     25  C   UNL     1       4.280   0.774  22.729  0.00  0.00    +0.003 A 
ATOM     26  C   UNL     1       4.006  -1.473  23.572  0.00  0.00    +0.003 A 
ATOM     28  C   UNL     1       5.462   0.904  23.458  0.00  0.00    +0.000 A 
ATOM     29  C   UNL     1       5.189  -1.344  24.300  0.00  0.00    +0.000 A 
ATOM     30  C   UNL     1       5.916  -0.156  24.243  0.00  0.00    +0.000 A 
ENDBRANCH  22  23
ENDBRANCH  19  22
ENDBRANCH  15   6
ENDBRANCH   9  15
BRANCH  10  16
ATOM     16  C   UNL     1      -5.411   3.077  25.752  0.00  0.00    +0.124 C 
BRANCH  16   7
ATOM      7  N   UNL     1      -4.740   1.768  25.714  0.00  0.00    -0.188 NA
ATOM     33  H   UNL     1      -3.792   1.777  26.113  0.00  0.00    +0.148 HD
BRANCH   7   1
ATOM      1  S   UNL     1      -4.964   0.728  24.383  0.00  0.00    +0.065 S 
ATOM      3  O   UNL     1      -4.228   1.245  23.244  0.00  0.00    -0.153 OA
ATOM      4  O   UNL     1      -6.374   0.414  24.257  0.00  0.00    -0.153 OA
BRANCH   1  24
ATOM      2  S   UNL     1      -4.157  -2.030  23.806  0.00  0.00    -0.077 S 
ATOM     24  C   UNL     1      -4.153  -0.742  24.935  0.00  0.00    +0.142 A 
ATOM     27  C   UNL     1      -3.505  -1.079  26.101  0.00  0.00    +0.036 A 
ATOM     31  C   UNL     1      -3.004  -2.414  26.069  0.00  0.00    +0.010 A 
ATOM     32  C   UNL     1      -3.289  -3.044  24.878  0.00  0.00    +0.047 A 
ENDBRANCH   1  24
ENDBRANCH   7   1
ENDBRANCH  16   7
ENDBRANCH  10  16
TORSDOF 8
ENDMDL
MODEL 2
REMARK VINA RESULT:      -1.0      2.895      7.223
REMARK  Name = 25389387
REMARK  8 active torsions:
REMARK  status: ('A' for Active; 'I' for Inactive)
REMARK    1  A    between atoms: S_1  and  N_7
REMARK    2  A    between atoms: S_1  and  C_24
REMARK    3  A    between atoms: N_6  and  C_15
REMARK    4  A    between atoms: N_7  and  C_16
REMARK    5  A    between atoms: C_9  and  C_15
REMARK    6  A    between atoms: C_10  and  C_16
REMARK    7  A    between atoms: C_19  and  C_22
REMARK    8  A    between atoms: C_22  and  C_23
REMARK                            x       y       z     vdW  Elec       q    Type
REMARK                         _______ _______ _______ _____ _____    ______ ____
ROOT
ATOM      5  N   UNL     1      -1.376  -2.632  24.526  0.00  0.00    -0.298 NA
ATOM      8  C   UNL     1      -3.519  -1.943  25.829  0.00  0.00    -0.003 C 
ATOM      9  C   UNL     1      -3.854  -2.285  24.360  0.00  0.00    +0.020 C 
ATOM     10  C   UNL     1      -1.160  -1.326  25.208  0.00  0.00    +0.072 C 
ATOM     11  C   UNL     1      -2.464  -0.821  25.865  0.00  0.00    +0.024 C 
ATOM     12  C   UNL     1      -2.532  -2.544  23.601  0.00  0.00    +0.089 C 
ATOM     13  C   UNL     1      -2.872  -3.198  26.446  0.00  0.00    +0.019 C 
ATOM     14  C   UNL     1      -1.690  -3.643  25.565  0.00  0.00    +0.085 C 
ENDROOT
BRANCH   9  15
ATOM     15  C   UNL     1      -4.699  -1.216  23.670  0.00  0.00    +0.089 C 
BRANCH  15   6
ATOM      6  N   UNL     1      -4.340   0.099  24.198  0.00  0.00    -0.302 NA
ATOM     17  C   UNL     1      -5.484   0.702  24.895  0.00  0.00    +0.084 C 
ATOM     18  C   UNL     1      -3.855   0.972  23.121  0.00  0.00    +0.084 C 
ATOM     19  C   UNL     1      -4.563   3.013  24.433  0.00  0.00    -0.004 C 
ATOM     20  C   UNL     1      -5.110   2.057  25.500  0.00  0.00    +0.019 C 
ATOM     21  C   UNL     1      -3.424   2.335  23.666  0.00  0.00    +0.019 C 
BRANCH  19  22
ATOM     22  C   UNL     1      -4.099   4.325  25.059  0.00  0.00    +0.038 C 
BRANCH  22  23
ATOM     23  C   UNL     1      -2.600   4.390  25.167  0.00  0.00    -0.047 A 
ATOM     25  C   UNL     1      -1.899   3.352  25.782  0.00  0.00    +0.003 A 
ATOM     26  C   UNL     1      -1.911   5.487  24.651  0.00  0.00    +0.003 A 
ATOM     28  C   UNL     1      -0.509   3.413  25.881  0.00  0.00    +0.000 A 
ATOM     29  C   UNL     1      -0.521   5.547  24.750  0.00  0.00    +0.000 A 
ATOM     30  C   UNL     1       0.179   4.510  25.365  0.00  0.00    +0.000 A 
ENDBRANCH  22  23
ENDBRANCH  19  22
ENDBRANCH  15   6
ENDBRANCH   9  15
BRANCH  10  16
ATOM     16  C   UNL     1      -0.549  -0.276  24.277  0.00  0.00    +0.124 C 
BRANCH  16   7
ATOM      7  N   UNL     1       0.783  -0.730  23.844  0.00  0.00    -0.188 NA
ATOM     33  H   UNL     1       1.302  -1.237  24.573  0.00  0.00    +0.148 HD
BRANCH   7   1
ATOM      1  S   UNL     1       1.726   0.243  22.813  0.00  0.00    +0.065 S 
ATOM      3  O   UNL     1       1.567   1.635  23.191  0.00  0.00    -0.153 OA
ATOM      4  O   UNL     1       1.507  -0.169  21.440  0.00  0.00    -0.153 OA
BRANCH   1  24
ATOM      2  S   UNL     1       4.582   0.896  22.897  0.00  0.00    -0.077 S 
ATOM     24  C   UNL     1       3.365  -0.256  23.248  0.00  0.00    +0.142 A 
ATOM     27  C   UNL     1       3.882  -1.396  23.821  0.00  0.00    +0.036 A 
ATOM     31  C   UNL     1       5.298  -1.324  23.975  0.00  0.00    +0.010 A 
ATOM     32  C   UNL     1       5.807  -0.130  23.513  0.00  0.00    +0.047 A 
ENDBRANCH   1  24
ENDBRANCH   7   1
ENDBRANCH  16   7
ENDBRANCH  10  16
TORSDOF 8
ENDMDL
MODEL 3
REMARK VINA RESULT:      -0.0      1.810      2.685
REMARK  Name = 25389387
REMARK  8 active torsions:
REMARK  status: ('A' for Active; 'I' for Inactive)
REMARK    1  A    between atoms: S_1  and  N_7
REMARK    2  A    between atoms: S_1  and  C_24
REMARK    3  A    between atoms: N_6  and  C_15
REMARK    4  A    between atoms: N_7  and  C_16
REMARK    5  A    between atoms: C_9  and  C_15
REMARK    6  A    between atoms: C_10  and  C_16
REMARK    7  A    between atoms: C_19  and  C_22
REMARK    8  A    between atoms: C_22  and  C_23
REMARK                            x       y       z     vdW  Elec       q    Type
REMARK                         _______ _______ _______ _____ _____    ______ ____
ROOT
ATOM      5  N   UNL     1      -4.848   2.904  24.038  0.00  0.00    -0.298 NA
ATOM      8  C   UNL     1      -3.740   3.259  26.364  0.00  0.00    -0.003 C 
ATOM      9  C   UNL     1      -3.227   4.301  25.346  0.00  0.00    +0.020 C 
ATOM     10  C   UNL     1      -4.256   1.627  24.521  0.00  0.00    +0.072 C 
ATOM     11  C   UNL     1      -3.463   1.841  25.829  0.00  0.00    +0.024 C 
ATOM     12  C   UNL     1      -3.804   3.955  23.954  0.00  0.00    +0.089 C 
ATOM     13  C   UNL     1      -5.270   3.425  26.445  0.00  0.00    +0.019 C 
ATOM     14  C   UNL     1      -5.864   3.339  25.027  0.00  0.00    +0.085 C 
ENDROOT
BRANCH   9  15
ATOM     15  C   UNL     1      -1.704   4.413  25.312  0.00  0.00    +0.089 C 
BRANCH  15   6
ATOM      6  N   UNL     1      -1.139   3.152  24.834  0.00  0.00    -0.302 NA
ATOM     17  C   UNL     1       0.151   2.888  25.485  0.00  0.00    +0.084 C 
ATOM     18  C   UNL     1      -1.000   3.171  23.372  0.00  0.00    +0.084 C 
ATOM     19  C   UNL     1       0.875   1.482  23.510  0.00  0.00    -0.004 C 
ATOM     20  C   UNL     1       0.732   1.546  25.035  0.00  0.00    +0.019 C 
ATOM     21  C   UNL     1      -0.460   1.839  22.850  0.00  0.00    +0.019 C 
BRANCH  19  22
ATOM     22  C   UNL     1       1.360   0.107  23.062  0.00  0.00    +0.038 C 
BRANCH  22  23
ATOM     23  C   UNL     1       2.845  -0.047  23.246  0.00  0.00    -0.047 A 
ATOM     25  C   UNL     1       3.367  -1.243  23.740  0.00  0.00    +0.003 A 
ATOM     26  C   UNL     1       3.701   1.006  22.923  0.00  0.00    +0.003 A 
ATOM     28  C   UNL     1       4.744  -1.385  23.909  0.00  0.00    +0.000 A 
ATOM     29  C   UNL     1       5.078   0.864  23.094  0.00  0.00    +0.000 A 
ATOM     30  C   UNL     1       5.599  -0.332  23.587  0.00  0.00    +0.000 A 
ENDBRANCH  22  23
ENDBRANCH  19  22
ENDBRANCH  15   6
ENDBRANCH   9  15
BRANCH  10  16
ATOM     16  C   UNL     1      -3.409   0.935  23.450  0.00  0.00    +0.124 C 
BRANCH  16   7
ATOM      7  N   UNL     1      -3.972  -0.398  23.176  0.00  0.00    -0.188 NA
ATOM     33  H   UNL     1      -4.778  -0.381  22.536  0.00  0.00    +0.148 HD
BRANCH   7   1
ATOM      1  S   UNL     1      -4.038  -1.571  24.408  0.00  0.00    +0.065 S 
ATOM      3  O   UNL     1      -4.580  -2.803  23.867  0.00  0.00    -0.153 OA
ATOM      4  O   UNL     1      -4.620  -0.979  25.597  0.00  0.00    -0.153 OA
BRANCH   1  24
ATOM      2  S   UNL     1      -1.729  -1.004  26.123  0.00  0.00    -0.077 S 
ATOM     24  C   UNL     1      -2.323  -1.833  24.747  0.00  0.00    +0.142 A 
ATOM     27  C   UNL     1      -1.343  -2.577  24.129  0.00  0.00    +0.036 A 
ATOM     31  C   UNL     1      -0.086  -2.465  24.794  0.00  0.00    +0.010 A 
ATOM     32  C   UNL     1      -0.156  -1.640  25.895  0.00  0.00    +0.047 A 
ENDBRANCH   1  24
ENDBRANCH   7   1
ENDBRANCH  16   7
ENDBRANCH  10  16
TORSDOF 8
ENDMDL
MODEL 4
REMARK VINA RESULT:       0.3      1.886      4.179
REMARK  Name = 25389387
REMARK  8 active torsions:
REMARK  status: ('A' for Active; 'I' for Inactive)
REMARK    1  A    between atoms: S_1  and  N_7
REMARK    2  A    between atoms: S_1  and  C_24
REMARK    3  A    between atoms: N_6  and  C_15
REMARK    4  A    between atoms: N_7  and  C_16
REMARK    5  A    between atoms: C_9  and  C_15
REMARK    6  A    between atoms: C_10  and  C_16
REMARK    7  A    between atoms: C_19  and  C_22
REMARK    8  A    between atoms: C_22  and  C_23
REMARK                            x       y       z     vdW  Elec       q    Type
REMARK                         _______ _______ _______ _____ _____    ______ ____
ROOT
ATOM      5  N   UNL     1      -4.735  -0.377  24.607  0.00  0.00    -0.298 NA
ATOM      8  C   UNL     1      -2.336  -1.319  24.258  0.00  0.00    -0.003 C 
ATOM      9  C   UNL     1      -2.576  -0.960  25.741  0.00  0.00    +0.020 C 
ATOM     10  C   UNL     1      -4.051   0.365  23.514  0.00  0.00    +0.072 C 
ATOM     11  C   UNL     1      -2.575  -0.072  23.385  0.00  0.00    +0.024 C 
ATOM     12  C   UNL     1      -3.956  -0.274  25.865  0.00  0.00    +0.089 C 
ATOM     13  C   UNL     1      -3.405  -2.359  23.869  0.00  0.00    +0.019 C 
ATOM     14  C   UNL     1      -4.799  -1.807  24.218  0.00  0.00    +0.085 C 
ENDROOT
BRANCH   9  15
ATOM     15  C   UNL     1      -1.465  -0.101  26.341  0.00  0.00    +0.089 C 
BRANCH  15   6
ATOM      6  N   UNL     1      -0.337  -0.053  25.412  0.00  0.00    -0.302 NA
ATOM     17  C   UNL     1      -0.443   1.119  24.534  0.00  0.00    +0.084 C 
ATOM     18  C   UNL     1      -0.261  -1.295  24.631  0.00  0.00    +0.084 C 
ATOM     19  C   UNL     1       0.918  -0.068  22.763  0.00  0.00    -0.004 C 
ATOM     20  C   UNL     1       0.758   1.213  23.590  0.00  0.00    +0.019 C 
ATOM     21  C   UNL     1       0.946  -1.285  23.692  0.00  0.00    +0.019 C 
BRANCH  19  22
ATOM     22  C   UNL     1       2.174  -0.007  21.898  0.00  0.00    +0.038 C 
BRANCH  22  23
ATOM     23  C   UNL     1       3.424  -0.132  22.724  0.00  0.00    -0.047 A 
ATOM     25  C   UNL     1       3.742  -1.349  23.329  0.00  0.00    +0.003 A 
ATOM     26  C   UNL     1       4.267   0.966  22.886  0.00  0.00    +0.003 A 
ATOM     28  C   UNL     1       4.902  -1.466  24.094  0.00  0.00    +0.000 A 
ATOM     29  C   UNL     1       5.426   0.850  23.652  0.00  0.00    +0.000 A 
ATOM     30  C   UNL     1       5.744  -0.366  24.256  0.00  0.00    +0.000 A 
ENDBRANCH  22  23
ENDBRANCH  19  22
ENDBRANCH  15   6
ENDBRANCH   9  15
BRANCH  10  16
ATOM     16  C   UNL     1      -4.182   1.882  23.667  0.00  0.00    +0.124 C 
BRANCH  16   7
ATOM      7  N   UNL     1      -5.372   2.184  24.479  0.00  0.00    -0.188 NA
ATOM     33  H   UNL     1      -6.252   2.163  23.946  0.00  0.00    +0.148 HD
BRANCH   7   1
ATOM      1  S   UNL     1      -5.293   3.354  25.715  0.00  0.00    +0.065 S 
ATOM      3  O   UNL     1      -5.572   2.721  26.990  0.00  0.00    -0.153 OA
ATOM      4  O   UNL     1      -6.037   4.529  25.306  0.00  0.00    -0.153 OA
BRANCH   1  24
ATOM      2  S   UNL     1      -3.187   5.088  24.642  0.00  0.00    -0.077 S 
ATOM     24  C   UNL     1      -3.580   3.789  25.687  0.00  0.00    +0.142 A 
ATOM     27  C   UNL     1      -2.472   3.299  26.341  0.00  0.00    +0.036 A 
ATOM     31  C   UNL     1      -1.283   3.998  25.978  0.00  0.00    +0.010 A 
ATOM     32  C   UNL     1      -1.530   4.997  25.062  0.00  0.00    +0.047 A 
ENDBRANCH   1  24
ENDBRANCH   7   1
ENDBRANCH  16   7
ENDBRANCH  10  16
TORSDOF 8
ENDMDL
MODEL 5
REMARK VINA RESULT:       0.9      2.805      5.952
REMARK  Name = 25389387
REMARK  8 active torsions:
REMARK  status: ('A' for Active; 'I' for Inactive)
REMARK    1  A    between atoms: S_1  and  N_7
REMARK    2  A    between atoms: S_1  and  C_24
REMARK    3  A    between atoms: N_6  and  C_15
REMARK    4  A    between atoms: N_7  and  C_16
REMARK    5  A    between atoms: C_9  and  C_15
REMARK    6  A    between atoms: C_10  and  C_16
REMARK    7  A    between atoms: C_19  and  C_22
REMARK    8  A    between atoms: C_22  and  C_23
REMARK                            x       y       z     vdW  Elec       q    Type
REMARK                         _______ _______ _______ _____ _____    ______ ____
ROOT
ATOM      5  N   UNL     1      -0.494   3.659  25.609  0.00  0.00    -0.298 NA
ATOM      8  C   UNL     1      -1.909   5.143  24.008  0.00  0.00    -0.003 C 
ATOM      9  C   UNL     1      -2.813   4.417  25.029  0.00  0.00    +0.020 C 
ATOM     10  C   UNL     1      -0.159   3.345  24.193  0.00  0.00    +0.072 C 
ATOM     11  C   UNL     1      -1.089   4.103  23.220  0.00  0.00    +0.024 C 
ATOM     12  C   UNL     1      -1.941   3.443  25.854  0.00  0.00    +0.089 C 
ATOM     13  C   UNL     1      -0.910   5.992  24.818  0.00  0.00    +0.019 C 
ATOM     14  C   UNL     1      -0.194   5.092  25.842  0.00  0.00    +0.085 C 
ENDROOT
BRANCH   9  15
ATOM     15  C   UNL     1      -3.998   3.701  24.382  0.00  0.00    +0.089 C 
BRANCH  15   6
ATOM      6  N   UNL     1      -3.807   2.256  24.493  0.00  0.00    -0.302 NA
ATOM     17  C   UNL     1      -3.553   1.667  23.172  0.00  0.00    +0.084 C 
ATOM     18  C   UNL     1      -4.972   1.631  25.136  0.00  0.00    +0.084 C 
ATOM     19  C   UNL     1      -4.465  -0.553  23.970  0.00  0.00    -0.004 C 
ATOM     20  C   UNL     1      -3.300   0.162  23.277  0.00  0.00    +0.019 C 
ATOM     21  C   UNL     1      -4.766   0.126  25.309  0.00  0.00    +0.019 C 
BRANCH  19  22
ATOM     22  C   UNL     1      -4.162  -2.036  24.161  0.00  0.00    +0.038 C 
BRANCH  22  23
ATOM     23  C   UNL     1      -2.777  -2.255  24.707  0.00  0.00    -0.047 A 
ATOM     25  C   UNL     1      -1.994  -3.303  24.221  0.00  0.00    +0.003 A 
ATOM     26  C   UNL     1      -2.276  -1.411  25.697  0.00  0.00    +0.003 A 
ATOM     28  C   UNL     1      -0.710  -3.505  24.727  0.00  0.00    +0.000 A 
ATOM     29  C   UNL     1      -0.992  -1.614  26.203  0.00  0.00    +0.000 A 
ATOM     30  C   UNL     1      -0.209  -2.660  25.718  0.00  0.00    +0.000 A 
ENDBRANCH  22  23
ENDBRANCH  19  22
ENDBRANCH  15   6
ENDBRANCH   9  15
BRANCH  10  16
ATOM     16  C   UNL     1      -0.153   1.840  23.915  0.00  0.00    +0.124 C 
BRANCH  16   7
ATOM      7  N   UNL     1       1.114   1.475  23.259  0.00  0.00    -0.188 NA
ATOM     33  H   UNL     1       1.476   2.201  22.627  0.00  0.00    +0.148 HD
BRANCH   7   1
ATOM      1  S   UNL     1       1.392  -0.132  22.766  0.00  0.00    +0.065 S 
ATOM      3  O   UNL     1       1.270  -0.216  21.322  0.00  0.00    -0.153 OA
ATOM      4  O   UNL     1       0.630  -1.028  23.615  0.00  0.00    -0.153 OA
BRANCH   1  24
ATOM      2  S   UNL     1       4.109   0.968  22.758  0.00  0.00    -0.077 S 
ATOM     24  C   UNL     1       3.096  -0.346  23.183  0.00  0.00    +0.142 A 
ATOM     27  C   UNL     1       3.796  -1.364  23.790  0.00  0.00    +0.036 A 
ATOM     31  C   UNL     1       5.185  -1.062  23.908  0.00  0.00    +0.010 A 
ATOM     32  C   UNL     1       5.491   0.176  23.387  0.00  0.00    +0.047 A 
ENDBRANCH   1  24
ENDBRANCH   7   1
ENDBRANCH  16   7
ENDBRANCH  10  16
TORSDOF 8
ENDMDL
MODEL 6
REMARK VINA RESULT:       1.7      1.919      2.597
REMARK  Name = 25389387
REMARK  8 active torsions:
REMARK  status: ('A' for Active; 'I' for Inactive)
REMARK    1  A    between atoms: S_1  and  N_7
REMARK    2  A    between atoms: S_1  and  C_24
REMARK    3  A    between atoms: N_6  and  C_15
REMARK    4  A    between atoms: N_7  and  C_16
REMARK    5  A    between atoms: C_9  and  C_15
REMARK    6  A    between atoms: C_10  and  C_16
REMARK    7  A    between atoms: C_19  and  C_22
REMARK    8  A    between atoms: C_22  and  C_23
REMARK                            x       y       z     vdW  Elec       q    Type
REMARK                         _______ _______ _______ _____ _____    ______ ____
ROOT
ATOM      5  N   UNL     1      -4.759   2.937  24.068  0.00  0.00    -0.298 NA
ATOM      8  C   UNL     1      -3.888   3.897  26.322  0.00  0.00    -0.003 C 
ATOM      9  C   UNL     1      -3.169   4.560  25.127  0.00  0.00    +0.020 C 
ATOM     10  C   UNL     1      -4.349   1.827  24.970  0.00  0.00    +0.072 C 
ATOM     11  C   UNL     1      -3.688   2.371  26.256  0.00  0.00    +0.024 C 
ATOM     12  C   UNL     1      -3.618   3.853  23.828  0.00  0.00    +0.089 C 
ATOM     13  C   UNL     1      -5.394   4.169  26.147  0.00  0.00    +0.019 C 
ATOM     14  C   UNL     1      -5.833   3.703  24.747  0.00  0.00    +0.085 C 
ENDROOT
BRANCH   9  15
ATOM     15  C   UNL     1      -1.647   4.568  25.266  0.00  0.00    +0.089 C 
BRANCH  15   6
ATOM      6  N   UNL     1      -1.116   3.281  24.819  0.00  0.00    -0.302 NA
ATOM     17  C   UNL     1       0.170   3.002  25.472  0.00  0.00    +0.084 C 
ATOM     18  C   UNL     1      -0.983   3.260  23.356  0.00  0.00    +0.084 C 
ATOM     19  C   UNL     1       0.850   1.528  23.531  0.00  0.00    -0.004 C 
ATOM     20  C   UNL     1       0.715   1.634  25.055  0.00  0.00    +0.019 C 
ATOM     21  C   UNL     1      -0.479   1.901  22.867  0.00  0.00    +0.019 C 
BRANCH  19  22
ATOM     22  C   UNL     1       1.298   0.130  23.117  0.00  0.00    +0.038 C 
BRANCH  22  23
ATOM     23  C   UNL     1       2.786  -0.041  23.255  0.00  0.00    -0.047 A 
ATOM     25  C   UNL     1       3.643   1.010  22.924  0.00  0.00    +0.003 A 
ATOM     26  C   UNL     1       3.311  -1.248  23.715  0.00  0.00    +0.003 A 
ATOM     28  C   UNL     1       5.023   0.852  23.053  0.00  0.00    +0.000 A 
ATOM     29  C   UNL     1       4.691  -1.406  23.843  0.00  0.00    +0.000 A 
ATOM     30  C   UNL     1       5.546  -0.356  23.512  0.00  0.00    +0.000 A 
ENDBRANCH  22  23
ENDBRANCH  19  22
ENDBRANCH  15   6
ENDBRANCH   9  15
BRANCH  10  16
ATOM     16  C   UNL     1      -3.458   0.801  24.265  0.00  0.00    +0.124 C 
BRANCH  16   7
ATOM      7  N   UNL     1      -2.268   0.544  25.093  0.00  0.00    -0.188 NA
ATOM     33  H   UNL     1      -1.431   1.055  24.782  0.00  0.00    +0.148 HD
BRANCH   7   1
ATOM      1  S   UNL     1      -1.984  -1.011  25.727  0.00  0.00    +0.065 S 
ATOM      3  O   UNL     1      -2.507  -1.079  27.078  0.00  0.00    -0.153 OA
ATOM      4  O   UNL     1      -0.611  -1.390  25.457  0.00  0.00    -0.153 OA
BRANCH   1  24
ATOM      2  S   UNL     1      -2.232  -3.382  24.022  0.00  0.00    -0.077 S 
ATOM     24  C   UNL     1      -3.011  -2.013  24.694  0.00  0.00    +0.142 A 
ATOM     27  C   UNL     1      -4.330  -1.926  24.308  0.00  0.00    +0.036 A 
ATOM     31  C   UNL     1      -4.707  -2.999  23.448  0.00  0.00    +0.010 A 
ATOM     32  C   UNL     1      -3.661  -3.863  23.210  0.00  0.00    +0.047 A 
ENDBRANCH   1  24
ENDBRANCH   7   1
ENDBRANCH  16   7
ENDBRANCH  10  16
TORSDOF 8
ENDMDL
MODEL 7
REMARK VINA RESULT:       2.2      2.402      4.263
REMARK  Name = 25389387
REMARK  8 active torsions:
REMARK  status: ('A' for Active; 'I' for Inactive)
REMARK    1  A    between atoms: S_1  and  N_7
REMARK    2  A    between atoms: S_1  and  C_24
REMARK    3  A    between atoms: N_6  and  C_15
REMARK    4  A    between atoms: N_7  and  C_16
REMARK    5  A    between atoms: C_9  and  C_15
REMARK    6  A    between atoms: C_10  and  C_16
REMARK    7  A    between atoms: C_19  and  C_22
REMARK    8  A    between atoms: C_22  and  C_23
REMARK                            x       y       z     vdW  Elec       q    Type
REMARK                         _______ _______ _______ _____ _____    ______ ____
ROOT
ATOM      5  N   UNL     1      -4.716   1.974  25.050  0.00  0.00    -0.298 NA
ATOM      8  C   UNL     1      -4.883  -0.502  24.271  0.00  0.00    -0.003 C 
ATOM      9  C   UNL     1      -4.320  -0.413  25.707  0.00  0.00    +0.020 C 
ATOM     10  C   UNL     1      -4.038   1.807  23.735  0.00  0.00    +0.072 C 
ATOM     11  C   UNL     1      -3.991   0.319  23.320  0.00  0.00    +0.024 C 
ATOM     12  C   UNL     1      -4.107   1.076  26.061  0.00  0.00    +0.089 C 
ATOM     13  C   UNL     1      -6.269   0.171  24.290  0.00  0.00    +0.019 C 
ATOM     14  C   UNL     1      -6.137   1.586  24.882  0.00  0.00    +0.085 C 
ENDROOT
BRANCH   9  15
ATOM     15  C   UNL     1      -3.043  -1.227  25.905  0.00  0.00    +0.089 C 
BRANCH  15   6
ATOM      6  N   UNL     1      -2.076  -0.868  24.869  0.00  0.00    -0.302 NA
ATOM     17  C   UNL     1      -1.480  -2.074  24.281  0.00  0.00    +0.084 C 
ATOM     18  C   UNL     1      -1.042   0.021  25.417  0.00  0.00    +0.084 C 
ATOM     19  C   UNL     1       0.590  -0.763  23.652  0.00  0.00    -0.004 C 
ATOM     20  C   UNL     1      -0.503  -1.717  23.159  0.00  0.00    +0.019 C 
ATOM     21  C   UNL     1      -0.052   0.450  24.333  0.00  0.00    +0.019 C 
BRANCH  19  22
ATOM     22  C   UNL     1       1.500  -0.332  22.506  0.00  0.00    +0.038 C 
BRANCH  22  23
ATOM     23  C   UNL     1       2.939  -0.253  22.938  0.00  0.00    -0.047 A 
ATOM     25  C   UNL     1       3.539  -1.344  23.568  0.00  0.00    +0.003 A 
ATOM     26  C   UNL     1       3.673   0.910  22.708  0.00  0.00    +0.003 A 
ATOM     28  C   UNL     1       4.873  -1.270  23.967  0.00  0.00    +0.000 A 
ATOM     29  C   UNL     1       5.007   0.983  23.108  0.00  0.00    +0.000 A 
ATOM     30  C   UNL     1       5.607  -0.107  23.738  0.00  0.00    +0.000 A 
ENDBRANCH  22  23
ENDBRANCH  19  22
ENDBRANCH  15   6
ENDBRANCH   9  15
BRANCH  10  16
ATOM     16  C   UNL     1      -2.648   2.447  23.711  0.00  0.00    +0.124 C 
BRANCH  16   7
ATOM      7  N   UNL     1      -2.788   3.910  23.793  0.00  0.00    -0.188 NA
ATOM     33  H   UNL     1      -2.454   4.404  22.955  0.00  0.00    +0.148 HD
BRANCH   7   1
ATOM      1  S   UNL     1      -2.526   4.713  25.272  0.00  0.00    +0.065 S 
ATOM      3  O   UNL     1      -3.703   4.570  26.109  0.00  0.00    -0.153 OA
ATOM      4  O   UNL     1      -1.976   6.029  25.007  0.00  0.00    -0.153 OA
BRANCH   1  24
ATOM      2  S   UNL     1       0.206   3.676  25.055  0.00  0.00    -0.077 S 
ATOM     24  C   UNL     1      -1.231   3.744  25.984  0.00  0.00    +0.142 A 
ATOM     27  C   UNL     1      -1.128   3.019  27.150  0.00  0.00    +0.036 A 
ATOM     31  C   UNL     1       0.149   2.397  27.283  0.00  0.00    +0.010 A 
ATOM     32  C   UNL     1       0.972   2.673  26.213  0.00  0.00    +0.047 A 
ENDBRANCH   1  24
ENDBRANCH   7   1
ENDBRANCH  16   7
ENDBRANCH  10  16
TORSDOF 8
ENDMDL
