MODEL 1
REMARK VINA RESULT:      -4.5      0.000      0.000
REMARK  Name = 11885161
REMARK  2 active torsions:
REMARK  status: ('A' for Active; 'I' for Inactive)
REMARK    1  A    between atoms: C_16  and  C_19
REMARK    2  A    between atoms: C_17  and  C_20
REMARK                            x       y       z     vdW  Elec       q    Type
REMARK                         _______ _______ _______ _____ _____    ______ ____
ROOT
ATOM      3  O   UNL     1      14.767  -8.120  26.237  0.00  0.00    -0.267 OA
ATOM      4  O   UNL     1      11.915  -7.074  30.274  0.00  0.00    -0.270 OA
ATOM      5  N   UNL     1      13.673  -8.355  31.074  0.00  0.00    -0.297 N 
ATOM      6  N   UNL     1      15.338  -8.713  28.420  0.00  0.00    -0.311 N 
ATOM      7  C   UNL     1      14.014 -10.444  29.768  0.00  0.00    +0.027 C 
ATOM      8  C   UNL     1      15.947  -9.311  30.790  0.00  0.00    +0.054 C 
ATOM      9  C   UNL     1      15.333 -10.679  30.496  0.00  0.00    +0.018 C 
ATOM     10  C   UNL     1      13.059  -9.613  30.646  0.00  0.00    +0.113 C 
ATOM     11  C   UNL     1      14.307  -9.762  28.426  0.00  0.00    +0.130 C 
ATOM     12  C   UNL     1      14.999  -8.503  31.700  0.00  0.00    +0.117 C 
ATOM     13  C   UNL     1      16.197  -8.538  29.508  0.00  0.00    +0.027 A 
ATOM     14  C   UNL     1      17.209  -7.660  29.434  0.00  0.00    +0.022 A 
ATOM     15  C   UNL     1      15.481  -7.972  27.230  0.00  0.00    +0.259 A 
ATOM     16  C   UNL     1      13.027  -7.135  30.801  0.00  0.00    +0.247 C 
ATOM     17  C   UNL     1      16.595  -6.961  27.196  0.00  0.00    +0.047 A 
ATOM     18  C   UNL     1      17.405  -6.858  28.261  0.00  0.00    +0.015 A 
ENDROOT
BRANCH  17  20
ATOM      1 CL   UNL     1      17.405  -3.401  22.455  0.00  0.00    -0.084 Cl
ATOM     20  C   UNL     1      16.794  -6.085  26.029  0.00  0.00    -0.013 A 
ATOM     23  C   UNL     1      17.135  -6.636  24.793  0.00  0.00    +0.010 A 
ATOM     24  C   UNL     1      16.642  -4.705  26.159  0.00  0.00    +0.010 A 
ATOM     27  C   UNL     1      17.324  -5.806  23.687  0.00  0.00    +0.020 A 
ATOM     28  C   UNL     1      16.831  -3.874  25.054  0.00  0.00    +0.020 A 
ATOM     30  C   UNL     1      17.172  -4.425  23.818  0.00  0.00    +0.041 A 
ENDBRANCH  17  20
BRANCH  16  19
ATOM      2  F   UNL     1      15.768  -2.451  32.101  0.00  0.00    -0.205 F 
ATOM     19  C   UNL     1      13.743  -5.913  31.140  0.00  0.00    +0.037 A 
ATOM     21  C   UNL     1      14.746  -5.440  30.298  0.00  0.00    +0.016 A 
ATOM     22  C   UNL     1      13.421  -5.223  32.306  0.00  0.00    +0.016 A 
ATOM     25  C   UNL     1      15.431  -4.269  30.622  0.00  0.00    +0.039 A 
ATOM     26  C   UNL     1      14.105  -4.051  32.630  0.00  0.00    +0.039 A 
ATOM     29  C   UNL     1      15.110  -3.575  31.789  0.00  0.00    +0.123 A 
ENDBRANCH  16  19
TORSDOF 2
ENDMDL
