MODEL 1
REMARK VINA RESULT:      -4.1      0.000      0.000
REMARK  Name = 40776919
REMARK  6 active torsions:
REMARK  status: ('A' for Active; 'I' for Inactive)
REMARK    1  A    between atoms: N_5  and  C_15
REMARK    2  A    between atoms: C_9  and  C_16
REMARK    3  A    between atoms: C_10  and  C_15
REMARK    4  A    between atoms: C_18  and  C_21
REMARK    5  A    between atoms: C_19  and  C_22
REMARK    6  A    between atoms: C_20  and  C_23
REMARK                            x       y       z     vdW  Elec       q    Type
REMARK                         _______ _______ _______ _____ _____    ______ ____
ROOT
ATOM      4  N   UNL     1      -4.597  -8.625   9.817  0.00  0.00    -0.297 NA
ATOM      8  C   UNL     1      -6.952  -9.711   9.590  0.00  0.00    +0.002 C 
ATOM      9  C   UNL     1      -6.879  -8.836  10.871  0.00  0.00    +0.055 C 
ATOM     10  C   UNL     1      -4.461 -10.084   9.568  0.00  0.00    +0.074 C 
ATOM     11  C   UNL     1      -5.838 -10.779   9.636  0.00  0.00    +0.024 C 
ATOM     12  C   UNL     1      -6.641  -8.782   8.398  0.00  0.00    +0.019 C 
ATOM     13  C   UNL     1      -5.399  -8.390  11.045  0.00  0.00    +0.094 C 
ATOM     14  C   UNL     1      -5.324  -8.033   8.669  0.00  0.00    +0.085 C 
ENDROOT
BRANCH   9  16
ATOM      6  N   UNL     1      -8.773  -9.733  12.132  0.00  0.00    -0.237 NA
ATOM      7  N   UNL     1      -8.579 -10.404  14.438  0.00  0.00    -0.232 NA
ATOM     16  C   UNL     1      -7.468  -9.396  12.158  0.00  0.00    +0.050 A 
ATOM     17  C   UNL     1      -6.663  -9.531  13.272  0.00  0.00    +0.052 A 
ATOM     18  C   UNL     1      -7.279 -10.046  14.395  0.00  0.00    +0.075 A 
ATOM     19  C   UNL     1      -9.257 -10.224  13.289  0.00  0.00    +0.127 A 
ATOM     22  C   UNL     1     -10.698 -10.606  13.300  0.00  0.00    +0.088 C 
BRANCH  18  21
ATOM      1  F   UNL     1      -4.460 -10.780  19.145  0.00  0.00    -0.205 F 
ATOM     21  C   UNL     1      -6.548 -10.237  15.625  0.00  0.00    +0.001 A 
ATOM     24  C   UNL     1      -5.172 -10.459  15.592  0.00  0.00    +0.013 A 
ATOM     25  C   UNL     1      -7.219 -10.196  16.847  0.00  0.00    +0.013 A 
ATOM     27  C   UNL     1      -4.466 -10.643  16.781  0.00  0.00    +0.039 A 
ATOM     28  C   UNL     1      -6.514 -10.381  18.036  0.00  0.00    +0.039 A 
ATOM     31  C   UNL     1      -5.137 -10.604  18.002  0.00  0.00    +0.123 A 
ENDBRANCH  18  21
ENDBRANCH   9  16
BRANCH  10  15
ATOM     15  C   UNL     1      -3.444 -10.742  10.502  0.00  0.00    +0.123 C 
BRANCH  15   5
ATOM      2  O   UNL     1      -1.980 -10.334  12.939  0.00  0.00    -0.267 OA
ATOM      5  N   UNL     1      -2.298  -9.905  10.680  0.00  0.00    -0.307 N 
ATOM     20  C   UNL     1      -1.645  -9.763  11.904  0.00  0.00    +0.279 C 
ATOM     32  H   UNL     1      -1.954  -9.384   9.878  0.00  0.00    +0.149 HD
BRANCH  20  23
ATOM      3  O   UNL     1       0.434  -8.938  10.936  0.00  0.00    -0.458 OA
ATOM     23  C   UNL     1      -0.487  -8.834  11.930  0.00  0.00    +0.189 A 
ATOM     26  C   UNL     1      -0.140  -7.833  12.807  0.00  0.00    +0.054 A 
ATOM     29  C   UNL     1       1.072  -7.286  12.322  0.00  0.00    +0.042 A 
ATOM     30  C   UNL     1       1.379  -7.993  11.182  0.00  0.00    +0.196 A 
ENDBRANCH  20  23
ENDBRANCH  15   5
ENDBRANCH  10  15
TORSDOF 5
ENDMDL
