MODEL 1
REMARK VINA RESULT:       8.4      0.000      0.000
REMARK  Name = 7674781
REMARK  2 active torsions:
REMARK  status: ('A' for Active; 'I' for Inactive)
REMARK    1  A    between atoms: C_14  and  C_19
REMARK    2  A    between atoms: C_16  and  C_20
REMARK                            x       y       z     vdW  Elec       q    Type
REMARK                         _______ _______ _______ _____ _____    ______ ____
ROOT
ATOM      1  O   UNL     1      -3.170   4.255  27.634  0.00  0.00    -0.268 OA
ATOM      2  O   UNL     1      -6.095   0.916  25.219  0.00  0.00    -0.268 OA
ATOM      3  N   UNL     1      -2.708   3.495  25.467  0.00  0.00    -0.311 N 
ATOM      4  N   UNL     1      -4.484   1.606  23.672  0.00  0.00    -0.295 N 
ATOM      7  C   UNL     1      -4.248   4.069  23.495  0.00  0.00    +0.027 C 
ATOM      8  C   UNL     1      -2.282   2.632  23.146  0.00  0.00    +0.054 C 
ATOM      9  C   UNL     1      -2.993   3.891  22.653  0.00  0.00    +0.018 C 
ATOM     10  C   UNL     1      -3.828   4.294  24.948  0.00  0.00    +0.130 C 
ATOM     11  C   UNL     1      -5.177   2.852  23.347  0.00  0.00    +0.113 C 
ATOM     12  C   UNL     1      -3.210   1.410  22.967  0.00  0.00    +0.117 C 
ATOM     13  C   UNL     1      -1.859   2.759  24.614  0.00  0.00    +0.034 A 
ATOM     14  C   UNL     1      -0.741   2.169  25.116  0.00  0.00    +0.002 A 
ATOM     15  C   UNL     1      -2.470   3.616  26.848  0.00  0.00    +0.252 A 
ATOM     16  C   UNL     1      -5.028   0.748  24.631  0.00  0.00    +0.266 C 
ATOM     17  C   UNL     1      -0.468   2.271  26.539  0.00  0.00    +0.015 A 
ATOM     18  C   UNL     1      -1.271   2.928  27.375  0.00  0.00    +0.071 A 
ENDROOT
BRANCH  14  19
ATOM     19  C   UNL     1       0.155   1.441  24.259  0.00  0.00    -0.016 A 
ATOM     21  C   UNL     1       1.471   1.871  24.110  0.00  0.00    +0.017 A 
ATOM     22  C   UNL     1      -0.298   0.314  23.586  0.00  0.00    +0.009 A 
ATOM     23  C   UNL     1       2.358   1.171  23.277  0.00  0.00    -0.017 A 
ATOM     24  C   UNL     1       0.570  -0.394  22.754  0.00  0.00    +0.009 A 
ATOM     25  C   UNL     1       1.902   0.021  22.589  0.00  0.00    -0.018 A 
ATOM     27  C   UNL     1       3.690   1.585  23.112  0.00  0.00    +0.008 A 
ATOM     28  C   UNL     1       2.789  -0.679  21.757  0.00  0.00    +0.008 A 
ATOM     30  C   UNL     1       4.558   0.877  22.281  0.00  0.00    +0.001 A 
ATOM     31  C   UNL     1       4.109  -0.252  21.604  0.00  0.00    +0.001 A 
ENDBRANCH  14  19
BRANCH  16  20
ATOM      5  N   UNL     1      -4.425  -1.525  24.207  0.00  0.00    -0.247 NA
ATOM      6  N   UNL     1      -2.741  -1.554  26.450  0.00  0.00    -0.259 NA
ATOM     20  C   UNL     1      -4.267  -0.451  25.000  0.00  0.00    +0.144 A 
ATOM     26  C   UNL     1      -3.443  -0.459  26.100  0.00  0.00    +0.143 A 
ATOM     29  C   UNL     1      -3.722  -2.620  24.558  0.00  0.00    +0.131 A 
ATOM     32  C   UNL     1      -2.894  -2.634  25.659  0.00  0.00    +0.130 A 
ENDBRANCH  16  20
TORSDOF 2
ENDMDL
