MODEL 1
REMARK VINA RESULT:      -1.7      0.000      0.000
REMARK  Name = 45783381
REMARK  10 active torsions:
REMARK  status: ('A' for Active; 'I' for Inactive)
REMARK    1  A    between atoms: O_3  and  C_22
REMARK    2  A    between atoms: O_4  and  C_28
REMARK    3  A    between atoms: O_4  and  C_29
REMARK    4  A    between atoms: N_5  and  C_14
REMARK    5  A    between atoms: N_8  and  C_26
REMARK    6  A    between atoms: C_10  and  C_15
REMARK    7  A    between atoms: C_14  and  C_16
REMARK    8  A    between atoms: C_18  and  C_21
REMARK    9  A    between atoms: C_19  and  C_22
REMARK   10  A    between atoms: C_26  and  C_28
REMARK                            x       y       z     vdW  Elec       q    Type
REMARK                         _______ _______ _______ _____ _____    ______ ____
ROOT
ATOM      1  O   UNL     1      -3.729  -1.376  23.861  0.00  0.00    -0.336 OA
ATOM      6  N   UNL     1      -2.649   0.411  24.671  0.00  0.00    -0.190 NA
ATOM      7  N   UNL     1      -4.709  -0.402  24.095  0.00  0.00    -0.056 NA
ATOM     15  C   UNL     1      -2.547  -0.815  24.226  0.00  0.00    +0.245 A 
ATOM     18  C   UNL     1      -3.994   0.621  24.572  0.00  0.00    +0.205 A 
ENDROOT
BRANCH  18  21
ATOM      8  N   UNL     1      -2.543   3.063  24.535  0.00  0.00    -0.326 N 
ATOM      9  N   UNL     1      -4.436   4.253  25.308  0.00  0.00    -0.240 NA
ATOM     21  C   UNL     1      -4.592   1.866  24.960  0.00  0.00    +0.062 A 
ATOM     23  C   UNL     1      -3.899   3.065  24.949  0.00  0.00    +0.130 A 
ATOM     24  C   UNL     1      -5.922   1.886  25.368  0.00  0.00    +0.016 A 
ATOM     25  C   UNL     1      -6.509   3.088  25.745  0.00  0.00    +0.020 A 
ATOM     27  C   UNL     1      -5.730   4.233  25.698  0.00  0.00    +0.113 A 
ATOM     30  H   UNL     1      -2.281   2.392  23.822  0.00  0.00    +0.148 HD
BRANCH   8  26
ATOM     26  C   UNL     1      -1.635   4.112  24.868  0.00  0.00    +0.131 C 
BRANCH  26  28
ATOM     28  C   UNL     1      -0.216   3.703  24.512  0.00  0.00    +0.178 C 
BRANCH  28   4
ATOM      4  O   UNL     1       0.057   2.418  25.056  0.00  0.00    -0.381 OA
ATOM     29  C   UNL     1       0.165   2.466  26.472  0.00  0.00    +0.194 C 
ENDBRANCH  28   4
ENDBRANCH  26  28
ENDBRANCH   8  26
ENDBRANCH  18  21
BRANCH  15  10
ATOM      5  N   UNL     1      -0.059  -0.906  24.185  0.00  0.00    -0.284 NA
ATOM     10  C   UNL     1      -1.312  -1.679  24.065  0.00  0.00    +0.146 C 
ATOM     11  C   UNL     1      -1.204  -2.769  25.148  0.00  0.00    +0.030 C 
ATOM     12  C   UNL     1       0.165  -2.567  25.779  0.00  0.00    +0.017 C 
ATOM     13  C   UNL     1       0.946  -1.828  24.711  0.00  0.00    +0.085 C 
BRANCH   5  14
ATOM     14  C   UNL     1       0.359  -0.295  22.930  0.00  0.00    +0.159 C 
BRANCH  14  16
ATOM      2  O   UNL     1       2.714  -0.822  23.247  0.00  0.00    -0.461 OA
ATOM     16  C   UNL     1       1.799   0.144  22.971  0.00  0.00    +0.119 A 
ATOM     17  C   UNL     1       2.419   1.358  22.784  0.00  0.00    +0.046 A 
ATOM     19  C   UNL     1       3.931  -0.219  23.236  0.00  0.00    +0.131 A 
ATOM     20  C   UNL     1       3.804   1.122  22.956  0.00  0.00    +0.047 A 
BRANCH  19  22
ATOM     22  C   UNL     1       5.088  -1.083  23.511  0.00  0.00    +0.230 C 
BRANCH  22   3
ATOM      3  O   UNL     1       5.608  -0.814  24.814  0.00  0.00    -0.387 OA
ATOM     31  H   UNL     1       6.019  -1.637  25.131  0.00  0.00    +0.210 HD
ENDBRANCH  22   3
ENDBRANCH  19  22
ENDBRANCH  14  16
ENDBRANCH   5  14
ENDBRANCH  15  10
TORSDOF 9
ENDMDL
MODEL 2
REMARK VINA RESULT:      -1.7      2.392      6.610
REMARK  Name = 45783381
REMARK  10 active torsions:
REMARK  status: ('A' for Active; 'I' for Inactive)
REMARK    1  A    between atoms: O_3  and  C_22
REMARK    2  A    between atoms: O_4  and  C_28
REMARK    3  A    between atoms: O_4  and  C_29
REMARK    4  A    between atoms: N_5  and  C_14
REMARK    5  A    between atoms: N_8  and  C_26
REMARK    6  A    between atoms: C_10  and  C_15
REMARK    7  A    between atoms: C_14  and  C_16
REMARK    8  A    between atoms: C_18  and  C_21
REMARK    9  A    between atoms: C_19  and  C_22
REMARK   10  A    between atoms: C_26  and  C_28
REMARK                            x       y       z     vdW  Elec       q    Type
REMARK                         _______ _______ _______ _____ _____    ______ ____
ROOT
ATOM      1  O   UNL     1      -0.778  -2.631  25.325  0.00  0.00    -0.336 OA
ATOM      6  N   UNL     1      -1.147  -0.793  24.100  0.00  0.00    -0.190 NA
ATOM      7  N   UNL     1       0.485  -2.109  25.017  0.00  0.00    -0.056 NA
ATOM     15  C   UNL     1      -1.681  -1.797  24.748  0.00  0.00    +0.245 A 
ATOM     18  C   UNL     1       0.184  -1.027  24.292  0.00  0.00    +0.205 A 
ENDROOT
BRANCH  18  21
ATOM      8  N   UNL     1       0.225   1.759  24.843  0.00  0.00    -0.326 N 
ATOM      9  N   UNL     1       2.155   2.042  23.504  0.00  0.00    -0.240 NA
ATOM     21  C   UNL     1       1.188  -0.160  23.746  0.00  0.00    +0.062 A 
ATOM     23  C   UNL     1       1.222   1.201  24.004  0.00  0.00    +0.130 A 
ATOM     24  C   UNL     1       2.173  -0.692  22.921  0.00  0.00    +0.016 A 
ATOM     25  C   UNL     1       3.149   0.141  22.388  0.00  0.00    +0.020 A 
ATOM     27  C   UNL     1       3.097   1.489  22.707  0.00  0.00    +0.113 A 
ATOM     30  H   UNL     1      -0.126   1.174  25.593  0.00  0.00    +0.148 HD
BRANCH   8  26
ATOM     26  C   UNL     1      -0.088   3.151  24.844  0.00  0.00    +0.131 C 
BRANCH  26  28
ATOM     28  C   UNL     1      -1.155   3.442  25.886  0.00  0.00    +0.178 C 
BRANCH  28   4
ATOM      4  O   UNL     1      -1.664   4.755  25.687  0.00  0.00    -0.381 OA
ATOM     29  C   UNL     1      -0.953   5.439  24.665  0.00  0.00    +0.194 C 
ENDBRANCH  28   4
ENDBRANCH  26  28
ENDBRANCH   8  26
ENDBRANCH  18  21
BRANCH  15  10
ATOM      5  N   UNL     1      -4.049  -1.083  24.463  0.00  0.00    -0.284 NA
ATOM     10  C   UNL     1      -3.143  -2.147  24.940  0.00  0.00    +0.146 C 
ATOM     11  C   UNL     1      -3.562  -3.401  24.150  0.00  0.00    +0.030 C 
ATOM     12  C   UNL     1      -4.746  -2.960  23.304  0.00  0.00    +0.017 C 
ATOM     13  C   UNL     1      -5.281  -1.749  24.042  0.00  0.00    +0.085 C 
BRANCH   5  14
ATOM     14  C   UNL     1      -4.297  -0.051  25.462  0.00  0.00    +0.159 C 
BRANCH  14  16
ATOM      2  O   UNL     1      -4.778   2.330  25.616  0.00  0.00    -0.461 OA
ATOM     16  C   UNL     1      -4.245   1.331  24.865  0.00  0.00    +0.119 A 
ATOM     17  C   UNL     1      -3.757   1.825  23.678  0.00  0.00    +0.046 A 
ATOM     19  C   UNL     1      -4.629   3.475  24.900  0.00  0.00    +0.131 A 
ATOM     20  C   UNL     1      -4.007   3.218  23.701  0.00  0.00    +0.047 A 
BRANCH  19  22
ATOM     22  C   UNL     1      -5.138   4.704  25.525  0.00  0.00    +0.230 C 
BRANCH  22   3
ATOM      3  O   UNL     1      -6.536   4.579  25.794  0.00  0.00    -0.387 OA
ATOM     31  H   UNL     1      -6.995   4.631  24.938  0.00  0.00    +0.210 HD
ENDBRANCH  22   3
ENDBRANCH  19  22
ENDBRANCH  14  16
ENDBRANCH   5  14
ENDBRANCH  15  10
TORSDOF 9
ENDMDL
MODEL 3
REMARK VINA RESULT:      -1.5      1.683      6.039
REMARK  Name = 45783381
REMARK  10 active torsions:
REMARK  status: ('A' for Active; 'I' for Inactive)
REMARK    1  A    between atoms: O_3  and  C_22
REMARK    2  A    between atoms: O_4  and  C_28
REMARK    3  A    between atoms: O_4  and  C_29
REMARK    4  A    between atoms: N_5  and  C_14
REMARK    5  A    between atoms: N_8  and  C_26
REMARK    6  A    between atoms: C_10  and  C_15
REMARK    7  A    between atoms: C_14  and  C_16
REMARK    8  A    between atoms: C_18  and  C_21
REMARK    9  A    between atoms: C_19  and  C_22
REMARK   10  A    between atoms: C_26  and  C_28
REMARK                            x       y       z     vdW  Elec       q    Type
REMARK                         _______ _______ _______ _____ _____    ______ ____
ROOT
ATOM      1  O   UNL     1      -3.773   2.321  24.002  0.00  0.00    -0.336 OA
ATOM      6  N   UNL     1      -4.331   0.646  25.380  0.00  0.00    -0.190 NA
ATOM      7  N   UNL     1      -3.191   1.165  23.466  0.00  0.00    -0.056 NA
ATOM     15  C   UNL     1      -4.425   1.926  25.127  0.00  0.00    +0.245 A 
ATOM     18  C   UNL     1      -3.564   0.221  24.334  0.00  0.00    +0.205 A 
ENDROOT
BRANCH  18  21
ATOM      8  N   UNL     1      -0.845  -0.595  24.265  0.00  0.00    -0.326 N 
ATOM      9  N   UNL     1      -1.482  -2.860  24.012  0.00  0.00    -0.240 NA
ATOM     21  C   UNL     1      -3.188  -1.156  24.187  0.00  0.00    +0.062 A 
ATOM     23  C   UNL     1      -1.867  -1.571  24.150  0.00  0.00    +0.130 A 
ATOM     24  C   UNL     1      -4.179  -2.125  24.072  0.00  0.00    +0.016 A 
ATOM     25  C   UNL     1      -3.823  -3.461  23.929  0.00  0.00    +0.020 A 
ATOM     27  C   UNL     1      -2.473  -3.774  23.905  0.00  0.00    +0.113 A 
ATOM     30  H   UNL     1      -1.041   0.210  24.849  0.00  0.00    +0.148 HD
BRANCH   8  26
ATOM     26  C   UNL     1       0.495  -0.831  23.835  0.00  0.00    +0.131 C 
BRANCH  26  28
ATOM     28  C   UNL     1       0.886   0.182  22.773  0.00  0.00    +0.178 C 
BRANCH  28   4
ATOM      4  O   UNL     1       2.154  -0.166  22.231  0.00  0.00    -0.381 OA
ATOM     29  C   UNL     1       3.178   0.693  22.714  0.00  0.00    +0.194 C 
ENDBRANCH  28   4
ENDBRANCH  26  28
ENDBRANCH   8  26
ENDBRANCH  18  21
BRANCH  15  10
ATOM      5  N   UNL     1      -4.586   4.352  25.662  0.00  0.00    -0.284 NA
ATOM     10  C   UNL     1      -5.150   3.008  25.902  0.00  0.00    +0.146 C 
ATOM     11  C   UNL     1      -6.633   3.130  25.507  0.00  0.00    +0.030 C 
ATOM     12  C   UNL     1      -6.823   4.589  25.119  0.00  0.00    +0.017 C 
ATOM     13  C   UNL     1      -5.688   5.298  25.832  0.00  0.00    +0.085 C 
BRANCH   5  14
ATOM     14  C   UNL     1      -3.457   4.663  26.530  0.00  0.00    +0.159 C 
BRANCH  14  16
ATOM      2  O   UNL     1      -1.486   3.328  26.026  0.00  0.00    -0.461 OA
ATOM     16  C   UNL     1      -2.140   4.500  25.818  0.00  0.00    +0.119 A 
ATOM     17  C   UNL     1      -1.424   5.310  24.968  0.00  0.00    +0.046 A 
ATOM     19  C   UNL     1      -0.338   3.390  25.301  0.00  0.00    +0.131 A 
ATOM     20  C   UNL     1      -0.253   4.589  24.632  0.00  0.00    +0.047 A 
BRANCH  19  22
ATOM     22  C   UNL     1       0.540   2.214  25.372  0.00  0.00    +0.230 C 
BRANCH  22   3
ATOM      3  O   UNL     1      -0.025   1.225  26.236  0.00  0.00    -0.387 OA
ATOM     31  H   UNL     1      -0.894   1.559  26.518  0.00  0.00    +0.210 HD
ENDBRANCH  22   3
ENDBRANCH  19  22
ENDBRANCH  14  16
ENDBRANCH   5  14
ENDBRANCH  15  10
TORSDOF 9
ENDMDL
MODEL 4
REMARK VINA RESULT:      -1.0      1.902      4.850
REMARK  Name = 45783381
REMARK  10 active torsions:
REMARK  status: ('A' for Active; 'I' for Inactive)
REMARK    1  A    between atoms: O_3  and  C_22
REMARK    2  A    between atoms: O_4  and  C_28
REMARK    3  A    between atoms: O_4  and  C_29
REMARK    4  A    between atoms: N_5  and  C_14
REMARK    5  A    between atoms: N_8  and  C_26
REMARK    6  A    between atoms: C_10  and  C_15
REMARK    7  A    between atoms: C_14  and  C_16
REMARK    8  A    between atoms: C_18  and  C_21
REMARK    9  A    between atoms: C_19  and  C_22
REMARK   10  A    between atoms: C_26  and  C_28
REMARK                            x       y       z     vdW  Elec       q    Type
REMARK                         _______ _______ _______ _____ _____    ______ ____
ROOT
ATOM      1  O   UNL     1      -0.505   0.708  26.478  0.00  0.00    -0.336 OA
ATOM      6  N   UNL     1      -2.134   1.030  24.975  0.00  0.00    -0.190 NA
ATOM      7  N   UNL     1      -1.066  -0.552  26.236  0.00  0.00    -0.056 NA
ATOM     15  C   UNL     1      -1.191   1.582  25.696  0.00  0.00    +0.245 A 
ATOM     18  C   UNL     1      -2.019  -0.280  25.340  0.00  0.00    +0.205 A 
ENDROOT
BRANCH  18  21
ATOM      8  N   UNL     1      -4.666   0.290  24.482  0.00  0.00    -0.326 N 
ATOM      9  N   UNL     1      -4.996  -1.965  23.846  0.00  0.00    -0.240 NA
ATOM     21  C   UNL     1      -2.874  -1.292  24.790  0.00  0.00    +0.062 A 
ATOM     23  C   UNL     1      -4.167  -1.032  24.368  0.00  0.00    +0.130 A 
ATOM     24  C   UNL     1      -2.399  -2.594  24.671  0.00  0.00    +0.016 A 
ATOM     25  C   UNL     1      -3.221  -3.582  24.139  0.00  0.00    +0.020 A 
ATOM     27  C   UNL     1      -4.499  -3.219  23.745  0.00  0.00    +0.113 A 
ATOM     30  H   UNL     1      -4.000   1.045  24.364  0.00  0.00    +0.148 HD
BRANCH   8  26
ATOM     26  C   UNL     1      -6.061   0.589  24.479  0.00  0.00    +0.131 C 
BRANCH  26  28
ATOM     28  C   UNL     1      -6.356   1.704  25.467  0.00  0.00    +0.178 C 
BRANCH  28   4
ATOM      4  O   UNL     1      -5.175   2.464  25.690  0.00  0.00    -0.381 OA
ATOM     29  C   UNL     1      -5.410   3.854  25.515  0.00  0.00    +0.194 C 
ENDBRANCH  28   4
ENDBRANCH  26  28
ENDBRANCH   8  26
ENDBRANCH  18  21
BRANCH  15  10
ATOM      5  N   UNL     1      -0.477   3.614  24.449  0.00  0.00    -0.284 NA
ATOM     10  C   UNL     1      -0.769   3.035  25.776  0.00  0.00    +0.146 C 
ATOM     11  C   UNL     1      -1.865   3.941  26.366  0.00  0.00    +0.030 C 
ATOM     12  C   UNL     1      -2.079   5.034  25.329  0.00  0.00    +0.017 C 
ATOM     13  C   UNL     1      -0.781   5.041  24.547  0.00  0.00    +0.085 C 
BRANCH   5  14
ATOM     14  C   UNL     1       0.890   3.373  24.006  0.00  0.00    +0.159 C 
BRANCH  14  16
ATOM      2  O   UNL     1       2.363   1.499  23.513  0.00  0.00    -0.461 OA
ATOM     16  C   UNL     1       1.084   1.957  23.531  0.00  0.00    +0.119 A 
ATOM     17  C   UNL     1       0.215   0.985  23.092  0.00  0.00    +0.046 A 
ATOM     19  C   UNL     1       2.310   0.220  23.058  0.00  0.00    +0.131 A 
ATOM     20  C   UNL     1       1.013  -0.144  22.785  0.00  0.00    +0.047 A 
BRANCH  19  22
ATOM     22  C   UNL     1       3.595  -0.487  22.956  0.00  0.00    +0.230 C 
BRANCH  22   3
ATOM      3  O   UNL     1       4.652   0.331  23.463  0.00  0.00    -0.387 OA
ATOM     31  H   UNL     1       4.360   0.667  24.328  0.00  0.00    +0.210 HD
ENDBRANCH  22   3
ENDBRANCH  19  22
ENDBRANCH  14  16
ENDBRANCH   5  14
ENDBRANCH  15  10
TORSDOF 9
ENDMDL
MODEL 5
REMARK VINA RESULT:      -0.8      2.296      6.088
REMARK  Name = 45783381
REMARK  10 active torsions:
REMARK  status: ('A' for Active; 'I' for Inactive)
REMARK    1  A    between atoms: O_3  and  C_22
REMARK    2  A    between atoms: O_4  and  C_28
REMARK    3  A    between atoms: O_4  and  C_29
REMARK    4  A    between atoms: N_5  and  C_14
REMARK    5  A    between atoms: N_8  and  C_26
REMARK    6  A    between atoms: C_10  and  C_15
REMARK    7  A    between atoms: C_14  and  C_16
REMARK    8  A    between atoms: C_18  and  C_21
REMARK    9  A    between atoms: C_19  and  C_22
REMARK   10  A    between atoms: C_26  and  C_28
REMARK                            x       y       z     vdW  Elec       q    Type
REMARK                         _______ _______ _______ _____ _____    ______ ____
ROOT
ATOM      1  O   UNL     1      -3.294   2.360  22.202  0.00  0.00    -0.336 OA
ATOM      6  N   UNL     1      -2.316   1.546  24.045  0.00  0.00    -0.190 NA
ATOM      7  N   UNL     1      -1.984   2.030  21.834  0.00  0.00    -0.056 NA
ATOM     15  C   UNL     1      -3.406   2.044  23.518  0.00  0.00    +0.245 A 
ATOM     18  C   UNL     1      -1.471   1.557  22.974  0.00  0.00    +0.205 A 
ENDROOT
BRANCH  18  21
ATOM      8  N   UNL     1       0.178   2.199  25.196  0.00  0.00    -0.326 N 
ATOM      9  N   UNL     1       1.976   0.967  24.276  0.00  0.00    -0.240 NA
ATOM     21  C   UNL     1      -0.119   1.089  23.076  0.00  0.00    +0.062 A 
ATOM     23  C   UNL     1       0.699   1.393  24.152  0.00  0.00    +0.130 A 
ATOM     24  C   UNL     1       0.407   0.298  22.061  0.00  0.00    +0.016 A 
ATOM     25  C   UNL     1       1.717  -0.160  22.153  0.00  0.00    +0.020 A 
ATOM     27  C   UNL     1       2.453   0.199  23.271  0.00  0.00    +0.113 A 
ATOM     30  H   UNL     1      -0.810   2.102  25.402  0.00  0.00    +0.148 HD
BRANCH   8  26
ATOM     26  C   UNL     1       1.012   2.905  26.112  0.00  0.00    +0.131 C 
BRANCH  26  28
ATOM     28  C   UNL     1       0.731   2.443  27.532  0.00  0.00    +0.178 C 
BRANCH  28   4
ATOM      4  O   UNL     1       1.840   2.766  28.362  0.00  0.00    -0.381 OA
ATOM     29  C   UNL     1       1.613   2.375  29.709  0.00  0.00    +0.194 C 
ENDBRANCH  28   4
ENDBRANCH  26  28
ENDBRANCH   8  26
ENDBRANCH  18  21
BRANCH  15  10
ATOM      5  N   UNL     1      -4.983   1.470  25.358  0.00  0.00    -0.284 NA
ATOM     10  C   UNL     1      -4.751   2.309  24.164  0.00  0.00    +0.146 C 
ATOM     11  C   UNL     1      -4.892   3.756  24.671  0.00  0.00    +0.030 C 
ATOM     12  C   UNL     1      -5.263   3.629  26.140  0.00  0.00    +0.017 C 
ATOM     13  C   UNL     1      -5.860   2.240  26.239  0.00  0.00    +0.085 C 
BRANCH   5  14
ATOM     14  C   UNL     1      -5.536   0.160  25.039  0.00  0.00    +0.159 C 
BRANCH  14  16
ATOM      2  O   UNL     1      -3.269  -0.658  25.381  0.00  0.00    -0.461 OA
ATOM     16  C   UNL     1      -4.458  -0.850  24.751  0.00  0.00    +0.119 A 
ATOM     17  C   UNL     1      -4.408  -1.972  23.956  0.00  0.00    +0.046 A 
ATOM     19  C   UNL     1      -2.452  -1.668  24.985  0.00  0.00    +0.131 A 
ATOM     20  C   UNL     1      -3.104  -2.503  24.108  0.00  0.00    +0.047 A 
BRANCH  19  22
ATOM     22  C   UNL     1      -1.095  -1.666  25.549  0.00  0.00    +0.230 C 
BRANCH  22   3
ATOM      3  O   UNL     1      -0.872  -0.468  26.297  0.00  0.00    -0.387 OA
ATOM     31  H   UNL     1      -1.740  -0.169  26.618  0.00  0.00    +0.210 HD
ENDBRANCH  22   3
ENDBRANCH  19  22
ENDBRANCH  14  16
ENDBRANCH   5  14
ENDBRANCH  15  10
TORSDOF 9
ENDMDL
MODEL 6
REMARK VINA RESULT:      -0.8      2.063      5.804
REMARK  Name = 45783381
REMARK  10 active torsions:
REMARK  status: ('A' for Active; 'I' for Inactive)
REMARK    1  A    between atoms: O_3  and  C_22
REMARK    2  A    between atoms: O_4  and  C_28
REMARK    3  A    between atoms: O_4  and  C_29
REMARK    4  A    between atoms: N_5  and  C_14
REMARK    5  A    between atoms: N_8  and  C_26
REMARK    6  A    between atoms: C_10  and  C_15
REMARK    7  A    between atoms: C_14  and  C_16
REMARK    8  A    between atoms: C_18  and  C_21
REMARK    9  A    between atoms: C_19  and  C_22
REMARK   10  A    between atoms: C_26  and  C_28
REMARK                            x       y       z     vdW  Elec       q    Type
REMARK                         _______ _______ _______ _____ _____    ______ ____
ROOT
ATOM      1  O   UNL     1      -1.366  -0.599  26.485  0.00  0.00    -0.336 OA
ATOM      6  N   UNL     1      -2.240   0.622  24.824  0.00  0.00    -0.190 NA
ATOM      7  N   UNL     1      -0.637   0.597  26.456  0.00  0.00    -0.056 NA
ATOM     15  C   UNL     1      -2.289  -0.502  25.493  0.00  0.00    +0.245 A 
ATOM     18  C   UNL     1      -1.212   1.264  25.450  0.00  0.00    +0.205 A 
ENDROOT
BRANCH  18  21
ATOM      8  N   UNL     1       0.982   1.647  23.687  0.00  0.00    -0.326 N 
ATOM      9  N   UNL     1       0.714   3.996  23.789  0.00  0.00    -0.240 NA
ATOM     21  C   UNL     1      -0.782   2.571  25.046  0.00  0.00    +0.062 A 
ATOM     23  C   UNL     1       0.286   2.776  24.188  0.00  0.00    +0.130 A 
ATOM     24  C   UNL     1      -1.454   3.689  25.528  0.00  0.00    +0.016 A 
ATOM     25  C   UNL     1      -1.044   4.960  25.141  0.00  0.00    +0.020 A 
ATOM     27  C   UNL     1       0.036   5.058  24.277  0.00  0.00    +0.113 A 
ATOM     30  H   UNL     1       0.439   0.806  23.528  0.00  0.00    +0.148 HD
BRANCH   8  26
ATOM     26  C   UNL     1       2.304   1.730  23.158  0.00  0.00    +0.131 C 
BRANCH  26  28
ATOM     28  C   UNL     1       2.745   0.370  22.645  0.00  0.00    +0.178 C 
BRANCH  28   4
ATOM      4  O   UNL     1       4.123   0.420  22.296  0.00  0.00    -0.381 OA
ATOM     29  C   UNL     1       4.952   0.418  23.451  0.00  0.00    +0.194 C 
ENDBRANCH  28   4
ENDBRANCH  26  28
ENDBRANCH   8  26
ENDBRANCH  18  21
BRANCH  15  10
ATOM      5  N   UNL     1      -4.239  -1.456  24.275  0.00  0.00    -0.284 NA
ATOM     10  C   UNL     1      -3.217  -1.686  25.317  0.00  0.00    +0.146 C 
ATOM     11  C   UNL     1      -2.477  -2.959  24.864  0.00  0.00    +0.030 C 
ATOM     12  C   UNL     1      -3.191  -3.404  23.597  0.00  0.00    +0.017 C 
ATOM     13  C   UNL     1      -4.561  -2.768  23.717  0.00  0.00    +0.085 C 
BRANCH   5  14
ATOM     14  C   UNL     1      -5.421  -0.765  24.774  0.00  0.00    +0.159 C 
BRANCH  14  16
ATOM      2  O   UNL     1      -4.512   1.255  23.766  0.00  0.00    -0.461 OA
ATOM     16  C   UNL     1      -5.234   0.729  24.789  0.00  0.00    +0.119 A 
ATOM     17  C   UNL     1      -5.650   1.720  25.647  0.00  0.00    +0.046 A 
ATOM     19  C   UNL     1      -4.466   2.597  23.972  0.00  0.00    +0.131 A 
ATOM     20  C   UNL     1      -5.151   2.934  25.116  0.00  0.00    +0.047 A 
BRANCH  19  22
ATOM     22  C   UNL     1      -3.729   3.384  22.973  0.00  0.00    +0.230 C 
BRANCH  22   3
ATOM      3  O   UNL     1      -2.814   2.547  22.262  0.00  0.00    -0.387 OA
ATOM     31  H   UNL     1      -3.346   1.960  21.698  0.00  0.00    +0.210 HD
ENDBRANCH  22   3
ENDBRANCH  19  22
ENDBRANCH  14  16
ENDBRANCH   5  14
ENDBRANCH  15  10
TORSDOF 9
ENDMDL
MODEL 7
REMARK VINA RESULT:      -0.5      2.141      6.533
REMARK  Name = 45783381
REMARK  10 active torsions:
REMARK  status: ('A' for Active; 'I' for Inactive)
REMARK    1  A    between atoms: O_3  and  C_22
REMARK    2  A    between atoms: O_4  and  C_28
REMARK    3  A    between atoms: O_4  and  C_29
REMARK    4  A    between atoms: N_5  and  C_14
REMARK    5  A    between atoms: N_8  and  C_26
REMARK    6  A    between atoms: C_10  and  C_15
REMARK    7  A    between atoms: C_14  and  C_16
REMARK    8  A    between atoms: C_18  and  C_21
REMARK    9  A    between atoms: C_19  and  C_22
REMARK   10  A    between atoms: C_26  and  C_28
REMARK                            x       y       z     vdW  Elec       q    Type
REMARK                         _______ _______ _______ _____ _____    ______ ____
ROOT
ATOM      1  O   UNL     1      -3.186   2.347  23.300  0.00  0.00    -0.336 OA
ATOM      6  N   UNL     1      -2.076   1.131  24.819  0.00  0.00    -0.190 NA
ATOM      7  N   UNL     1      -1.979   1.973  22.694  0.00  0.00    -0.056 NA
ATOM     15  C   UNL     1      -3.162   1.810  24.548  0.00  0.00    +0.245 A 
ATOM     18  C   UNL     1      -1.380   1.260  23.652  0.00  0.00    +0.205 A 
ENDROOT
BRANCH  18  21
ATOM      8  N   UNL     1      -0.972  -1.541  23.893  0.00  0.00    -0.326 N 
ATOM      9  N   UNL     1       1.335  -1.292  23.430  0.00  0.00    -0.240 NA
ATOM     21  C   UNL     1      -0.088   0.663  23.475  0.00  0.00    +0.062 A 
ATOM     23  C   UNL     1       0.129  -0.701  23.590  0.00  0.00    +0.130 A 
ATOM     24  C   UNL     1       1.003   1.473  23.177  0.00  0.00    +0.016 A 
ATOM     25  C   UNL     1       2.259   0.902  23.005  0.00  0.00    +0.020 A 
ATOM     27  C   UNL     1       2.370  -0.472  23.140  0.00  0.00    +0.113 A 
ATOM     30  H   UNL     1      -1.876  -1.264  23.527  0.00  0.00    +0.148 HD
BRANCH   8  26
ATOM     26  C   UNL     1      -0.814  -2.852  24.434  0.00  0.00    +0.131 C 
BRANCH  26  28
ATOM     28  C   UNL     1      -2.121  -3.321  25.050  0.00  0.00    +0.178 C 
BRANCH  28   4
ATOM      4  O   UNL     1      -3.063  -2.256  25.030  0.00  0.00    -0.381 OA
ATOM     29  C   UNL     1      -4.094  -2.491  24.081  0.00  0.00    +0.194 C 
ENDBRANCH  28   4
ENDBRANCH  26  28
ENDBRANCH   8  26
ENDBRANCH  18  21
BRANCH  15  10
ATOM      5  N   UNL     1      -4.876   3.455  25.290  0.00  0.00    -0.284 NA
ATOM     10  C   UNL     1      -4.372   2.072  25.419  0.00  0.00    +0.146 C 
ATOM     11  C   UNL     1      -5.574   1.183  25.051  0.00  0.00    +0.030 C 
ATOM     12  C   UNL     1      -6.720   2.150  24.792  0.00  0.00    +0.017 C 
ATOM     13  C   UNL     1      -6.313   3.397  25.551  0.00  0.00    +0.085 C 
BRANCH   5  14
ATOM     14  C   UNL     1      -4.196   4.397  26.170  0.00  0.00    +0.159 C 
BRANCH  14  16
ATOM      2  O   UNL     1      -1.888   3.640  26.323  0.00  0.00    -0.461 OA
ATOM     16  C   UNL     1      -2.744   4.559  25.805  0.00  0.00    +0.119 A 
ATOM     17  C   UNL     1      -2.065   5.470  25.030  0.00  0.00    +0.046 A 
ATOM     19  C   UNL     1      -0.648   3.967  25.874  0.00  0.00    +0.131 A 
ATOM     20  C   UNL     1      -0.703   5.086  25.075  0.00  0.00    +0.047 A 
BRANCH  19  22
ATOM     22  C   UNL     1       0.453   3.098  26.312  0.00  0.00    +0.230 C 
BRANCH  22   3
ATOM      3  O   UNL     1      -0.063   1.878  26.847  0.00  0.00    -0.387 OA
ATOM     31  H   UNL     1      -1.032   1.929  26.786  0.00  0.00    +0.210 HD
ENDBRANCH  22   3
ENDBRANCH  19  22
ENDBRANCH  14  16
ENDBRANCH   5  14
ENDBRANCH  15  10
TORSDOF 9
ENDMDL
MODEL 8
REMARK VINA RESULT:       0.1      1.896      5.327
REMARK  Name = 45783381
REMARK  10 active torsions:
REMARK  status: ('A' for Active; 'I' for Inactive)
REMARK    1  A    between atoms: O_3  and  C_22
REMARK    2  A    between atoms: O_4  and  C_28
REMARK    3  A    between atoms: O_4  and  C_29
REMARK    4  A    between atoms: N_5  and  C_14
REMARK    5  A    between atoms: N_8  and  C_26
REMARK    6  A    between atoms: C_10  and  C_15
REMARK    7  A    between atoms: C_14  and  C_16
REMARK    8  A    between atoms: C_18  and  C_21
REMARK    9  A    between atoms: C_19  and  C_22
REMARK   10  A    between atoms: C_26  and  C_28
REMARK                            x       y       z     vdW  Elec       q    Type
REMARK                         _______ _______ _______ _____ _____    ______ ____
ROOT
ATOM      1  O   UNL     1       1.084  -1.238  24.569  0.00  0.00    -0.336 OA
ATOM      6  N   UNL     1      -0.471  -0.643  23.070  0.00  0.00    -0.190 NA
ATOM      7  N   UNL     1      -0.119  -1.802  25.011  0.00  0.00    -0.056 NA
ATOM     15  C   UNL     1       0.788  -0.574  23.421  0.00  0.00    +0.245 A 
ATOM     18  C   UNL     1      -0.988  -1.406  24.076  0.00  0.00    +0.205 A 
ENDROOT
BRANCH  18  21
ATOM      8  N   UNL     1      -3.022   0.554  24.367  0.00  0.00    -0.326 N 
ATOM      9  N   UNL     1      -4.702  -1.111  24.303  0.00  0.00    -0.240 NA
ATOM     21  C   UNL     1      -2.379  -1.756  24.118  0.00  0.00    +0.062 A 
ATOM     23  C   UNL     1      -3.383  -0.812  24.260  0.00  0.00    +0.130 A 
ATOM     24  C   UNL     1      -2.750  -3.092  24.015  0.00  0.00    +0.016 A 
ATOM     25  C   UNL     1      -4.096  -3.439  24.054  0.00  0.00    +0.020 A 
ATOM     27  C   UNL     1      -5.024  -2.420  24.198  0.00  0.00    +0.113 A 
ATOM     30  H   UNL     1      -2.201   0.855  23.854  0.00  0.00    +0.148 HD
BRANCH   8  26
ATOM     26  C   UNL     1      -3.894   1.540  24.918  0.00  0.00    +0.131 C 
BRANCH  26  28
ATOM     28  C   UNL     1      -4.109   2.662  23.918  0.00  0.00    +0.178 C 
BRANCH  28   4
ATOM      4  O   UNL     1      -4.885   3.691  24.520  0.00  0.00    -0.381 OA
ATOM     29  C   UNL     1      -5.622   3.202  25.632  0.00  0.00    +0.194 C 
ENDBRANCH  28   4
ENDBRANCH  26  28
ENDBRANCH   8  26
ENDBRANCH  18  21
BRANCH  15  10
ATOM      5  N   UNL     1       2.435   1.291  23.503  0.00  0.00    -0.284 NA
ATOM     10  C   UNL     1       1.939   0.132  22.734  0.00  0.00    +0.146 C 
ATOM     11  C   UNL     1       3.171  -0.774  22.554  0.00  0.00    +0.030 C 
ATOM     12  C   UNL     1       4.320  -0.016  23.200  0.00  0.00    +0.017 C 
ATOM     13  C   UNL     1       3.854   1.426  23.177  0.00  0.00    +0.085 C 
BRANCH   5  14
ATOM     14  C   UNL     1       1.691   2.516  23.238  0.00  0.00    +0.159 C 
BRANCH  14  16
ATOM      2  O   UNL     1      -0.068   3.925  24.157  0.00  0.00    -0.461 OA
ATOM     16  C   UNL     1       0.647   2.777  24.291  0.00  0.00    +0.119 A 
ATOM     17  C   UNL     1       0.239   2.080  25.405  0.00  0.00    +0.046 A 
ATOM     19  C   UNL     1      -0.942   3.962  25.197  0.00  0.00    +0.131 A 
ATOM     20  C   UNL     1      -0.793   2.850  25.993  0.00  0.00    +0.047 A 
BRANCH  19  22
ATOM     22  C   UNL     1      -1.831   5.130  25.257  0.00  0.00    +0.230 C 
BRANCH  22   3
ATOM      3  O   UNL     1      -2.868   4.913  26.217  0.00  0.00    -0.387 OA
ATOM     31  H   UNL     1      -3.108   5.785  26.577  0.00  0.00    +0.210 HD
ENDBRANCH  22   3
ENDBRANCH  19  22
ENDBRANCH  14  16
ENDBRANCH   5  14
ENDBRANCH  15  10
TORSDOF 9
ENDMDL
MODEL 9
REMARK VINA RESULT:       1.1      1.940      3.778
REMARK  Name = 45783381
REMARK  10 active torsions:
REMARK  status: ('A' for Active; 'I' for Inactive)
REMARK    1  A    between atoms: O_3  and  C_22
REMARK    2  A    between atoms: O_4  and  C_28
REMARK    3  A    between atoms: O_4  and  C_29
REMARK    4  A    between atoms: N_5  and  C_14
REMARK    5  A    between atoms: N_8  and  C_26
REMARK    6  A    between atoms: C_10  and  C_15
REMARK    7  A    between atoms: C_14  and  C_16
REMARK    8  A    between atoms: C_18  and  C_21
REMARK    9  A    between atoms: C_19  and  C_22
REMARK   10  A    between atoms: C_26  and  C_28
REMARK                            x       y       z     vdW  Elec       q    Type
REMARK                         _______ _______ _______ _____ _____    ______ ____
ROOT
ATOM      1  O   UNL     1      -2.660   0.719  22.187  0.00  0.00    -0.336 OA
ATOM      6  N   UNL     1      -2.329   1.112  24.367  0.00  0.00    -0.190 NA
ATOM      7  N   UNL     1      -2.479   2.103  22.311  0.00  0.00    -0.056 NA
ATOM     15  C   UNL     1      -2.556   0.213  23.443  0.00  0.00    +0.245 A 
ATOM     18  C   UNL     1      -2.291   2.256  23.625  0.00  0.00    +0.205 A 
ENDROOT
BRANCH  18  21
ATOM      8  N   UNL     1      -4.209   3.482  25.324  0.00  0.00    -0.326 N 
ATOM      9  N   UNL     1      -2.799   5.357  25.639  0.00  0.00    -0.240 NA
ATOM     21  C   UNL     1      -2.062   3.538  24.227  0.00  0.00    +0.062 A 
ATOM     23  C   UNL     1      -2.987   4.150  25.057  0.00  0.00    +0.130 A 
ATOM     24  C   UNL     1      -0.869   4.206  23.976  0.00  0.00    +0.016 A 
ATOM     25  C   UNL     1      -0.639   5.449  24.557  0.00  0.00    +0.020 A 
ATOM     27  C   UNL     1      -1.627   5.975  25.373  0.00  0.00    +0.113 A 
ATOM     30  H   UNL     1      -4.180   2.469  25.361  0.00  0.00    +0.148 HD
BRANCH   8  26
ATOM     26  C   UNL     1      -5.370   4.162  25.798  0.00  0.00    +0.131 C 
BRANCH  26  28
ATOM     28  C   UNL     1      -6.554   3.211  25.825  0.00  0.00    +0.178 C 
BRANCH  28   4
ATOM      4  O   UNL     1      -6.105   1.907  26.175  0.00  0.00    -0.381 OA
ATOM     29  C   UNL     1      -5.886   1.107  25.021  0.00  0.00    +0.194 C 
ENDBRANCH  28   4
ENDBRANCH  26  28
ENDBRANCH   8  26
ENDBRANCH  18  21
BRANCH  15  10
ATOM      5  N   UNL     1      -2.259  -1.788  24.894  0.00  0.00    -0.284 NA
ATOM     10  C   UNL     1      -2.714  -1.287  23.582  0.00  0.00    +0.146 C 
ATOM     11  C   UNL     1      -4.182  -1.743  23.477  0.00  0.00    +0.030 C 
ATOM     12  C   UNL     1      -4.442  -2.541  24.746  0.00  0.00    +0.017 C 
ATOM     13  C   UNL     1      -3.057  -2.979  25.181  0.00  0.00    +0.085 C 
BRANCH   5  14
ATOM     14  C   UNL     1      -0.828  -2.062  24.939  0.00  0.00    +0.159 C 
BRANCH  14  16
ATOM      2  O   UNL     1       0.760  -1.110  23.359  0.00  0.00    -0.461 OA
ATOM     16  C   UNL     1      -0.017  -0.891  24.453  0.00  0.00    +0.119 A 
ATOM     17  C   UNL     1       0.118   0.407  24.890  0.00  0.00    +0.046 A 
ATOM     19  C   UNL     1       1.397   0.061  23.095  0.00  0.00    +0.131 A 
ATOM     20  C   UNL     1       1.036   1.025  24.008  0.00  0.00    +0.047 A 
BRANCH  19  22
ATOM     22  C   UNL     1       2.302   0.062  21.937  0.00  0.00    +0.230 C 
BRANCH  22   3
ATOM      3  O   UNL     1       3.455   0.860  22.211  0.00  0.00    -0.387 OA
ATOM     31  H   UNL     1       4.071   0.732  21.469  0.00  0.00    +0.210 HD
ENDBRANCH  22   3
ENDBRANCH  19  22
ENDBRANCH  14  16
ENDBRANCH   5  14
ENDBRANCH  15  10
TORSDOF 9
ENDMDL
MODEL 10
REMARK VINA RESULT:       1.3      2.156      7.186
REMARK  Name = 45783381
REMARK  10 active torsions:
REMARK  status: ('A' for Active; 'I' for Inactive)
REMARK    1  A    between atoms: O_3  and  C_22
REMARK    2  A    between atoms: O_4  and  C_28
REMARK    3  A    between atoms: O_4  and  C_29
REMARK    4  A    between atoms: N_5  and  C_14
REMARK    5  A    between atoms: N_8  and  C_26
REMARK    6  A    between atoms: C_10  and  C_15
REMARK    7  A    between atoms: C_14  and  C_16
REMARK    8  A    between atoms: C_18  and  C_21
REMARK    9  A    between atoms: C_19  and  C_22
REMARK   10  A    between atoms: C_26  and  C_28
REMARK                            x       y       z     vdW  Elec       q    Type
REMARK                         _______ _______ _______ _____ _____    ______ ____
ROOT
ATOM      1  O   UNL     1      -2.875   2.341  22.409  0.00  0.00    -0.336 OA
ATOM      6  N   UNL     1      -2.117   1.735  24.428  0.00  0.00    -0.190 NA
ATOM      7  N   UNL     1      -2.915   0.941  22.436  0.00  0.00    -0.056 NA
ATOM     15  C   UNL     1      -2.394   2.727  23.620  0.00  0.00    +0.245 A 
ATOM     18  C   UNL     1      -2.453   0.659  23.658  0.00  0.00    +0.205 A 
ENDROOT
BRANCH  18  21
ATOM      8  N   UNL     1       0.092  -0.540  24.051  0.00  0.00    -0.326 N 
ATOM      9  N   UNL     1      -0.918  -2.549  24.789  0.00  0.00    -0.240 NA
ATOM     21  C   UNL     1      -2.313  -0.685  24.139  0.00  0.00    +0.062 A 
ATOM     23  C   UNL     1      -1.081  -1.285  24.336  0.00  0.00    +0.130 A 
ATOM     24  C   UNL     1      -3.453  -1.429  24.423  0.00  0.00    +0.016 A 
ATOM     25  C   UNL     1      -3.327  -2.732  24.891  0.00  0.00    +0.020 A 
ATOM     27  C   UNL     1      -2.048  -3.241  25.055  0.00  0.00    +0.113 A 
ATOM     30  H   UNL     1       0.053   0.459  24.217  0.00  0.00    +0.148 HD
BRANCH   8  26
ATOM     26  C   UNL     1       1.357  -1.156  23.817  0.00  0.00    +0.131 C 
BRANCH  26  28
ATOM     28  C   UNL     1       2.267  -0.203  23.061  0.00  0.00    +0.178 C 
BRANCH  28   4
ATOM      4  O   UNL     1       3.608  -0.671  23.134  0.00  0.00    -0.381 OA
ATOM     29  C   UNL     1       4.538   0.400  23.057  0.00  0.00    +0.194 C 
ENDBRANCH  28   4
ENDBRANCH  26  28
ENDBRANCH   8  26
ENDBRANCH  18  21
BRANCH  15  10
ATOM      5  N   UNL     1      -2.687   4.630  25.197  0.00  0.00    -0.284 NA
ATOM     10  C   UNL     1      -2.254   4.218  23.847  0.00  0.00    +0.146 C 
ATOM     11  C   UNL     1      -0.796   4.702  23.739  0.00  0.00    +0.030 C 
ATOM     12  C   UNL     1      -0.520   5.425  25.048  0.00  0.00    +0.017 C 
ATOM     13  C   UNL     1      -1.900   5.813  25.540  0.00  0.00    +0.085 C 
BRANCH   5  14
ATOM     14  C   UNL     1      -4.120   4.878  25.289  0.00  0.00    +0.159 C 
BRANCH  14  16
ATOM      2  O   UNL     1      -5.210   2.999  26.386  0.00  0.00    -0.461 OA
ATOM     16  C   UNL     1      -4.918   3.604  25.205  0.00  0.00    +0.119 A 
ATOM     17  C   UNL     1      -5.437   2.886  24.152  0.00  0.00    +0.046 A 
ATOM     19  C   UNL     1      -5.924   1.883  26.083  0.00  0.00    +0.131 A 
ATOM     20  C   UNL     1      -6.090   1.768  24.723  0.00  0.00    +0.047 A 
BRANCH  19  22
ATOM     22  C   UNL     1      -6.358   1.060  27.222  0.00  0.00    +0.230 C 
BRANCH  22   3
ATOM      3  O   UNL     1      -7.631   1.503  27.696  0.00  0.00    -0.387 OA
ATOM     31  H   UNL     1      -8.290   1.234  27.033  0.00  0.00    +0.210 HD
ENDBRANCH  22   3
ENDBRANCH  19  22
ENDBRANCH  14  16
ENDBRANCH   5  14
ENDBRANCH  15  10
TORSDOF 9
ENDMDL
