MODEL 1
REMARK VINA RESULT:       2.4      0.000      0.000
REMARK  Name = 26742275
REMARK  10 active torsions:
REMARK  status: ('A' for Active; 'I' for Inactive)
REMARK    1  A    between atoms: O_1  and  C_11
REMARK    2  A    between atoms: O_4  and  C_26
REMARK    3  A    between atoms: O_4  and  C_30
REMARK    4  A    between atoms: O_5  and  C_32
REMARK    5  A    between atoms: O_5  and  C_33
REMARK    6  A    between atoms: N_7  and  C_10
REMARK    7  A    between atoms: N_8  and  C_19
REMARK    8  A    between atoms: C_17  and  C_18
REMARK    9  A    between atoms: C_27  and  C_31
REMARK   10  A    between atoms: C_30  and  C_32
REMARK                            x       y       z     vdW  Elec       q    Type
REMARK                         _______ _______ _______ _____ _____    ______ ____
ROOT
ATOM      2  O   UNL     1      -5.921   0.988  24.794  0.00  0.00    -0.252 OA
ATOM      6  N   UNL     1      -5.059   2.722  26.058  0.00  0.00    -0.284 N 
ATOM      8  N   UNL     1      -3.768   0.786  25.643  0.00  0.00    -0.269 N 
ATOM     10  C   UNL     1      -3.031   4.205  25.878  0.00  0.00    +0.119 C 
ATOM     11  C   UNL     1      -3.676   4.940  24.690  0.00  0.00    +0.136 C 
ATOM     12  C   UNL     1      -5.060   5.543  24.950  0.00  0.00    +0.035 C 
ATOM     13  C   UNL     1      -3.977   3.403  26.781  0.00  0.00    +0.134 C 
ATOM     14  C   UNL     1      -6.199   4.533  24.792  0.00  0.00    +0.022 C 
ATOM     15  C   UNL     1      -6.290   3.502  25.909  0.00  0.00    +0.109 C 
ATOM     16  C   UNL     1      -4.979   1.448  25.446  0.00  0.00    +0.307 C 
ATOM     36  H   UNL     1      -3.043   1.256  26.174  0.00  0.00    +0.156 HD
ENDROOT
BRANCH   8  19
ATOM     19  C   UNL     1      -3.386  -0.492  25.162  0.00  0.00    +0.036 A 
ATOM     22  C   UNL     1      -2.109  -0.987  25.434  0.00  0.00    +0.042 A 
ATOM     23  C   UNL     1      -4.285  -1.255  24.418  0.00  0.00    +0.023 A 
ATOM     27  C   UNL     1      -1.734  -2.244  24.961  0.00  0.00    +0.054 A 
ATOM     28  C   UNL     1      -3.909  -2.512  23.945  0.00  0.00    +0.003 A 
ATOM     29  C   UNL     1      -2.633  -3.007  24.216  0.00  0.00    +0.019 A 
BRANCH  27  31
ATOM      9  N   UNL     1       0.635  -3.163  25.465  0.00  0.00    -0.191 NA
ATOM     31  C   UNL     1      -0.427  -2.752  25.239  0.00  0.00    +0.099 C 
ENDBRANCH  27  31
ENDBRANCH   8  19
BRANCH  10   7
ATOM      3  O   UNL     1      -2.927   2.877  23.335  0.00  0.00    -0.270 OA
ATOM      7  N   UNL     1      -1.960   3.361  25.385  0.00  0.00    -0.305 N 
ATOM     17  C   UNL     1      -2.005   2.765  24.139  0.00  0.00    +0.244 C 
ATOM     34  H   UNL     1      -1.114   3.312  25.945  0.00  0.00    +0.149 HD
BRANCH  17  18
ATOM     18  C   UNL     1      -0.841   1.910  23.794  0.00  0.00    +0.037 A 
ATOM     20  C   UNL     1       0.418   2.198  24.322  0.00  0.00    +0.016 A 
ATOM     21  C   UNL     1      -1.006   0.817  22.941  0.00  0.00    +0.016 A 
ATOM     24  C   UNL     1       1.511   1.395  23.998  0.00  0.00    +0.046 A 
ATOM     25  C   UNL     1       0.088   0.014  22.617  0.00  0.00    +0.046 A 
ATOM     26  C   UNL     1       1.346   0.302  23.145  0.00  0.00    +0.121 A 
BRANCH  26   4
ATOM      4  O   UNL     1       2.413  -0.481  22.828  0.00  0.00    -0.490 OA
BRANCH   4  30
ATOM     30  C   UNL     1       3.425   0.101  22.010  0.00  0.00    +0.257 C 
BRANCH  30  32
ATOM     32  C   UNL     1       4.424   0.821  22.895  0.00  0.00    +0.200 C 
BRANCH  32   5
ATOM      5  O   UNL     1       5.571  -0.002  23.067  0.00  0.00    -0.380 OA
ATOM     33  C   UNL     1       5.522  -0.715  24.295  0.00  0.00    +0.194 C 
ENDBRANCH  32   5
ENDBRANCH  30  32
ENDBRANCH   4  30
ENDBRANCH  26   4
ENDBRANCH  17  18
ENDBRANCH  10   7
BRANCH  11   1
ATOM      1  O   UNL     1      -2.809   6.023  24.323  0.00  0.00    -0.390 OA
ATOM     35  H   UNL     1      -3.224   6.849  24.629  0.00  0.00    +0.210 HD
ENDBRANCH  11   1
TORSDOF 9
ENDMDL
MODEL 2
REMARK VINA RESULT:       4.8      1.420      2.086
REMARK  Name = 26742275
REMARK  10 active torsions:
REMARK  status: ('A' for Active; 'I' for Inactive)
REMARK    1  A    between atoms: O_1  and  C_11
REMARK    2  A    between atoms: O_4  and  C_26
REMARK    3  A    between atoms: O_4  and  C_30
REMARK    4  A    between atoms: O_5  and  C_32
REMARK    5  A    between atoms: O_5  and  C_33
REMARK    6  A    between atoms: N_7  and  C_10
REMARK    7  A    between atoms: N_8  and  C_19
REMARK    8  A    between atoms: C_17  and  C_18
REMARK    9  A    between atoms: C_27  and  C_31
REMARK   10  A    between atoms: C_30  and  C_32
REMARK                            x       y       z     vdW  Elec       q    Type
REMARK                         _______ _______ _______ _____ _____    ______ ____
ROOT
ATOM      2  O   UNL     1      -5.727   0.841  25.478  0.00  0.00    -0.252 OA
ATOM      6  N   UNL     1      -4.686   2.787  26.167  0.00  0.00    -0.284 N 
ATOM      8  N   UNL     1      -3.412   0.860  25.671  0.00  0.00    -0.269 N 
ATOM     10  C   UNL     1      -2.927   4.296  25.182  0.00  0.00    +0.119 C 
ATOM     11  C   UNL     1      -3.945   4.805  24.145  0.00  0.00    +0.136 C 
ATOM     12  C   UNL     1      -5.241   5.389  24.715  0.00  0.00    +0.035 C 
ATOM     13  C   UNL     1      -3.504   3.617  26.431  0.00  0.00    +0.134 C 
ATOM     14  C   UNL     1      -6.289   4.325  25.048  0.00  0.00    +0.022 C 
ATOM     15  C   UNL     1      -5.969   3.486  26.278  0.00  0.00    +0.109 C 
ATOM     16  C   UNL     1      -4.680   1.435  25.748  0.00  0.00    +0.307 C 
ATOM     36  H   UNL     1      -2.607   1.436  25.890  0.00  0.00    +0.156 HD
ENDROOT
BRANCH   8  19
ATOM     19  C   UNL     1      -3.078  -0.464  25.288  0.00  0.00    +0.036 A 
ATOM     22  C   UNL     1      -3.950  -1.198  24.482  0.00  0.00    +0.042 A 
ATOM     23  C   UNL     1      -1.880  -1.033  25.717  0.00  0.00    +0.023 A 
ATOM     27  C   UNL     1      -3.621  -2.500  24.106  0.00  0.00    +0.054 A 
ATOM     28  C   UNL     1      -1.551  -2.335  25.340  0.00  0.00    +0.003 A 
ATOM     29  C   UNL     1      -2.422  -3.070  24.534  0.00  0.00    +0.019 A 
BRANCH  27  31
ATOM      9  N   UNL     1      -5.237  -3.864  22.609  0.00  0.00    -0.191 NA
ATOM     31  C   UNL     1      -4.513  -3.253  23.280  0.00  0.00    +0.099 C 
ENDBRANCH  27  31
ENDBRANCH   8  19
BRANCH  10   7
ATOM      3  O   UNL     1      -0.857   2.753  26.437  0.00  0.00    -0.270 OA
ATOM      7  N   UNL     1      -1.976   3.425  24.521  0.00  0.00    -0.305 N 
ATOM     17  C   UNL     1      -1.012   2.721  25.219  0.00  0.00    +0.244 C 
ATOM     34  H   UNL     1      -2.112   3.259  23.529  0.00  0.00    +0.149 HD
BRANCH  17  18
ATOM     18  C   UNL     1      -0.097   1.893  24.393  0.00  0.00    +0.037 A 
ATOM     20  C   UNL     1      -0.579   0.756  23.744  0.00  0.00    +0.016 A 
ATOM     21  C   UNL     1       1.246   2.253  24.265  0.00  0.00    +0.016 A 
ATOM     24  C   UNL     1       0.280  -0.021  22.967  0.00  0.00    +0.046 A 
ATOM     25  C   UNL     1       2.105   1.476  23.489  0.00  0.00    +0.046 A 
ATOM     26  C   UNL     1       1.623   0.339  22.839  0.00  0.00    +0.121 A 
BRANCH  26   4
ATOM      4  O   UNL     1       2.462  -0.420  22.083  0.00  0.00    -0.490 OA
BRANCH   4  30
ATOM     30  C   UNL     1       3.851  -0.369  22.405  0.00  0.00    +0.257 C 
BRANCH  30  32
ATOM     32  C   UNL     1       4.121  -1.292  23.577  0.00  0.00    +0.200 C 
BRANCH  32   5
ATOM      5  O   UNL     1       5.268  -0.828  24.279  0.00  0.00    -0.380 OA
ATOM     33  C   UNL     1       5.618   0.493  23.890  0.00  0.00    +0.194 C 
ENDBRANCH  32   5
ENDBRANCH  30  32
ENDBRANCH   4  30
ENDBRANCH  26   4
ENDBRANCH  17  18
ENDBRANCH  10   7
BRANCH  11   1
ATOM      1  O   UNL     1      -3.313   5.846  23.387  0.00  0.00    -0.390 OA
ATOM     35  H   UNL     1      -2.695   6.309  23.979  0.00  0.00    +0.210 HD
ENDBRANCH  11   1
TORSDOF 9
ENDMDL
MODEL 3
REMARK VINA RESULT:       5.4      2.207      7.139
REMARK  Name = 26742275
REMARK  10 active torsions:
REMARK  status: ('A' for Active; 'I' for Inactive)
REMARK    1  A    between atoms: O_1  and  C_11
REMARK    2  A    between atoms: O_4  and  C_26
REMARK    3  A    between atoms: O_4  and  C_30
REMARK    4  A    between atoms: O_5  and  C_32
REMARK    5  A    between atoms: O_5  and  C_33
REMARK    6  A    between atoms: N_7  and  C_10
REMARK    7  A    between atoms: N_8  and  C_19
REMARK    8  A    between atoms: C_17  and  C_18
REMARK    9  A    between atoms: C_27  and  C_31
REMARK   10  A    between atoms: C_30  and  C_32
REMARK                            x       y       z     vdW  Elec       q    Type
REMARK                         _______ _______ _______ _____ _____    ______ ____
ROOT
ATOM      2  O   UNL     1       1.765  -2.281  25.370  0.00  0.00    -0.252 OA
ATOM      6  N   UNL     1       2.570  -1.507  23.345  0.00  0.00    -0.284 N 
ATOM      8  N   UNL     1       0.273  -1.325  23.869  0.00  0.00    -0.269 N 
ATOM     10  C   UNL     1       2.557   0.721  22.172  0.00  0.00    +0.119 C 
ATOM     11  C   UNL     1       3.594   1.255  23.175  0.00  0.00    +0.136 C 
ATOM     12  C   UNL     1       4.889   0.444  23.291  0.00  0.00    +0.035 C 
ATOM     13  C   UNL     1       2.431  -0.804  22.064  0.00  0.00    +0.134 C 
ATOM     14  C   UNL     1       4.770  -0.756  24.232  0.00  0.00    +0.022 C 
ATOM     15  C   UNL     1       3.938  -1.909  23.685  0.00  0.00    +0.109 C 
ATOM     16  C   UNL     1       1.536  -1.746  24.283  0.00  0.00    +0.307 C 
ATOM     36  H   UNL     1       0.187  -0.873  22.966  0.00  0.00    +0.156 HD
ENDROOT
BRANCH   8  19
ATOM     19  C   UNL     1      -0.953  -1.425  24.575  0.00  0.00    +0.036 A 
ATOM     22  C   UNL     1      -2.072  -1.982  23.956  0.00  0.00    +0.042 A 
ATOM     23  C   UNL     1      -1.040  -0.965  25.889  0.00  0.00    +0.023 A 
ATOM     27  C   UNL     1      -3.277  -2.079  24.651  0.00  0.00    +0.054 A 
ATOM     28  C   UNL     1      -2.245  -1.063  26.584  0.00  0.00    +0.003 A 
ATOM     29  C   UNL     1      -3.364  -1.620  25.965  0.00  0.00    +0.019 A 
BRANCH  27  31
ATOM      9  N   UNL     1      -5.355  -3.114  23.502  0.00  0.00    -0.191 NA
ATOM     31  C   UNL     1      -4.424  -2.650  24.017  0.00  0.00    +0.099 C 
ENDBRANCH  27  31
ENDBRANCH   8  19
BRANCH  10   7
ATOM      3  O   UNL     1       1.564   1.481  24.756  0.00  0.00    -0.270 OA
ATOM      7  N   UNL     1       1.269   1.320  22.462  0.00  0.00    -0.305 N 
ATOM     17  C   UNL     1       0.883   1.652  23.748  0.00  0.00    +0.244 C 
ATOM     34  H   UNL     1       0.697   1.595  21.670  0.00  0.00    +0.149 HD
BRANCH  17  18
ATOM     18  C   UNL     1      -0.478   2.232  23.880  0.00  0.00    +0.037 A 
ATOM     20  C   UNL     1      -0.717   3.244  24.811  0.00  0.00    +0.016 A 
ATOM     21  C   UNL     1      -1.517   1.766  23.074  0.00  0.00    +0.016 A 
ATOM     24  C   UNL     1      -1.994   3.790  24.935  0.00  0.00    +0.046 A 
ATOM     25  C   UNL     1      -2.795   2.311  23.199  0.00  0.00    +0.046 A 
ATOM     26  C   UNL     1      -3.034   3.323  24.129  0.00  0.00    +0.121 A 
BRANCH  26   4
ATOM      4  O   UNL     1      -4.281   3.854  24.250  0.00  0.00    -0.490 OA
BRANCH   4  30
ATOM     30  C   UNL     1      -4.767   4.075  25.574  0.00  0.00    +0.257 C 
BRANCH  30  32
ATOM     32  C   UNL     1      -5.510   2.839  26.040  0.00  0.00    +0.200 C 
BRANCH  32   5
ATOM      5  O   UNL     1      -6.067   2.177  24.910  0.00  0.00    -0.380 OA
ATOM     33  C   UNL     1      -5.646   0.822  24.840  0.00  0.00    +0.194 C 
ENDBRANCH  32   5
ENDBRANCH  30  32
ENDBRANCH   4  30
ENDBRANCH  26   4
ENDBRANCH  17  18
ENDBRANCH  10   7
BRANCH  11   1
ATOM      1  O   UNL     1       3.964   2.578  22.760  0.00  0.00    -0.390 OA
ATOM     35  H   UNL     1       3.707   3.192  23.470  0.00  0.00    +0.210 HD
ENDBRANCH  11   1
TORSDOF 9
ENDMDL
