MODEL 1
REMARK VINA RESULT:      -5.7      0.000      0.000
REMARK  Name = 51137254
REMARK  4 active torsions:
REMARK  status: ('A' for Active; 'I' for Inactive)
REMARK    1  A    between atoms: N_3  and  C_12
REMARK    2  A    between atoms: C_8  and  C_13
REMARK    3  A    between atoms: C_12  and  C_14
REMARK    4  A    between atoms: C_15  and  C_16
REMARK                            x       y       z     vdW  Elec       q    Type
REMARK                         _______ _______ _______ _____ _____    ______ ____
ROOT
ATOM      3  N   UNL     1      -6.742  -8.880   8.735  0.00  0.00    -0.294 NA
ATOM      8  C   UNL     1      -4.625  -9.112   9.717  0.00  0.00    +0.092 C 
ATOM      9  C   UNL     1      -4.717 -10.012   8.472  0.00  0.00    +0.029 C 
ATOM     10  C   UNL     1      -6.079  -8.738  10.034  0.00  0.00    +0.097 C 
ATOM     11  C   UNL     1      -6.206 -10.120   8.172  0.00  0.00    +0.085 C 
ENDROOT
BRANCH   8  13
ATOM      2  O   UNL     1      -4.534  -9.668  12.101  0.00  0.00    -0.420 OA
ATOM      4  N   UNL     1      -2.740 -10.332  10.939  0.00  0.00    -0.112 NA
ATOM      7  N   UNL     1      -2.559 -10.707  12.258  0.00  0.00    -0.107 NA
ATOM     13  C   UNL     1      -3.906  -9.730  10.894  0.00  0.00    +0.222 A 
ATOM     15  C   UNL     1      -3.629 -10.299  12.898  0.00  0.00    +0.248 A 
BRANCH  15  16
ATOM      1 CL   UNL     1      -5.110 -10.773  18.636  0.00  0.00    -0.084 Cl
ATOM     16  C   UNL     1      -3.986 -10.413  14.282  0.00  0.00    +0.039 A 
ATOM     19  C   UNL     1      -5.317 -10.268  14.673  0.00  0.00    +0.014 A 
ATOM     20  C   UNL     1      -3.003 -10.669  15.237  0.00  0.00    +0.014 A 
ATOM     21  C   UNL     1      -5.664 -10.380  16.020  0.00  0.00    +0.021 A 
ATOM     22  C   UNL     1      -3.350 -10.781  16.583  0.00  0.00    +0.021 A 
ATOM     23  C   UNL     1      -4.681 -10.636  16.975  0.00  0.00    +0.041 A 
ENDBRANCH  15  16
ENDBRANCH   8  13
BRANCH   3  12
ATOM     12  C   UNL     1      -8.192  -8.907   8.853  0.00  0.00    +0.158 C 
BRANCH  12  14
ATOM      5  N   UNL     1      -8.038  -6.449   8.388  0.00  0.00    -0.347 N 
ATOM      6  N   UNL     1     -10.023  -7.181   9.064  0.00  0.00    -0.239 NA
ATOM     14  C   UNL     1      -8.786  -7.524   8.780  0.00  0.00    +0.121 A 
ATOM     17  C   UNL     1      -8.849  -5.351   8.425  0.00  0.00    +0.104 A 
ATOM     18  C   UNL     1     -10.068  -5.827   8.844  0.00  0.00    +0.130 A 
ATOM     24  H   UNL     1      -7.063  -6.463   8.119  0.00  0.00    +0.167 HD
ENDBRANCH  12  14
ENDBRANCH   3  12
TORSDOF 4
ENDMDL
MODEL 2
REMARK VINA RESULT:      -4.1     24.731     28.110
REMARK  Name = 51137254
REMARK  4 active torsions:
REMARK  status: ('A' for Active; 'I' for Inactive)
REMARK    1  A    between atoms: N_3  and  C_12
REMARK    2  A    between atoms: C_8  and  C_13
REMARK    3  A    between atoms: C_12  and  C_14
REMARK    4  A    between atoms: C_15  and  C_16
REMARK                            x       y       z     vdW  Elec       q    Type
REMARK                         _______ _______ _______ _____ _____    ______ ____
ROOT
ATOM      3  N   UNL     1      10.962  -8.153  31.681  0.00  0.00    -0.294 NA
ATOM      8  C   UNL     1      12.920  -7.361  30.663  0.00  0.00    +0.092 C 
ATOM      9  C   UNL     1      12.905  -8.899  30.623  0.00  0.00    +0.029 C 
ATOM     10  C   UNL     1      11.850  -6.988  31.698  0.00  0.00    +0.097 C 
ATOM     11  C   UNL     1      11.857  -9.310  31.650  0.00  0.00    +0.085 C 
ENDROOT
BRANCH   8  13
ATOM      2  O   UNL     1      14.332  -5.387  30.997  0.00  0.00    -0.420 OA
ATOM      4  N   UNL     1      15.419  -7.332  31.203  0.00  0.00    -0.112 NA
ATOM      7  N   UNL     1      16.326  -6.310  31.414  0.00  0.00    -0.107 NA
ATOM     13  C   UNL     1      14.268  -6.746  30.963  0.00  0.00    +0.222 A 
ATOM     15  C   UNL     1      15.648  -5.195  31.284  0.00  0.00    +0.248 A 
BRANCH  15  16
ATOM      1 CL   UNL     1      17.405   0.466  31.747  0.00  0.00    -0.084 Cl
ATOM     16  C   UNL     1      16.072  -3.829  31.396  0.00  0.00    +0.039 A 
ATOM     19  C   UNL     1      16.286  -3.069  30.246  0.00  0.00    +0.014 A 
ATOM     20  C   UNL     1      16.270  -3.261  32.655  0.00  0.00    +0.014 A 
ATOM     21  C   UNL     1      16.698  -1.741  30.355  0.00  0.00    +0.021 A 
ATOM     22  C   UNL     1      16.682  -1.933  32.763  0.00  0.00    +0.021 A 
ATOM     23  C   UNL     1      16.896  -1.172  31.614  0.00  0.00    +0.041 A 
ENDBRANCH  15  16
ENDBRANCH   8  13
BRANCH   3  12
ATOM     12  C   UNL     1      10.061  -8.180  32.823  0.00  0.00    +0.158 C 
BRANCH  12  14
ATOM      5  N   UNL     1       7.644  -7.531  32.713  0.00  0.00    -0.347 N 
ATOM      6  N   UNL     1       8.172  -9.455  31.737  0.00  0.00    -0.239 NA
ATOM     14  C   UNL     1       8.634  -8.422  32.407  0.00  0.00    +0.121 A 
ATOM     17  C   UNL     1       6.476  -8.027  32.206  0.00  0.00    +0.104 A 
ATOM     18  C   UNL     1       6.828  -9.214  31.608  0.00  0.00    +0.130 A 
ATOM     24  H   UNL     1       7.753  -6.663  33.221  0.00  0.00    +0.167 HD
ENDBRANCH  12  14
ENDBRANCH   3  12
TORSDOF 4
ENDMDL
MODEL 3
REMARK VINA RESULT:      -3.8      2.107      2.596
REMARK  Name = 51137254
REMARK  4 active torsions:
REMARK  status: ('A' for Active; 'I' for Inactive)
REMARK    1  A    between atoms: N_3  and  C_12
REMARK    2  A    between atoms: C_8  and  C_13
REMARK    3  A    between atoms: C_12  and  C_14
REMARK    4  A    between atoms: C_15  and  C_16
REMARK                            x       y       z     vdW  Elec       q    Type
REMARK                         _______ _______ _______ _____ _____    ______ ____
ROOT
ATOM      3  N   UNL     1      -8.010  -9.113   9.344  0.00  0.00    -0.294 NA
ATOM      8  C   UNL     1      -5.905  -9.139  10.377  0.00  0.00    +0.092 C 
ATOM      9  C   UNL     1      -5.834  -9.903   9.043  0.00  0.00    +0.029 C 
ATOM     10  C   UNL     1      -7.405  -9.017  10.675  0.00  0.00    +0.097 C 
ATOM     11  C   UNL     1      -7.284 -10.193   8.677  0.00  0.00    +0.085 C 
ENDROOT
BRANCH   8  13
ATOM      2  O   UNL     1      -5.669  -9.668  12.757  0.00  0.00    -0.420 OA
ATOM      4  N   UNL     1      -3.987 -10.415  11.484  0.00  0.00    -0.112 NA
ATOM      7  N   UNL     1      -3.728 -10.780  12.793  0.00  0.00    -0.107 NA
ATOM     13  C   UNL     1      -5.129  -9.769  11.511  0.00  0.00    +0.222 A 
ATOM     15  C   UNL     1      -4.735 -10.324  13.499  0.00  0.00    +0.248 A 
BRANCH  15  16
ATOM      1 CL   UNL     1      -5.829 -10.669  19.332  0.00  0.00    -0.084 Cl
ATOM     16  C   UNL     1      -4.999 -10.407  14.906  0.00  0.00    +0.039 A 
ATOM     19  C   UNL     1      -6.296 -10.223  15.384  0.00  0.00    +0.014 A 
ATOM     20  C   UNL     1      -3.959 -10.672  15.797  0.00  0.00    +0.014 A 
ATOM     21  C   UNL     1      -6.553 -10.305  16.753  0.00  0.00    +0.021 A 
ATOM     22  C   UNL     1      -4.215 -10.754  17.165  0.00  0.00    +0.021 A 
ATOM     23  C   UNL     1      -5.512 -10.570  17.644  0.00  0.00    +0.041 A 
ENDBRANCH  15  16
ENDBRANCH   8  13
BRANCH   3  12
ATOM     12  C   UNL     1      -9.442  -9.362   9.403  0.00  0.00    +0.158 C 
BRANCH  12  14
ATOM      5  N   UNL     1      -9.817 -10.781  11.434  0.00  0.00    -0.347 N 
ATOM      6  N   UNL     1     -10.462  -8.662  11.604  0.00  0.00    -0.239 NA
ATOM     14  C   UNL     1      -9.918  -9.565  10.818  0.00  0.00    +0.121 A 
ATOM     17  C   UNL     1     -10.328 -10.645  12.694  0.00  0.00    +0.104 A 
ATOM     18  C   UNL     1     -10.719  -9.330  12.775  0.00  0.00    +0.130 A 
ATOM     24  H   UNL     1      -9.433 -11.626  11.034  0.00  0.00    +0.167 HD
ENDBRANCH  12  14
ENDBRANCH   3  12
TORSDOF 4
ENDMDL
MODEL 4
REMARK VINA RESULT:      -3.4     24.152     27.315
REMARK  Name = 51137254
REMARK  4 active torsions:
REMARK  status: ('A' for Active; 'I' for Inactive)
REMARK    1  A    between atoms: N_3  and  C_12
REMARK    2  A    between atoms: C_8  and  C_13
REMARK    3  A    between atoms: C_12  and  C_14
REMARK    4  A    between atoms: C_15  and  C_16
REMARK                            x       y       z     vdW  Elec       q    Type
REMARK                         _______ _______ _______ _____ _____    ______ ____
ROOT
ATOM      3  N   UNL     1      10.994  -9.997  32.029  0.00  0.00    -0.294 NA
ATOM      8  C   UNL     1      12.854  -9.844  30.609  0.00  0.00    +0.092 C 
ATOM      9  C   UNL     1      13.222 -10.673  31.853  0.00  0.00    +0.029 C 
ATOM     10  C   UNL     1      11.553  -9.126  30.992  0.00  0.00    +0.097 C 
ATOM     11  C   UNL     1      12.134 -10.359  32.872  0.00  0.00    +0.085 C 
ENDROOT
BRANCH   8  13
ATOM      2  O   UNL     1      13.966  -7.664  30.716  0.00  0.00    -0.420 OA
ATOM      4  N   UNL     1      14.866  -9.077  29.232  0.00  0.00    -0.112 NA
ATOM      7  N   UNL     1      15.585  -7.896  29.189  0.00  0.00    -0.107 NA
ATOM     13  C   UNL     1      13.932  -8.896  30.137  0.00  0.00    +0.222 A 
ATOM     15  C   UNL     1      15.024  -7.102  30.071  0.00  0.00    +0.248 A 
BRANCH  15  16
ATOM      1 CL   UNL     1      16.369  -1.531  31.651  0.00  0.00    -0.084 Cl
ATOM     16  C   UNL     1      15.349  -5.758  30.452  0.00  0.00    +0.039 A 
ATOM     19  C   UNL     1      14.568  -5.094  31.398  0.00  0.00    +0.014 A 
ATOM     20  C   UNL     1      16.445  -5.115  29.877  0.00  0.00    +0.014 A 
ATOM     21  C   UNL     1      14.884  -3.787  31.769  0.00  0.00    +0.021 A 
ATOM     22  C   UNL     1      16.760  -3.808  30.248  0.00  0.00    +0.021 A 
ATOM     23  C   UNL     1      15.980  -3.144  31.194  0.00  0.00    +0.041 A 
ENDBRANCH  15  16
ENDBRANCH   8  13
BRANCH   3  12
ATOM     12  C   UNL     1       9.931  -9.349  32.783  0.00  0.00    +0.158 C 
BRANCH  12  14
ATOM      5  N   UNL     1       7.898  -8.166  31.919  0.00  0.00    -0.347 N 
ATOM      6  N   UNL     1       8.079 -10.308  31.361  0.00  0.00    -0.239 NA
ATOM     14  C   UNL     1       8.638  -9.311  32.010  0.00  0.00    +0.121 A 
ATOM     17  C   UNL     1       6.796  -8.450  31.163  0.00  0.00    +0.104 A 
ATOM     18  C   UNL     1       6.930  -9.777  30.830  0.00  0.00    +0.130 A 
ATOM     24  H   UNL     1       8.123  -7.271  32.334  0.00  0.00    +0.167 HD
ENDBRANCH  12  14
ENDBRANCH   3  12
TORSDOF 4
ENDMDL
MODEL 5
REMARK VINA RESULT:      -3.4      3.823      4.574
REMARK  Name = 51137254
REMARK  4 active torsions:
REMARK  status: ('A' for Active; 'I' for Inactive)
REMARK    1  A    between atoms: N_3  and  C_12
REMARK    2  A    between atoms: C_8  and  C_13
REMARK    3  A    between atoms: C_12  and  C_14
REMARK    4  A    between atoms: C_15  and  C_16
REMARK                            x       y       z     vdW  Elec       q    Type
REMARK                         _______ _______ _______ _____ _____    ______ ____
ROOT
ATOM      3  N   UNL     1      -6.950  -9.260   8.886  0.00  0.00    -0.294 NA
ATOM      8  C   UNL     1      -4.623  -9.435   9.121  0.00  0.00    +0.092 C 
ATOM      9  C   UNL     1      -5.168 -10.698   8.433  0.00  0.00    +0.029 C 
ATOM     10  C   UNL     1      -5.860  -8.759   9.727  0.00  0.00    +0.097 C 
ATOM     11  C   UNL     1      -6.666 -10.684   8.709  0.00  0.00    +0.085 C 
ENDROOT
BRANCH   8  13
ATOM      2  O   UNL     1      -2.448  -8.863  10.091  0.00  0.00    -0.420 OA
ATOM      4  N   UNL     1      -3.463 -10.594  11.082  0.00  0.00    -0.112 NA
ATOM      7  N   UNL     1      -2.257 -10.381  11.723  0.00  0.00    -0.107 NA
ATOM     13  C   UNL     1      -3.533  -9.685  10.137  0.00  0.00    +0.222 A 
ATOM     15  C   UNL     1      -1.699  -9.362  11.112  0.00  0.00    +0.248 A 
BRANCH  15  16
ATOM      1 CL   UNL     1       3.495  -6.643  12.097  0.00  0.00    -0.084 Cl
ATOM     16  C   UNL     1      -0.446  -8.707  11.350  0.00  0.00    +0.039 A 
ATOM     19  C   UNL     1      -0.343  -7.742  12.353  0.00  0.00    +0.014 A 
ATOM     20  C   UNL     1       0.669  -9.032  10.578  0.00  0.00    +0.014 A 
ATOM     21  C   UNL     1       0.876  -7.105  12.584  0.00  0.00    +0.021 A 
ATOM     22  C   UNL     1       1.887  -8.395  10.809  0.00  0.00    +0.021 A 
ATOM     23  C   UNL     1       1.992  -7.431  11.812  0.00  0.00    +0.041 A 
ENDBRANCH  15  16
ENDBRANCH   8  13
BRANCH   3  12
ATOM     12  C   UNL     1      -8.259  -9.025   9.476  0.00  0.00    +0.158 C 
BRANCH  12  14
ATOM      5  N   UNL     1     -10.129  -7.363   9.340  0.00  0.00    -0.347 N 
ATOM      6  N   UNL     1      -8.223  -6.752   8.378  0.00  0.00    -0.239 NA
ATOM     14  C   UNL     1      -8.838  -7.701   9.048  0.00  0.00    +0.121 A 
ATOM     17  C   UNL     1     -10.353  -6.118   8.824  0.00  0.00    +0.104 A 
ATOM     18  C   UNL     1      -9.162  -5.762   8.236  0.00  0.00    +0.130 A 
ATOM     24  H   UNL     1     -10.798  -7.928   9.847  0.00  0.00    +0.167 HD
ENDBRANCH  12  14
ENDBRANCH   3  12
TORSDOF 4
ENDMDL
MODEL 6
REMARK VINA RESULT:      -2.9     25.256     27.368
REMARK  Name = 51137254
REMARK  4 active torsions:
REMARK  status: ('A' for Active; 'I' for Inactive)
REMARK    1  A    between atoms: N_3  and  C_12
REMARK    2  A    between atoms: C_8  and  C_13
REMARK    3  A    between atoms: C_12  and  C_14
REMARK    4  A    between atoms: C_15  and  C_16
REMARK                            x       y       z     vdW  Elec       q    Type
REMARK                         _______ _______ _______ _____ _____    ______ ____
ROOT
ATOM      3  N   UNL     1      12.301  -9.115  32.060  0.00  0.00    -0.294 NA
ATOM      8  C   UNL     1      14.094  -9.095  30.548  0.00  0.00    +0.092 C 
ATOM      9  C   UNL     1      14.511  -9.834  31.832  0.00  0.00    +0.029 C 
ATOM     10  C   UNL     1      12.820  -8.332  30.935  0.00  0.00    +0.097 C 
ATOM     11  C   UNL     1      13.476  -9.430  32.873  0.00  0.00    +0.085 C 
ENDROOT
BRANCH   8  13
ATOM      2  O   UNL     1      15.156  -8.050  28.604  0.00  0.00    -0.420 OA
ATOM      4  N   UNL     1      16.112  -7.526  30.557  0.00  0.00    -0.112 NA
ATOM      7  N   UNL     1      16.804  -6.874  29.553  0.00  0.00    -0.107 NA
ATOM     13  C   UNL     1      15.159  -8.200  29.957  0.00  0.00    +0.222 A 
ATOM     15  C   UNL     1      16.212  -7.209  28.432  0.00  0.00    +0.248 A 
BRANCH  15  16
ATOM      1 CL   UNL     1      17.405  -5.650  22.821  0.00  0.00    -0.084 Cl
ATOM     16  C   UNL     1      16.500  -6.833  27.078  0.00  0.00    +0.039 A 
ATOM     19  C   UNL     1      16.409  -7.779  26.057  0.00  0.00    +0.014 A 
ATOM     20  C   UNL     1      16.871  -5.521  26.782  0.00  0.00    +0.014 A 
ATOM     21  C   UNL     1      16.688  -7.413  24.741  0.00  0.00    +0.021 A 
ATOM     22  C   UNL     1      17.150  -5.155  25.466  0.00  0.00    +0.021 A 
ATOM     23  C   UNL     1      17.059  -6.101  24.445  0.00  0.00    +0.041 A 
ENDBRANCH  15  16
ENDBRANCH   8  13
BRANCH   3  12
ATOM     12  C   UNL     1      11.283  -8.398  32.811  0.00  0.00    +0.158 C 
BRANCH  12  14
ATOM      5  N   UNL     1       9.665 -10.088  31.916  0.00  0.00    -0.347 N 
ATOM      6  N   UNL     1       8.781  -8.159  32.571  0.00  0.00    -0.239 NA
ATOM     14  C   UNL     1       9.893  -8.849  32.444  0.00  0.00    +0.121 A 
ATOM     17  C   UNL     1       8.321 -10.197  31.692  0.00  0.00    +0.104 A 
ATOM     18  C   UNL     1       7.798  -8.995  32.104  0.00  0.00    +0.130 A 
ATOM     24  H   UNL     1      10.361 -10.798  31.726  0.00  0.00    +0.167 HD
ENDBRANCH  12  14
ENDBRANCH   3  12
TORSDOF 4
ENDMDL
MODEL 7
REMARK VINA RESULT:      -2.7     27.153     28.908
REMARK  Name = 51137254
REMARK  4 active torsions:
REMARK  status: ('A' for Active; 'I' for Inactive)
REMARK    1  A    between atoms: N_3  and  C_12
REMARK    2  A    between atoms: C_8  and  C_13
REMARK    3  A    between atoms: C_12  and  C_14
REMARK    4  A    between atoms: C_15  and  C_16
REMARK                            x       y       z     vdW  Elec       q    Type
REMARK                         _______ _______ _______ _____ _____    ______ ____
ROOT
ATOM      3  N   UNL     1      14.285  -9.908  30.587  0.00  0.00    -0.294 NA
ATOM      8  C   UNL     1      16.047  -8.641  29.695  0.00  0.00    +0.092 C 
ATOM      9  C   UNL     1      16.352  -8.988  31.163  0.00  0.00    +0.029 C 
ATOM     10  C   UNL     1      14.547  -8.922  29.534  0.00  0.00    +0.097 C 
ATOM     11  C   UNL     1      15.015  -9.414  31.755  0.00  0.00    +0.085 C 
ENDROOT
BRANCH   8  13
ATOM      2  O   UNL     1      16.313  -6.264  30.222  0.00  0.00    -0.420 OA
ATOM      4  N   UNL     1      16.872  -6.802  28.124  0.00  0.00    -0.112 NA
ATOM      7  N   UNL     1      17.070  -5.443  28.284  0.00  0.00    -0.107 NA
ATOM     13  C   UNL     1      16.431  -7.240  29.280  0.00  0.00    +0.222 A 
ATOM     15  C   UNL     1      16.731  -5.174  29.523  0.00  0.00    +0.248 A 
BRANCH  15  16
ATOM      1 CL   UNL     1      16.737  -0.025  32.494  0.00  0.00    -0.084 Cl
ATOM     16  C   UNL     1      16.732  -3.932  30.240  0.00  0.00    +0.039 A 
ATOM     19  C   UNL     1      17.398  -2.825  29.714  0.00  0.00    +0.014 A 
ATOM     20  C   UNL     1      16.069  -3.831  31.462  0.00  0.00    +0.014 A 
ATOM     21  C   UNL     1      17.398  -1.616  30.411  0.00  0.00    +0.021 A 
ATOM     22  C   UNL     1      16.069  -2.623  32.159  0.00  0.00    +0.021 A 
ATOM     23  C   UNL     1      16.735  -1.515  31.634  0.00  0.00    +0.041 A 
ENDBRANCH  15  16
ENDBRANCH   8  13
BRANCH   3  12
ATOM     12  C   UNL     1      12.864 -10.073  30.850  0.00  0.00    +0.158 C 
BRANCH  12  14
ATOM      5  N   UNL     1      12.148  -7.672  30.846  0.00  0.00    -0.347 N 
ATOM      6  N   UNL     1      11.824  -8.772  32.748  0.00  0.00    -0.239 NA
ATOM     14  C   UNL     1      12.272  -8.857  31.514  0.00  0.00    +0.121 A 
ATOM     17  C   UNL     1      11.584  -6.773  31.707  0.00  0.00    +0.104 A 
ATOM     18  C   UNL     1      11.394  -7.475  32.873  0.00  0.00    +0.130 A 
ATOM     24  H   UNL     1      12.421  -7.491  29.889  0.00  0.00    +0.167 HD
ENDBRANCH  12  14
ENDBRANCH   3  12
TORSDOF 4
ENDMDL
MODEL 8
REMARK VINA RESULT:      -2.4     26.549     28.211
REMARK  Name = 51137254
REMARK  4 active torsions:
REMARK  status: ('A' for Active; 'I' for Inactive)
REMARK    1  A    between atoms: N_3  and  C_12
REMARK    2  A    between atoms: C_8  and  C_13
REMARK    3  A    between atoms: C_12  and  C_14
REMARK    4  A    between atoms: C_15  and  C_16
REMARK                            x       y       z     vdW  Elec       q    Type
REMARK                         _______ _______ _______ _____ _____    ______ ____
ROOT
ATOM      3  N   UNL     1      13.746  -6.947  30.726  0.00  0.00    -0.294 NA
ATOM      8  C   UNL     1      15.802  -6.011  30.093  0.00  0.00    +0.092 C 
ATOM      9  C   UNL     1      15.636  -5.909  31.620  0.00  0.00    +0.029 C 
ATOM     10  C   UNL     1      14.392  -6.319  29.570  0.00  0.00    +0.097 C 
ATOM     11  C   UNL     1      14.151  -6.134  31.872  0.00  0.00    +0.085 C 
ENDROOT
BRANCH   8  13
ATOM      2  O   UNL     1      16.345  -4.724  28.082  0.00  0.00    -0.420 OA
ATOM      4  N   UNL     1      17.035  -3.775  29.986  0.00  0.00    -0.112 NA
ATOM      7  N   UNL     1      17.403  -2.950  28.939  0.00  0.00    -0.107 NA
ATOM     13  C   UNL     1      16.420  -4.798  29.439  0.00  0.00    +0.222 A 
ATOM     15  C   UNL     1      16.980  -3.544  27.848  0.00  0.00    +0.248 A 
BRANCH  15  16
ATOM      1 CL   UNL     1      17.405  -1.902  22.151  0.00  0.00    -0.084 Cl
ATOM     16  C   UNL     1      17.083  -3.148  26.474  0.00  0.00    +0.039 A 
ATOM     19  C   UNL     1      17.048  -1.795  26.134  0.00  0.00    +0.014 A 
ATOM     20  C   UNL     1      17.217  -4.114  25.477  0.00  0.00    +0.014 A 
ATOM     21  C   UNL     1      17.149  -1.411  24.796  0.00  0.00    +0.021 A 
ATOM     22  C   UNL     1      17.317  -3.729  24.141  0.00  0.00    +0.021 A 
ATOM     23  C   UNL     1      17.283  -2.377  23.800  0.00  0.00    +0.041 A 
ENDBRANCH  15  16
ENDBRANCH   8  13
BRANCH   3  12
ATOM     12  C   UNL     1      12.300  -7.019  30.581  0.00  0.00    +0.158 C 
BRANCH  12  14
ATOM      5  N   UNL     1      10.389  -8.042  31.838  0.00  0.00    -0.347 N 
ATOM      6  N   UNL     1      12.317  -9.138  31.953  0.00  0.00    -0.239 NA
ATOM     14  C   UNL     1      11.701  -8.087  31.459  0.00  0.00    +0.121 A 
ATOM     17  C   UNL     1      10.151  -9.135  32.622  0.00  0.00    +0.104 A 
ATOM     18  C   UNL     1      11.355  -9.796  32.678  0.00  0.00    +0.130 A 
ATOM     24  H   UNL     1       9.715  -7.332  31.584  0.00  0.00    +0.167 HD
ENDBRANCH  12  14
ENDBRANCH   3  12
TORSDOF 4
ENDMDL
