MODEL 1
REMARK VINA RESULT:      -1.1      0.000      0.000
REMARK  Name = 25313352
REMARK  8 active torsions:
REMARK  status: ('A' for Active; 'I' for Inactive)
REMARK    1  A    between atoms: O_3  and  C_21
REMARK    2  A    between atoms: N_6  and  C_14
REMARK    3  A    between atoms: N_7  and  C_22
REMARK    4  A    between atoms: C_8  and  C_11
REMARK    5  A    between atoms: C_9  and  C_15
REMARK    6  A    between atoms: C_11  and  C_14
REMARK    7  A    between atoms: C_15  and  C_21
REMARK    8  A    between atoms: C_20  and  C_23
REMARK                            x       y       z     vdW  Elec       q    Type
REMARK                         _______ _______ _______ _____ _____    ______ ____
ROOT
ATOM     11  C   UNL     1      -2.566   1.049  24.768  0.00  0.00    +0.020 C 
ENDROOT
BRANCH  11   8
ATOM      2  O   UNL     1      -6.415   2.885  26.888  0.00  0.00    -0.276 OA
ATOM      5  N   UNL     1      -4.899   3.049  25.135  0.00  0.00    -0.301 N 
ATOM      8  C   UNL     1      -2.836   2.321  23.956  0.00  0.00    +0.011 C 
ATOM      9  C   UNL     1      -2.122   3.582  24.506  0.00  0.00    +0.006 C 
ATOM     10  C   UNL     1      -4.350   2.580  23.856  0.00  0.00    +0.111 C 
ATOM     12  C   UNL     1      -2.760   4.067  25.819  0.00  0.00    +0.023 C 
ATOM     13  C   UNL     1      -4.267   4.257  25.665  0.00  0.00    +0.108 C 
ATOM     20  C   UNL     1      -5.954   2.456  25.826  0.00  0.00    +0.212 C 
ATOM     23  C   UNL     1      -6.549   1.213  25.215  0.00  0.00    +0.109 C 
BRANCH   9  15
ATOM     15  C   UNL     1      -0.615   3.392  24.678  0.00  0.00    +0.124 C 
BRANCH  15  21
ATOM      4  O   UNL     1      -0.924   2.825  27.028  0.00  0.00    -0.251 OA
ATOM     21  C   UNL     1      -0.284   2.739  25.991  0.00  0.00    +0.305 C 
BRANCH  21   3
ATOM      3  O   UNL     1       0.860   2.017  25.868  0.00  0.00    -0.481 OA
ATOM     29  H   UNL     1       0.678   1.081  25.640  0.00  0.00    +0.295 HD
ENDBRANCH  21   3
ENDBRANCH  15  21
ENDBRANCH   9  15
ENDBRANCH  11   8
BRANCH  11  14
ATOM     14  C   UNL     1      -2.587  -0.181  23.872  0.00  0.00    +0.085 C 
BRANCH  14   6
ATOM      6  N   UNL     1      -1.218  -0.566  23.525  0.00  0.00    -0.299 NA
ATOM      7  N   UNL     1       1.630  -0.349  23.521  0.00  0.00    -0.327 N 
ATOM     16  C   UNL     1      -0.448  -0.875  24.736  0.00  0.00    +0.103 C 
ATOM     17  C   UNL     1      -0.557   0.507  22.772  0.00  0.00    +0.103 C 
ATOM     18  C   UNL     1       0.969  -1.334  24.383  0.00  0.00    +0.120 C 
ATOM     19  C   UNL     1       0.856   0.094  22.355  0.00  0.00    +0.120 C 
BRANCH   7  22
ATOM      1  F   UNL     1       7.145  -0.280  23.158  0.00  0.00    -0.205 F 
ATOM     22  C   UNL     1       3.025  -0.332  23.429  0.00  0.00    +0.030 A 
ATOM     24  C   UNL     1       3.675   0.779  22.892  0.00  0.00    +0.026 A 
ATOM     25  C   UNL     1       3.768  -1.426  23.876  0.00  0.00    +0.026 A 
ATOM     26  C   UNL     1       5.066   0.797  22.801  0.00  0.00    +0.040 A 
ATOM     27  C   UNL     1       5.160  -1.408  23.784  0.00  0.00    +0.040 A 
ATOM     28  C   UNL     1       5.809  -0.297  23.247  0.00  0.00    +0.124 A 
ENDBRANCH   7  22
ENDBRANCH  14   6
ENDBRANCH  11  14
TORSDOF 7
ENDMDL
MODEL 2
REMARK VINA RESULT:      -1.1      1.454      3.521
REMARK  Name = 25313352
REMARK  8 active torsions:
REMARK  status: ('A' for Active; 'I' for Inactive)
REMARK    1  A    between atoms: O_3  and  C_21
REMARK    2  A    between atoms: N_6  and  C_14
REMARK    3  A    between atoms: N_7  and  C_22
REMARK    4  A    between atoms: C_8  and  C_11
REMARK    5  A    between atoms: C_9  and  C_15
REMARK    6  A    between atoms: C_11  and  C_14
REMARK    7  A    between atoms: C_15  and  C_21
REMARK    8  A    between atoms: C_20  and  C_23
REMARK                            x       y       z     vdW  Elec       q    Type
REMARK                         _______ _______ _______ _____ _____    ______ ____
ROOT
ATOM     11  C   UNL     1      -3.262   1.630  24.120  0.00  0.00    +0.020 C 
ENDROOT
BRANCH  11   8
ATOM      2  O   UNL     1      -0.002   5.101  24.143  0.00  0.00    -0.276 OA
ATOM      5  N   UNL     1      -1.614   3.942  25.350  0.00  0.00    -0.301 N 
ATOM      8  C   UNL     1      -3.441   2.265  25.504  0.00  0.00    +0.011 C 
ATOM      9  C   UNL     1      -4.460   3.433  25.533  0.00  0.00    +0.006 C 
ATOM     10  C   UNL     1      -2.085   2.742  26.053  0.00  0.00    +0.111 C 
ATOM     12  C   UNL     1      -3.907   4.684  24.830  0.00  0.00    +0.023 C 
ATOM     13  C   UNL     1      -2.540   5.074  25.386  0.00  0.00    +0.108 C 
ATOM     20  C   UNL     1      -0.385   4.072  24.706  0.00  0.00    +0.212 C 
ATOM     23  C   UNL     1       0.511   2.859  24.710  0.00  0.00    +0.109 C 
BRANCH   9  15
ATOM     15  C   UNL     1      -5.826   3.053  24.961  0.00  0.00    +0.124 C 
BRANCH  15  21
ATOM      4  O   UNL     1      -6.453   0.698  24.922  0.00  0.00    -0.251 OA
ATOM     21  C   UNL     1      -6.322   1.751  25.527  0.00  0.00    +0.305 C 
BRANCH  21   3
ATOM      3  O   UNL     1      -6.617   1.907  26.844  0.00  0.00    -0.481 OA
ATOM     29  H   UNL     1      -5.940   1.496  27.421  0.00  0.00    +0.295 HD
ENDBRANCH  21   3
ENDBRANCH  15  21
ENDBRANCH   9  15
ENDBRANCH  11   8
BRANCH  11  14
ATOM     14  C   UNL     1      -3.141   0.116  24.230  0.00  0.00    +0.085 C 
BRANCH  14   6
ATOM      6  N   UNL     1      -1.806  -0.307  23.804  0.00  0.00    -0.299 NA
ATOM      7  N   UNL     1       1.042  -0.170  23.632  0.00  0.00    -0.327 N 
ATOM     16  C   UNL     1      -0.975  -0.636  24.968  0.00  0.00    +0.103 C 
ATOM     17  C   UNL     1      -1.161   0.746  23.011  0.00  0.00    +0.103 C 
ATOM     18  C   UNL     1       0.406  -1.135  24.534  0.00  0.00    +0.120 C 
ATOM     19  C   UNL     1       0.213   0.292  22.512  0.00  0.00    +0.120 C 
BRANCH   7  22
ATOM      1  F   UNL     1       6.526  -0.257  22.944  0.00  0.00    -0.205 F 
ATOM     22  C   UNL     1       2.429  -0.193  23.458  0.00  0.00    +0.030 A 
ATOM     24  C   UNL     1       3.081   0.912  22.910  0.00  0.00    +0.026 A 
ATOM     25  C   UNL     1       3.162  -1.319  23.833  0.00  0.00    +0.026 A 
ATOM     26  C   UNL     1       4.464   0.891  22.737  0.00  0.00    +0.040 A 
ATOM     27  C   UNL     1       4.546  -1.341  23.659  0.00  0.00    +0.040 A 
ATOM     28  C   UNL     1       5.197  -0.236  23.112  0.00  0.00    +0.124 A 
ENDBRANCH   7  22
ENDBRANCH  14   6
ENDBRANCH  11  14
TORSDOF 7
ENDMDL
MODEL 3
REMARK VINA RESULT:      -0.9      2.110      3.173
REMARK  Name = 25313352
REMARK  8 active torsions:
REMARK  status: ('A' for Active; 'I' for Inactive)
REMARK    1  A    between atoms: O_3  and  C_21
REMARK    2  A    between atoms: N_6  and  C_14
REMARK    3  A    between atoms: N_7  and  C_22
REMARK    4  A    between atoms: C_8  and  C_11
REMARK    5  A    between atoms: C_9  and  C_15
REMARK    6  A    between atoms: C_11  and  C_14
REMARK    7  A    between atoms: C_15  and  C_21
REMARK    8  A    between atoms: C_20  and  C_23
REMARK                            x       y       z     vdW  Elec       q    Type
REMARK                         _______ _______ _______ _____ _____    ______ ____
ROOT
ATOM     11  C   UNL     1      -3.502   1.342  23.161  0.00  0.00    +0.020 C 
ENDROOT
BRANCH  11   8
ATOM      2  O   UNL     1      -6.220   4.422  25.572  0.00  0.00    -0.276 OA
ATOM      5  N   UNL     1      -4.681   2.684  25.688  0.00  0.00    -0.301 N 
ATOM      8  C   UNL     1      -3.293   0.922  24.620  0.00  0.00    +0.011 C 
ATOM      9  C   UNL     1      -4.311  -0.133  25.124  0.00  0.00    +0.006 C 
ATOM     10  C   UNL     1      -3.320   2.155  25.541  0.00  0.00    +0.111 C 
ATOM     12  C   UNL     1      -5.711   0.476  25.310  0.00  0.00    +0.023 C 
ATOM     13  C   UNL     1      -5.661   1.721  26.192  0.00  0.00    +0.108 C 
ATOM     20  C   UNL     1      -5.073   3.994  25.415  0.00  0.00    +0.212 C 
ATOM     23  C   UNL     1      -4.005   4.924  24.897  0.00  0.00    +0.109 C 
BRANCH   9  15
ATOM     15  C   UNL     1      -4.378  -1.375  24.236  0.00  0.00    +0.124 C 
BRANCH  15  21
ATOM      4  O   UNL     1      -2.088  -2.180  24.008  0.00  0.00    -0.251 OA
ATOM     21  C   UNL     1      -3.211  -2.294  24.476  0.00  0.00    +0.305 C 
BRANCH  21   3
ATOM      3  O   UNL     1      -3.585  -3.300  25.308  0.00  0.00    -0.481 OA
ATOM     29  H   UNL     1      -4.512  -3.577  25.153  0.00  0.00    +0.295 HD
ENDBRANCH  21   3
ENDBRANCH  15  21
ENDBRANCH   9  15
ENDBRANCH  11   8
BRANCH  11  14
ATOM     14  C   UNL     1      -2.261   2.031  22.611  0.00  0.00    +0.085 C 
BRANCH  14   6
ATOM      6  N   UNL     1      -1.059   1.380  23.135  0.00  0.00    -0.299 NA
ATOM      7  N   UNL     1       1.713   0.695  23.209  0.00  0.00    -0.327 N 
ATOM     16  C   UNL     1      -0.056   2.382  23.516  0.00  0.00    +0.103 C 
ATOM     17  C   UNL     1      -0.495   0.463  22.137  0.00  0.00    +0.103 C 
ATOM     18  C   UNL     1       1.184   1.716  24.119  0.00  0.00    +0.120 C 
ATOM     19  C   UNL     1       0.730  -0.266  22.694  0.00  0.00    +0.120 C 
BRANCH   7  22
ATOM      1  F   UNL     1       6.961  -0.967  23.705  0.00  0.00    -0.205 F 
ATOM     22  C   UNL     1       3.040   0.274  23.335  0.00  0.00    +0.030 A 
ATOM     24  C   UNL     1       4.081   1.175  23.113  0.00  0.00    +0.026 A 
ATOM     25  C   UNL     1       3.324  -1.047  23.682  0.00  0.00    +0.026 A 
ATOM     26  C   UNL     1       5.405   0.757  23.238  0.00  0.00    +0.040 A 
ATOM     27  C   UNL     1       4.650  -1.466  23.808  0.00  0.00    +0.040 A 
ATOM     28  C   UNL     1       5.689  -0.564  23.586  0.00  0.00    +0.124 A 
ENDBRANCH   7  22
ENDBRANCH  14   6
ENDBRANCH  11  14
TORSDOF 7
ENDMDL
MODEL 4
REMARK VINA RESULT:      -0.5      1.913      3.871
REMARK  Name = 25313352
REMARK  8 active torsions:
REMARK  status: ('A' for Active; 'I' for Inactive)
REMARK    1  A    between atoms: O_3  and  C_21
REMARK    2  A    between atoms: N_6  and  C_14
REMARK    3  A    between atoms: N_7  and  C_22
REMARK    4  A    between atoms: C_8  and  C_11
REMARK    5  A    between atoms: C_9  and  C_15
REMARK    6  A    between atoms: C_11  and  C_14
REMARK    7  A    between atoms: C_15  and  C_21
REMARK    8  A    between atoms: C_20  and  C_23
REMARK                            x       y       z     vdW  Elec       q    Type
REMARK                         _______ _______ _______ _____ _____    ______ ____
ROOT
ATOM     11  C   UNL     1      -3.456   0.198  22.777  0.00  0.00    +0.020 C 
ENDROOT
BRANCH  11   8
ATOM      2  O   UNL     1      -0.444  -1.949  25.776  0.00  0.00    -0.276 OA
ATOM      5  N   UNL     1      -2.660  -1.580  25.181  0.00  0.00    -0.301 N 
ATOM      8  C   UNL     1      -4.392  -0.450  23.805  0.00  0.00    +0.011 C 
ATOM      9  C   UNL     1      -4.715   0.455  25.021  0.00  0.00    +0.006 C 
ATOM     10  C   UNL     1      -3.808  -1.789  24.290  0.00  0.00    +0.111 C 
ATOM     12  C   UNL     1      -3.500   0.606  25.952  0.00  0.00    +0.023 C 
ATOM     13  C   UNL     1      -2.940  -0.755  26.356  0.00  0.00    +0.108 C 
ATOM     20  C   UNL     1      -1.387  -2.118  24.998  0.00  0.00    +0.212 C 
ATOM     23  C   UNL     1      -1.178  -2.954  23.760  0.00  0.00    +0.109 C 
BRANCH   9  15
ATOM     15  C   UNL     1      -5.261   1.826  24.622  0.00  0.00    +0.124 C 
BRANCH  15  21
ATOM      4  O   UNL     1      -4.556   3.709  26.001  0.00  0.00    -0.251 OA
ATOM     21  C   UNL     1      -5.308   2.768  25.794  0.00  0.00    +0.305 C 
BRANCH  21   3
ATOM      3  O   UNL     1      -6.329   2.421  26.619  0.00  0.00    -0.481 OA
ATOM     29  H   UNL     1      -6.135   2.643  27.554  0.00  0.00    +0.295 HD
ENDBRANCH  21   3
ENDBRANCH  15  21
ENDBRANCH   9  15
ENDBRANCH  11   8
BRANCH  11  14
ATOM     14  C   UNL     1      -2.803   1.448  23.351  0.00  0.00    +0.085 C 
BRANCH  14   6
ATOM      6  N   UNL     1      -1.371   1.443  23.049  0.00  0.00    -0.299 NA
ATOM      7  N   UNL     1       1.340   0.576  23.282  0.00  0.00    -0.327 N 
ATOM     16  C   UNL     1      -0.961   0.136  22.520  0.00  0.00    +0.103 C 
ATOM     17  C   UNL     1      -0.590   1.764  24.250  0.00  0.00    +0.103 C 
ATOM     18  C   UNL     1       0.523   0.136  22.147  0.00  0.00    +0.120 C 
ATOM     19  C   UNL     1       0.906   1.817  23.933  0.00  0.00    +0.120 C 
BRANCH   7  22
ATOM      1  F   UNL     1       6.715  -0.706  23.455  0.00  0.00    -0.205 F 
ATOM     22  C   UNL     1       2.700   0.251  23.326  0.00  0.00    +0.030 A 
ATOM     24  C   UNL     1       3.657   1.218  23.020  0.00  0.00    +0.026 A 
ATOM     25  C   UNL     1       3.099  -1.039  23.676  0.00  0.00    +0.026 A 
ATOM     26  C   UNL     1       5.013   0.895  23.064  0.00  0.00    +0.040 A 
ATOM     27  C   UNL     1       4.456  -1.362  23.720  0.00  0.00    +0.040 A 
ATOM     28  C   UNL     1       5.412  -0.395  23.414  0.00  0.00    +0.124 A 
ENDBRANCH   7  22
ENDBRANCH  14   6
ENDBRANCH  11  14
TORSDOF 7
ENDMDL
MODEL 5
REMARK VINA RESULT:       0.3      2.186      3.415
REMARK  Name = 25313352
REMARK  8 active torsions:
REMARK  status: ('A' for Active; 'I' for Inactive)
REMARK    1  A    between atoms: O_3  and  C_21
REMARK    2  A    between atoms: N_6  and  C_14
REMARK    3  A    between atoms: N_7  and  C_22
REMARK    4  A    between atoms: C_8  and  C_11
REMARK    5  A    between atoms: C_9  and  C_15
REMARK    6  A    between atoms: C_11  and  C_14
REMARK    7  A    between atoms: C_15  and  C_21
REMARK    8  A    between atoms: C_20  and  C_23
REMARK                            x       y       z     vdW  Elec       q    Type
REMARK                         _______ _______ _______ _____ _____    ______ ____
ROOT
ATOM     11  C   UNL     1      -3.029   1.193  23.438  0.00  0.00    +0.020 C 
ENDROOT
BRANCH  11   8
ATOM      2  O   UNL     1      -5.973   4.416  25.342  0.00  0.00    -0.276 OA
ATOM      5  N   UNL     1      -4.701   2.502  25.689  0.00  0.00    -0.301 N 
ATOM      8  C   UNL     1      -3.260   0.658  24.856  0.00  0.00    +0.011 C 
ATOM      9  C   UNL     1      -4.475  -0.297  24.979  0.00  0.00    +0.006 C 
ATOM     10  C   UNL     1      -3.409   1.823  25.850  0.00  0.00    +0.111 C 
ATOM     12  C   UNL     1      -5.806   0.462  24.853  0.00  0.00    +0.023 C 
ATOM     13  C   UNL     1      -5.870   1.633  25.830  0.00  0.00    +0.108 C 
ATOM     20  C   UNL     1      -4.874   3.864  25.448  0.00  0.00    +0.212 C 
ATOM     23  C   UNL     1      -3.620   4.691  25.313  0.00  0.00    +0.109 C 
BRANCH   9  15
ATOM     15  C   UNL     1      -4.425  -1.463  23.991  0.00  0.00    +0.124 C 
BRANCH  15  21
ATOM      4  O   UNL     1      -2.696  -3.157  23.697  0.00  0.00    -0.251 OA
ATOM     21  C   UNL     1      -3.442  -2.516  24.423  0.00  0.00    +0.305 C 
BRANCH  21   3
ATOM      3  O   UNL     1      -3.495  -2.665  25.772  0.00  0.00    -0.481 OA
ATOM     29  H   UNL     1      -3.622  -3.602  26.030  0.00  0.00    +0.295 HD
ENDBRANCH  21   3
ENDBRANCH  15  21
ENDBRANCH   9  15
ENDBRANCH  11   8
BRANCH  11  14
ATOM     14  C   UNL     1      -2.099   2.398  23.458  0.00  0.00    +0.085 C 
BRANCH  14   6
ATOM      6  N   UNL     1      -0.752   1.992  23.055  0.00  0.00    -0.299 NA
ATOM      7  N   UNL     1       1.818   0.791  23.387  0.00  0.00    -0.327 N 
ATOM     16  C   UNL     1      -0.616   0.532  23.111  0.00  0.00    +0.103 C 
ATOM     17  C   UNL     1       0.255   2.621  23.919  0.00  0.00    +0.103 C 
ATOM     18  C   UNL     1       0.771   0.090  22.637  0.00  0.00    +0.120 C 
ATOM     19  C   UNL     1       1.670   2.249  23.472  0.00  0.00    +0.120 C 
BRANCH   7  22
ATOM      1  F   UNL     1       6.923  -1.320  23.596  0.00  0.00    -0.205 F 
ATOM     22  C   UNL     1       3.110   0.257  23.440  0.00  0.00    +0.030 A 
ATOM     24  C   UNL     1       3.295  -1.089  23.751  0.00  0.00    +0.026 A 
ATOM     25  C   UNL     1       4.213   1.072  23.181  0.00  0.00    +0.026 A 
ATOM     26  C   UNL     1       4.583  -1.623  23.803  0.00  0.00    +0.040 A 
ATOM     27  C   UNL     1       5.501   0.538  23.234  0.00  0.00    +0.040 A 
ATOM     28  C   UNL     1       5.686  -0.809  23.544  0.00  0.00    +0.124 A 
ENDBRANCH   7  22
ENDBRANCH  14   6
ENDBRANCH  11  14
TORSDOF 7
ENDMDL
MODEL 6
REMARK VINA RESULT:       1.2      1.663      2.397
REMARK  Name = 25313352
REMARK  8 active torsions:
REMARK  status: ('A' for Active; 'I' for Inactive)
REMARK    1  A    between atoms: O_3  and  C_21
REMARK    2  A    between atoms: N_6  and  C_14
REMARK    3  A    between atoms: N_7  and  C_22
REMARK    4  A    between atoms: C_8  and  C_11
REMARK    5  A    between atoms: C_9  and  C_15
REMARK    6  A    between atoms: C_11  and  C_14
REMARK    7  A    between atoms: C_15  and  C_21
REMARK    8  A    between atoms: C_20  and  C_23
REMARK                            x       y       z     vdW  Elec       q    Type
REMARK                         _______ _______ _______ _____ _____    ______ ____
ROOT
ATOM     11  C   UNL     1      -2.969   2.473  23.174  0.00  0.00    +0.020 C 
ENDROOT
BRANCH  11   8
ATOM      2  O   UNL     1      -4.012  -1.038  26.218  0.00  0.00    -0.276 OA
ATOM      5  N   UNL     1      -4.728   0.921  25.193  0.00  0.00    -0.301 N 
ATOM      8  C   UNL     1      -4.328   2.899  23.743  0.00  0.00    +0.011 C 
ATOM      9  C   UNL     1      -4.231   3.770  25.022  0.00  0.00    +0.006 C 
ATOM     10  C   UNL     1      -5.204   1.663  24.019  0.00  0.00    +0.111 C 
ATOM     12  C   UNL     1      -3.777   2.943  26.236  0.00  0.00    +0.023 C 
ATOM     13  C   UNL     1      -4.654   1.708  26.424  0.00  0.00    +0.108 C 
ATOM     20  C   UNL     1      -4.385  -0.430  25.211  0.00  0.00    +0.212 C 
ATOM     23  C   UNL     1      -4.485  -1.170  23.900  0.00  0.00    +0.109 C 
BRANCH   9  15
ATOM     15  C   UNL     1      -3.340   4.999  24.844  0.00  0.00    +0.124 C 
BRANCH  15  21
ATOM      4  O   UNL     1      -1.545   3.809  25.986  0.00  0.00    -0.251 OA
ATOM     21  C   UNL     1      -1.925   4.726  25.273  0.00  0.00    +0.305 C 
BRANCH  21   3
ATOM      3  O   UNL     1      -1.097   5.664  24.745  0.00  0.00    -0.481 OA
ATOM     29  H   UNL     1      -1.434   6.011  23.892  0.00  0.00    +0.295 HD
ENDBRANCH  21   3
ENDBRANCH  15  21
ENDBRANCH   9  15
ENDBRANCH  11   8
BRANCH  11  14
ATOM     14  C   UNL     1      -2.739   0.983  23.379  0.00  0.00    +0.085 C 
BRANCH  14   6
ATOM      6  N   UNL     1      -1.357   0.747  23.797  0.00  0.00    -0.299 NA
ATOM      7  N   UNL     1       1.450   0.368  23.430  0.00  0.00    -0.327 N 
ATOM     16  C   UNL     1      -0.500   1.872  23.404  0.00  0.00    +0.103 C 
ATOM     17  C   UNL     1      -0.847  -0.498  23.210  0.00  0.00    +0.103 C 
ATOM     18  C   UNL     1       0.937   1.664  23.886  0.00  0.00    +0.120 C 
ATOM     19  C   UNL     1       0.579  -0.785  23.686  0.00  0.00    +0.120 C 
BRANCH   7  22
ATOM      1  F   UNL     1       6.905  -0.497  23.202  0.00  0.00    -0.205 F 
ATOM     22  C   UNL     1       2.830   0.150  23.373  0.00  0.00    +0.030 A 
ATOM     24  C   UNL     1       3.354  -1.097  23.715  0.00  0.00    +0.026 A 
ATOM     25  C   UNL     1       3.684   1.178  22.972  0.00  0.00    +0.026 A 
ATOM     26  C   UNL     1       4.730  -1.316  23.657  0.00  0.00    +0.040 A 
ATOM     27  C   UNL     1       5.061   0.959  22.914  0.00  0.00    +0.040 A 
ATOM     28  C   UNL     1       5.583  -0.287  23.256  0.00  0.00    +0.124 A 
ENDBRANCH   7  22
ENDBRANCH  14   6
ENDBRANCH  11  14
TORSDOF 7
ENDMDL
MODEL 7
REMARK VINA RESULT:       2.2      3.715      5.564
REMARK  Name = 25313352
REMARK  8 active torsions:
REMARK  status: ('A' for Active; 'I' for Inactive)
REMARK    1  A    between atoms: O_3  and  C_21
REMARK    2  A    between atoms: N_6  and  C_14
REMARK    3  A    between atoms: N_7  and  C_22
REMARK    4  A    between atoms: C_8  and  C_11
REMARK    5  A    between atoms: C_9  and  C_15
REMARK    6  A    between atoms: C_11  and  C_14
REMARK    7  A    between atoms: C_15  and  C_21
REMARK    8  A    between atoms: C_20  and  C_23
REMARK                            x       y       z     vdW  Elec       q    Type
REMARK                         _______ _______ _______ _____ _____    ______ ____
ROOT
ATOM     11  C   UNL     1      -3.087   0.642  22.883  0.00  0.00    +0.020 C 
ENDROOT
BRANCH  11   8
ATOM      2  O   UNL     1      -0.991  -2.533  25.747  0.00  0.00    -0.276 OA
ATOM      5  N   UNL     1      -2.980  -1.767  24.822  0.00  0.00    -0.301 N 
ATOM      8  C   UNL     1      -4.273  -0.130  23.472  0.00  0.00    +0.011 C 
ATOM      9  C   UNL     1      -4.821   0.470  24.793  0.00  0.00    +0.006 C 
ATOM     10  C   UNL     1      -3.897  -1.607  23.686  0.00  0.00    +0.111 C 
ATOM     12  C   UNL     1      -3.852   0.236  25.964  0.00  0.00    +0.023 C 
ATOM     13  C   UNL     1      -3.481  -1.239  26.091  0.00  0.00    +0.108 C 
ATOM     20  C   UNL     1      -1.733  -2.387  24.772  0.00  0.00    +0.212 C 
ATOM     23  C   UNL     1      -1.288  -2.902  23.426  0.00  0.00    +0.109 C 
BRANCH   9  15
ATOM     15  C   UNL     1      -5.178   1.952  24.677  0.00  0.00    +0.124 C 
BRANCH  15  21
ATOM      4  O   UNL     1      -6.546   1.703  26.680  0.00  0.00    -0.251 OA
ATOM     21  C   UNL     1      -6.018   2.413  25.836  0.00  0.00    +0.305 C 
BRANCH  21   3
ATOM      3  O   UNL     1      -6.117   3.767  25.820  0.00  0.00    -0.481 OA
ATOM     29  H   UNL     1      -5.412   4.178  25.277  0.00  0.00    +0.295 HD
ENDBRANCH  21   3
ENDBRANCH  15  21
ENDBRANCH   9  15
ENDBRANCH  11   8
BRANCH  11  14
ATOM     14  C   UNL     1      -3.170   2.120  23.239  0.00  0.00    +0.085 C 
BRANCH  14   6
ATOM      6  N   UNL     1      -2.012   2.502  24.047  0.00  0.00    -0.299 NA
ATOM      7  N   UNL     1      -0.314   2.481  26.344  0.00  0.00    -0.327 N 
ATOM     16  C   UNL     1      -1.185   1.327  24.350  0.00  0.00    +0.103 C 
ATOM     17  C   UNL     1      -2.444   3.143  25.295  0.00  0.00    +0.103 C 
ATOM     18  C   UNL     1       0.060   1.722  25.147  0.00  0.00    +0.120 C 
ATOM     19  C   UNL     1      -1.240   3.598  26.123  0.00  0.00    +0.120 C 
BRANCH   7  22
ATOM      1  F   UNL     1       3.214   2.831  30.585  0.00  0.00    -0.205 F 
ATOM     22  C   UNL     1       0.579   2.570  27.417  0.00  0.00    +0.030 A 
ATOM     24  C   UNL     1       1.879   3.029  27.207  0.00  0.00    +0.026 A 
ATOM     25  C   UNL     1       0.169   2.199  28.698  0.00  0.00    +0.026 A 
ATOM     26  C   UNL     1       2.769   3.118  28.277  0.00  0.00    +0.040 A 
ATOM     27  C   UNL     1       1.060   2.288  29.769  0.00  0.00    +0.040 A 
ATOM     28  C   UNL     1       2.359   2.747  29.558  0.00  0.00    +0.124 A 
ENDBRANCH   7  22
ENDBRANCH  14   6
ENDBRANCH  11  14
TORSDOF 7
ENDMDL
