MODEL 1
REMARK VINA RESULT:       7.6      0.000      0.000
REMARK  Name = 7687194
REMARK  2 active torsions:
REMARK  status: ('A' for Active; 'I' for Inactive)
REMARK    1  A    between atoms: N_5  and  C_23
REMARK    2  A    between atoms: C_15  and  C_20
REMARK                            x       y       z     vdW  Elec       q    Type
REMARK                         _______ _______ _______ _____ _____    ______ ____
ROOT
ATOM      1  O   UNL     1      -1.291   1.920  21.018  0.00  0.00    -0.268 OA
ATOM      2  O   UNL     1      -0.085  -0.483  25.124  0.00  0.00    -0.252 OA
ATOM      3  N   UNL     1      -1.666   2.785  23.162  0.00  0.00    -0.311 N 
ATOM      4  N   UNL     1      -0.798   1.566  25.930  0.00  0.00    -0.284 N 
ATOM      5  N   UNL     1      -2.304  -0.239  25.748  0.00  0.00    -0.269 N 
ATOM      8  C   UNL     1       0.277   3.441  24.699  0.00  0.00    +0.027 C 
ATOM      9  C   UNL     1      -2.043   3.663  25.492  0.00  0.00    +0.054 C 
ATOM     10  C   UNL     1      -0.724   4.413  25.307  0.00  0.00    +0.018 C 
ATOM     11  C   UNL     1      -0.227   3.044  23.310  0.00  0.00    +0.130 C 
ATOM     12  C   UNL     1       0.475   2.218  25.615  0.00  0.00    +0.114 C 
ATOM     13  C   UNL     1      -1.819   2.481  26.463  0.00  0.00    +0.119 C 
ATOM     14  C   UNL     1      -2.597   3.151  24.156  0.00  0.00    +0.034 A 
ATOM     15  C   UNL     1      -3.928   3.007  23.923  0.00  0.00    +0.005 A 
ATOM     16  C   UNL     1      -2.058   2.245  21.924  0.00  0.00    +0.252 A 
ATOM     17  C   UNL     1      -1.001   0.218  25.564  0.00  0.00    +0.306 C 
ATOM     18  C   UNL     1      -4.368   2.451  22.658  0.00  0.00    +0.015 A 
ATOM     19  C   UNL     1      -3.513   2.073  21.709  0.00  0.00    +0.071 A 
ATOM     30  H   UNL     1      -2.871   0.186  26.470  0.00  0.00    +0.156 HD
ENDROOT
BRANCH  15  20
ATOM      6  N   UNL     1      -6.277   5.038  26.022  0.00  0.00    -0.243 NA
ATOM      7  N   UNL     1      -6.446   2.728  26.686  0.00  0.00    -0.243 NA
ATOM     20  C   UNL     1      -4.942   3.372  24.936  0.00  0.00    +0.020 A 
ATOM     21  C   UNL     1      -5.355   4.670  25.109  0.00  0.00    +0.122 A 
ATOM     22  C   UNL     1      -5.519   2.431  25.752  0.00  0.00    +0.122 A 
ATOM     26  C   UNL     1      -6.774   4.032  26.765  0.00  0.00    +0.221 A 
ENDBRANCH  15  20
BRANCH   5  23
ATOM     23  C   UNL     1      -2.945  -1.294  25.053  0.00  0.00    +0.035 A 
ATOM     24  C   UNL     1      -2.559  -2.611  25.286  0.00  0.00    +0.023 A 
ATOM     25  C   UNL     1      -3.958  -1.007  24.143  0.00  0.00    +0.023 A 
ATOM     27  C   UNL     1      -3.190  -3.649  24.601  0.00  0.00    +0.002 A 
ATOM     28  C   UNL     1      -4.590  -2.045  23.458  0.00  0.00    +0.002 A 
ATOM     29  C   UNL     1      -4.207  -3.366  23.688  0.00  0.00    +0.000 A 
ENDBRANCH   5  23
TORSDOF 2
ENDMDL
MODEL 2
REMARK VINA RESULT:       7.6      2.306      4.745
REMARK  Name = 7687194
REMARK  2 active torsions:
REMARK  status: ('A' for Active; 'I' for Inactive)
REMARK    1  A    between atoms: N_5  and  C_23
REMARK    2  A    between atoms: C_15  and  C_20
REMARK                            x       y       z     vdW  Elec       q    Type
REMARK                         _______ _______ _______ _____ _____    ______ ____
ROOT
ATOM      1  O   UNL     1      -2.857   3.174  20.870  0.00  0.00    -0.268 OA
ATOM      2  O   UNL     1       0.569   3.946  24.299  0.00  0.00    -0.252 OA
ATOM      3  N   UNL     1      -3.124   2.541  23.110  0.00  0.00    -0.311 N 
ATOM      4  N   UNL     1      -1.200   3.110  25.535  0.00  0.00    -0.284 N 
ATOM      5  N   UNL     1       0.472   1.667  24.707  0.00  0.00    -0.269 N 
ATOM      8  C   UNL     1      -3.320   4.284  24.979  0.00  0.00    +0.027 C 
ATOM      9  C   UNL     1      -3.354   1.886  25.530  0.00  0.00    +0.054 C 
ATOM     10  C   UNL     1      -4.109   3.203  25.705  0.00  0.00    +0.018 C 
ATOM     11  C   UNL     1      -3.314   3.949  23.486  0.00  0.00    +0.130 C 
ATOM     12  C   UNL     1      -1.895   4.398  25.552  0.00  0.00    +0.114 C 
ATOM     13  C   UNL     1      -1.953   2.018  26.171  0.00  0.00    +0.119 C 
ATOM     14  C   UNL     1      -3.224   1.497  24.053  0.00  0.00    +0.034 A 
ATOM     15  C   UNL     1      -3.165   0.204  23.638  0.00  0.00    +0.005 A 
ATOM     16  C   UNL     1      -2.939   2.303  21.737  0.00  0.00    +0.252 A 
ATOM     17  C   UNL     1      -0.001   2.974  24.802  0.00  0.00    +0.306 C 
ATOM     18  C   UNL     1      -2.972  -0.080  22.229  0.00  0.00    +0.015 A 
ATOM     19  C   UNL     1      -2.849   0.885  21.318  0.00  0.00    +0.071 A 
ATOM     30  H   UNL     1       0.247   1.013  25.447  0.00  0.00    +0.156 HD
ENDROOT
BRANCH  15  20
ATOM      6  N   UNL     1      -3.188  -1.754  26.835  0.00  0.00    -0.243 NA
ATOM      7  N   UNL     1      -3.600  -3.261  25.002  0.00  0.00    -0.243 NA
ATOM     20  C   UNL     1      -3.260  -0.926  24.588  0.00  0.00    +0.020 A 
ATOM     21  C   UNL     1      -3.106  -0.747  25.941  0.00  0.00    +0.122 A 
ATOM     22  C   UNL     1      -3.507  -2.208  24.163  0.00  0.00    +0.122 A 
ATOM     26  C   UNL     1      -3.433  -2.966  26.305  0.00  0.00    +0.221 A 
ENDBRANCH  15  20
BRANCH   5  23
ATOM     23  C   UNL     1       1.294   1.128  23.688  0.00  0.00    +0.035 A 
ATOM     24  C   UNL     1       2.624   1.528  23.588  0.00  0.00    +0.023 A 
ATOM     25  C   UNL     1       0.768   0.200  22.793  0.00  0.00    +0.023 A 
ATOM     27  C   UNL     1       3.433   0.997  22.584  0.00  0.00    +0.002 A 
ATOM     28  C   UNL     1       1.578  -0.331  21.789  0.00  0.00    +0.002 A 
ATOM     29  C   UNL     1       2.911   0.067  21.685  0.00  0.00    +0.000 A 
ENDBRANCH   5  23
TORSDOF 2
ENDMDL
