MODEL 1
REMARK VINA RESULT:       4.8      0.000      0.000
REMARK  Name = 7165080
REMARK  5 active torsions:
REMARK  status: ('A' for Active; 'I' for Inactive)
REMARK    1  A    between atoms: S_2  and  N_8
REMARK    2  A    between atoms: S_2  and  C_17
REMARK    3  A    between atoms: O_7  and  C_28
REMARK    4  A    between atoms: O_7  and  C_29
REMARK    5  A    between atoms: N_10  and  C_18
REMARK                            x       y       z     vdW  Elec       q    Type
REMARK                         _______ _______ _______ _____ _____    ______ ____
ROOT
ATOM      3  O   UNL     1      -2.400   1.301  23.731  0.00  0.00    -0.273 OA
ATOM      6  O   UNL     1      -0.360  -2.594  25.404  0.00  0.00    -0.252 OA
ATOM      8  N   UNL     1      -4.788   0.393  24.495  0.00  0.00    -0.163 NA
ATOM      9  N   UNL     1      -2.593  -2.305  25.585  0.00  0.00    -0.294 N 
ATOM     10  N   UNL     1      -1.302  -0.636  24.496  0.00  0.00    -0.193 N 
ATOM     11  C   UNL     1      -3.813  -1.584  25.373  0.00  0.00    +0.103 C 
ATOM     12  C   UNL     1      -3.595  -0.091  25.259  0.00  0.00    +0.186 C 
ATOM     13  C   UNL     1      -4.535  -1.940  24.084  0.00  0.00    +0.041 C 
ATOM     14  C   UNL     1      -5.521  -0.790  23.952  0.00  0.00    +0.112 C 
ATOM     15  C   UNL     1      -2.386   0.276  24.417  0.00  0.00    +0.248 C 
ATOM     16  C   UNL     1      -1.347  -1.894  25.155  0.00  0.00    +0.313 C 
ATOM     35  H   UNL     1      -2.650  -3.201  26.060  0.00  0.00    +0.151 HD
ENDROOT
BRANCH  10  18
ATOM     18  C   UNL     1      -0.055  -0.254  23.866  0.00  0.00    +0.046 A 
ATOM     21  C   UNL     1       0.620   0.875  24.309  0.00  0.00    +0.027 A 
ATOM     22  C   UNL     1       0.449  -1.025  22.826  0.00  0.00    +0.027 A 
ATOM     25  C   UNL     1       1.820   1.242  23.701  0.00  0.00    +0.048 A 
ATOM     26  C   UNL     1       1.650  -0.657  22.218  0.00  0.00    +0.048 A 
ATOM     28  C   UNL     1       2.335   0.476  22.655  0.00  0.00    +0.129 A 
BRANCH  28   7
ATOM      7  O   UNL     1       3.508   0.832  22.063  0.00  0.00    -0.456 OA
BRANCH   7  29
ATOM     29  C   UNL     1       4.685   0.441  22.679  0.00  0.00    +0.128 A 
ATOM     30  C   UNL     1       5.598  -0.318  21.968  0.00  0.00    +0.046 A 
ATOM     31  C   UNL     1       4.918   0.817  23.990  0.00  0.00    +0.046 A 
ATOM     32  C   UNL     1       6.782  -0.713  22.589  0.00  0.00    +0.004 A 
ATOM     33  C   UNL     1       6.102   0.423  24.611  0.00  0.00    +0.004 A 
ATOM     34  C   UNL     1       7.036  -0.343  23.910  0.00  0.00    +0.000 A 
ENDBRANCH   7  29
ENDBRANCH  28   7
ENDBRANCH  10  18
BRANCH   8   2
ATOM      2  S   UNL     1      -5.718   1.639  25.185  0.00  0.00    +0.062 S 
ATOM      4  O   UNL     1      -5.986   1.329  26.577  0.00  0.00    -0.153 OA
ATOM      5  O   UNL     1      -6.803   1.984  24.285  0.00  0.00    -0.153 OA
BRANCH   2  17
ATOM      1 CL   UNL     1      -1.579   6.329  25.059  0.00  0.00    -0.084 Cl
ATOM     17  C   UNL     1      -4.550   2.966  25.150  0.00  0.00    +0.106 A 
ATOM     19  C   UNL     1      -4.337   3.648  23.964  0.00  0.00    +0.030 A 
ATOM     20  C   UNL     1      -3.869   3.297  26.309  0.00  0.00    +0.030 A 
ATOM     23  C   UNL     1      -3.414   4.693  23.936  0.00  0.00    +0.022 A 
ATOM     24  C   UNL     1      -2.946   4.342  26.280  0.00  0.00    +0.022 A 
ATOM     27  C   UNL     1      -2.719   5.040  25.095  0.00  0.00    +0.041 A 
ENDBRANCH   2  17
ENDBRANCH   8   2
TORSDOF 5
ENDMDL
