MODEL 1
REMARK VINA RESULT:      -1.7      0.000      0.000
REMARK  Name = 51137246
REMARK  4 active torsions:
REMARK  status: ('A' for Active; 'I' for Inactive)
REMARK    1  A    between atoms: N_3  and  C_11
REMARK    2  A    between atoms: C_7  and  C_12
REMARK    3  A    between atoms: C_11  and  C_13
REMARK    4  A    between atoms: C_14  and  C_16
REMARK                            x       y       z     vdW  Elec       q    Type
REMARK                         _______ _______ _______ _____ _____    ______ ____
ROOT
ATOM      3  N   UNL     1      -4.093  -0.827  24.483  0.00  0.00    -0.296 NA
ATOM      7  C   UNL     1      -1.804  -0.839  23.970  0.00  0.00    +0.092 C 
ATOM      8  C   UNL     1      -2.023  -1.450  25.366  0.00  0.00    +0.029 C 
ATOM      9  C   UNL     1      -3.119  -0.113  23.654  0.00  0.00    +0.097 C 
ATOM     10  C   UNL     1      -3.426  -1.015  25.770  0.00  0.00    +0.085 C 
ENDROOT
BRANCH   7  12
ATOM      2  O   UNL     1       0.611  -0.559  23.684  0.00  0.00    -0.420 OA
ATOM      4  N   UNL     1      -0.514   1.365  23.883  0.00  0.00    -0.112 NA
ATOM      5  N   UNL     1       0.826   1.668  23.729  0.00  0.00    -0.107 NA
ATOM     12  C   UNL     1      -0.593   0.056  23.851  0.00  0.00    +0.222 A 
ATOM     14  C   UNL     1       1.444   0.515  23.617  0.00  0.00    +0.248 A 
BRANCH  14  16
ATOM      1 CL   UNL     1       7.213  -0.711  22.872  0.00  0.00    -0.084 Cl
ATOM     16  C   UNL     1       2.836   0.219  23.437  0.00  0.00    +0.039 A 
ATOM     20  C   UNL     1       3.683   1.167  22.862  0.00  0.00    +0.014 A 
ATOM     21  C   UNL     1       3.344  -1.017  23.838  0.00  0.00    +0.014 A 
ATOM     22  C   UNL     1       5.036   0.880  22.687  0.00  0.00    +0.021 A 
ATOM     23  C   UNL     1       4.697  -1.304  23.663  0.00  0.00    +0.021 A 
ATOM     24  C   UNL     1       5.544  -0.356  23.088  0.00  0.00    +0.041 A 
ENDBRANCH  14  16
ENDBRANCH   7  12
BRANCH   3  11
ATOM     11  C   UNL     1      -5.349  -0.102  24.610  0.00  0.00    +0.139 C 
BRANCH  11  13
ATOM      6  N   UNL     1      -5.826   1.934  25.852  0.00  0.00    -0.259 NA
ATOM     13  C   UNL     1      -5.127   1.368  24.843  0.00  0.00    +0.055 A 
ATOM     15  C   UNL     1      -4.238   2.056  24.033  0.00  0.00    +0.024 A 
ATOM     17  C   UNL     1      -4.053   3.413  24.276  0.00  0.00    +0.003 A 
ATOM     18  C   UNL     1      -5.621   3.255  26.057  0.00  0.00    +0.111 A 
ATOM     19  C   UNL     1      -4.755   4.032  25.305  0.00  0.00    +0.020 A 
ENDBRANCH  11  13
ENDBRANCH   3  11
TORSDOF 4
ENDMDL
MODEL 2
REMARK VINA RESULT:      -1.6      1.990      3.415
REMARK  Name = 51137246
REMARK  4 active torsions:
REMARK  status: ('A' for Active; 'I' for Inactive)
REMARK    1  A    between atoms: N_3  and  C_11
REMARK    2  A    between atoms: C_7  and  C_12
REMARK    3  A    between atoms: C_11  and  C_13
REMARK    4  A    between atoms: C_14  and  C_16
REMARK                            x       y       z     vdW  Elec       q    Type
REMARK                         _______ _______ _______ _____ _____    ______ ____
ROOT
ATOM      3  N   UNL     1      -5.523   2.352  24.996  0.00  0.00    -0.296 NA
ATOM      7  C   UNL     1      -4.545   0.323  24.346  0.00  0.00    +0.092 C 
ATOM      8  C   UNL     1      -5.299   0.129  25.674  0.00  0.00    +0.029 C 
ATOM      9  C   UNL     1      -4.407   1.844  24.196  0.00  0.00    +0.097 C 
ATOM     10  C   UNL     1      -5.519   1.538  26.210  0.00  0.00    +0.085 C 
ENDROOT
BRANCH   7  12
ATOM      2  O   UNL     1      -2.135   0.345  23.912  0.00  0.00    -0.420 OA
ATOM      4  N   UNL     1      -2.945  -1.667  24.462  0.00  0.00    -0.112 NA
ATOM      5  N   UNL     1      -1.586  -1.799  24.245  0.00  0.00    -0.107 NA
ATOM     12  C   UNL     1      -3.221  -0.401  24.256  0.00  0.00    +0.222 A 
ATOM     14  C   UNL     1      -1.155  -0.600  23.928  0.00  0.00    +0.248 A 
BRANCH  14  16
ATOM      1 CL   UNL     1       4.311   1.304  22.573  0.00  0.00    -0.084 Cl
ATOM     16  C   UNL     1       0.164  -0.141  23.601  0.00  0.00    +0.039 A 
ATOM     20  C   UNL     1       0.996  -0.922  22.799  0.00  0.00    +0.014 A 
ATOM     21  C   UNL     1       0.614   1.088  24.084  0.00  0.00    +0.014 A 
ATOM     22  C   UNL     1       2.278  -0.476  22.482  0.00  0.00    +0.021 A 
ATOM     23  C   UNL     1       1.896   1.535  23.766  0.00  0.00    +0.021 A 
ATOM     24  C   UNL     1       2.729   0.753  22.964  0.00  0.00    +0.041 A 
ENDBRANCH  14  16
ENDBRANCH   7  12
BRANCH   3  11
ATOM     11  C   UNL     1      -5.398   3.774  25.281  0.00  0.00    +0.139 C 
BRANCH  11  13
ATOM      6  N   UNL     1      -3.618   5.000  24.165  0.00  0.00    -0.259 NA
ATOM     13  C   UNL     1      -3.966   4.234  25.222  0.00  0.00    +0.055 A 
ATOM     15  C   UNL     1      -3.091   3.860  26.230  0.00  0.00    +0.024 A 
ATOM     17  C   UNL     1      -1.775   4.303  26.147  0.00  0.00    +0.003 A 
ATOM     18  C   UNL     1      -2.330   5.411  24.118  0.00  0.00    +0.111 A 
ATOM     19  C   UNL     1      -1.380   5.093  25.074  0.00  0.00    +0.020 A 
ENDBRANCH  11  13
ENDBRANCH   3  11
TORSDOF 4
ENDMDL
MODEL 3
REMARK VINA RESULT:      -1.2      1.659      3.152
REMARK  Name = 51137246
REMARK  4 active torsions:
REMARK  status: ('A' for Active; 'I' for Inactive)
REMARK    1  A    between atoms: N_3  and  C_11
REMARK    2  A    between atoms: C_7  and  C_12
REMARK    3  A    between atoms: C_11  and  C_13
REMARK    4  A    between atoms: C_14  and  C_16
REMARK                            x       y       z     vdW  Elec       q    Type
REMARK                         _______ _______ _______ _____ _____    ______ ____
ROOT
ATOM      3  N   UNL     1      -3.160   1.688  24.876  0.00  0.00    -0.296 NA
ATOM      7  C   UNL     1      -0.954   1.763  24.085  0.00  0.00    +0.092 C 
ATOM      8  C   UNL     1      -1.855   2.621  23.180  0.00  0.00    +0.029 C 
ATOM      9  C   UNL     1      -1.929   0.896  24.894  0.00  0.00    +0.097 C 
ATOM     10  C   UNL     1      -3.275   2.176  23.503  0.00  0.00    +0.085 C 
ENDROOT
BRANCH   7  12
ATOM      2  O   UNL     1       1.371   1.041  23.815  0.00  0.00    -0.420 OA
ATOM      4  N   UNL     1      -0.041   0.151  22.325  0.00  0.00    -0.112 NA
ATOM      5  N   UNL     1       1.225  -0.337  22.058  0.00  0.00    -0.107 NA
ATOM     12  C   UNL     1       0.092   0.950  23.356  0.00  0.00    +0.222 A 
ATOM     14  C   UNL     1       2.016   0.209  22.953  0.00  0.00    +0.248 A 
BRANCH  14  16
ATOM      1 CL   UNL     1       7.869  -0.385  23.804  0.00  0.00    -0.084 Cl
ATOM     16  C   UNL     1       3.428   0.066  23.158  0.00  0.00    +0.039 A 
ATOM     20  C   UNL     1       4.286   1.129  22.876  0.00  0.00    +0.014 A 
ATOM     21  C   UNL     1       3.945  -1.137  23.640  0.00  0.00    +0.014 A 
ATOM     22  C   UNL     1       5.659   0.990  23.076  0.00  0.00    +0.021 A 
ATOM     23  C   UNL     1       5.317  -1.276  23.840  0.00  0.00    +0.021 A 
ATOM     24  C   UNL     1       6.175  -0.213  23.558  0.00  0.00    +0.041 A 
ENDBRANCH  14  16
ENDBRANCH   7  12
BRANCH   3  11
ATOM     11  C   UNL     1      -4.322   0.916  25.290  0.00  0.00    +0.139 C 
BRANCH  11  13
ATOM      6  N   UNL     1      -3.500  -1.245  26.044  0.00  0.00    -0.259 NA
ATOM     13  C   UNL     1      -4.125  -0.559  25.063  0.00  0.00    +0.055 A 
ATOM     15  C   UNL     1      -4.583  -1.131  23.886  0.00  0.00    +0.024 A 
ATOM     17  C   UNL     1      -4.387  -2.496  23.708  0.00  0.00    +0.003 A 
ATOM     18  C   UNL     1      -3.326  -2.570  25.834  0.00  0.00    +0.111 A 
ATOM     19  C   UNL     1      -3.747  -3.236  24.695  0.00  0.00    +0.020 A 
ENDBRANCH  11  13
ENDBRANCH   3  11
TORSDOF 4
ENDMDL
MODEL 4
REMARK VINA RESULT:      -1.2      1.971      3.067
REMARK  Name = 51137246
REMARK  4 active torsions:
REMARK  status: ('A' for Active; 'I' for Inactive)
REMARK    1  A    between atoms: N_3  and  C_11
REMARK    2  A    between atoms: C_7  and  C_12
REMARK    3  A    between atoms: C_11  and  C_13
REMARK    4  A    between atoms: C_14  and  C_16
REMARK                            x       y       z     vdW  Elec       q    Type
REMARK                         _______ _______ _______ _____ _____    ______ ____
ROOT
ATOM      3  N   UNL     1      -4.654   2.087  24.510  0.00  0.00    -0.296 NA
ATOM      7  C   UNL     1      -3.624   0.072  23.892  0.00  0.00    +0.092 C 
ATOM      8  C   UNL     1      -4.670  -0.198  24.989  0.00  0.00    +0.029 C 
ATOM      9  C   UNL     1      -3.402   1.590  23.934  0.00  0.00    +0.097 C 
ATOM     10  C   UNL     1      -4.957   1.166  25.604  0.00  0.00    +0.085 C 
ENDROOT
BRANCH   7  12
ATOM      2  O   UNL     1      -1.187  -0.071  23.703  0.00  0.00    -0.420 OA
ATOM      4  N   UNL     1      -2.159  -1.953  24.423  0.00  0.00    -0.112 NA
ATOM      5  N   UNL     1      -0.795  -2.173  24.362  0.00  0.00    -0.107 NA
ATOM     12  C   UNL     1      -2.342  -0.715  24.029  0.00  0.00    +0.222 A 
ATOM     14  C   UNL     1      -0.269  -1.047  23.937  0.00  0.00    +0.248 A 
BRANCH  14  16
ATOM      1 CL   UNL     1       5.400   0.412  22.902  0.00  0.00    -0.084 Cl
ATOM     16  C   UNL     1       1.099  -0.695  23.688  0.00  0.00    +0.039 A 
ATOM     20  C   UNL     1       2.116  -1.613  23.952  0.00  0.00    +0.014 A 
ATOM     21  C   UNL     1       1.413   0.566  23.180  0.00  0.00    +0.014 A 
ATOM     22  C   UNL     1       3.445  -1.271  23.709  0.00  0.00    +0.021 A 
ATOM     23  C   UNL     1       2.743   0.908  22.937  0.00  0.00    +0.021 A 
ATOM     24  C   UNL     1       3.759  -0.011  23.201  0.00  0.00    +0.041 A 
ENDBRANCH  14  16
ENDBRANCH   7  12
BRANCH   3  11
ATOM     11  C   UNL     1      -4.548   3.467  24.960  0.00  0.00    +0.139 C 
BRANCH  11  13
ATOM      6  N   UNL     1      -2.254   3.035  25.644  0.00  0.00    -0.259 NA
ATOM     13  C   UNL     1      -3.114   3.910  25.077  0.00  0.00    +0.055 A 
ATOM     15  C   UNL     1      -2.750   5.162  24.609  0.00  0.00    +0.024 A 
ATOM     17  C   UNL     1      -1.417   5.540  24.730  0.00  0.00    +0.003 A 
ATOM     18  C   UNL     1      -0.967   3.438  25.746  0.00  0.00    +0.111 A 
ATOM     19  C   UNL     1      -0.503   4.667  25.308  0.00  0.00    +0.020 A 
ENDBRANCH  11  13
ENDBRANCH   3  11
TORSDOF 4
ENDMDL
MODEL 5
REMARK VINA RESULT:      -1.0      1.864      2.934
REMARK  Name = 51137246
REMARK  4 active torsions:
REMARK  status: ('A' for Active; 'I' for Inactive)
REMARK    1  A    between atoms: N_3  and  C_11
REMARK    2  A    between atoms: C_7  and  C_12
REMARK    3  A    between atoms: C_11  and  C_13
REMARK    4  A    between atoms: C_14  and  C_16
REMARK                            x       y       z     vdW  Elec       q    Type
REMARK                         _______ _______ _______ _____ _____    ______ ____
ROOT
ATOM      3  N   UNL     1      -2.573   4.368  25.691  0.00  0.00    -0.296 NA
ATOM      7  C   UNL     1      -0.690   2.996  25.429  0.00  0.00    +0.092 C 
ATOM      8  C   UNL     1      -0.343   4.434  25.002  0.00  0.00    +0.029 C 
ATOM      9  C   UNL     1      -2.223   2.963  25.474  0.00  0.00    +0.097 C 
ATOM     10  C   UNL     1      -1.689   5.120  24.802  0.00  0.00    +0.085 C 
ENDROOT
BRANCH   7  12
ATOM      2  O   UNL     1       1.255   1.798  24.547  0.00  0.00    -0.420 OA
ATOM      4  N   UNL     1      -0.707   1.044  23.780  0.00  0.00    -0.112 NA
ATOM      5  N   UNL     1       0.297   0.286  23.205  0.00  0.00    -0.107 NA
ATOM     12  C   UNL     1      -0.102   1.914  24.554  0.00  0.00    +0.222 A 
ATOM     14  C   UNL     1       1.424   0.761  23.682  0.00  0.00    +0.248 A 
BRANCH  14  16
ATOM      1 CL   UNL     1       7.043  -0.889  22.667  0.00  0.00    -0.084 Cl
ATOM     16  C   UNL     1       2.780   0.363  23.437  0.00  0.00    +0.039 A 
ATOM     20  C   UNL     1       3.681   1.266  22.871  0.00  0.00    +0.014 A 
ATOM     21  C   UNL     1       3.198  -0.926  23.765  0.00  0.00    +0.014 A 
ATOM     22  C   UNL     1       4.999   0.878  22.633  0.00  0.00    +0.021 A 
ATOM     23  C   UNL     1       4.516  -1.313  23.527  0.00  0.00    +0.021 A 
ATOM     24  C   UNL     1       5.417  -0.411  22.961  0.00  0.00    +0.041 A 
ENDBRANCH  14  16
ENDBRANCH   7  12
BRANCH   3  11
ATOM     11  C   UNL     1      -3.980   4.637  25.431  0.00  0.00    +0.139 C 
BRANCH  11  13
ATOM      6  N   UNL     1      -5.609   3.151  26.457  0.00  0.00    -0.259 NA
ATOM     13  C   UNL     1      -4.795   3.372  25.401  0.00  0.00    +0.055 A 
ATOM     15  C   UNL     1      -4.678   2.514  24.319  0.00  0.00    +0.024 A 
ATOM     17  C   UNL     1      -5.447   1.355  24.321  0.00  0.00    +0.003 A 
ATOM     18  C   UNL     1      -6.340   2.013  26.424  0.00  0.00    +0.111 A 
ATOM     19  C   UNL     1      -6.295   1.092  25.390  0.00  0.00    +0.020 A 
ENDBRANCH  11  13
ENDBRANCH   3  11
TORSDOF 4
ENDMDL
MODEL 6
REMARK VINA RESULT:      -0.9      3.496      8.395
REMARK  Name = 51137246
REMARK  4 active torsions:
REMARK  status: ('A' for Active; 'I' for Inactive)
REMARK    1  A    between atoms: N_3  and  C_11
REMARK    2  A    between atoms: C_7  and  C_12
REMARK    3  A    between atoms: C_11  and  C_13
REMARK    4  A    between atoms: C_14  and  C_16
REMARK                            x       y       z     vdW  Elec       q    Type
REMARK                         _______ _______ _______ _____ _____    ______ ____
ROOT
ATOM      3  N   UNL     1       0.921  -0.937  23.373  0.00  0.00    -0.296 NA
ATOM      7  C   UNL     1      -0.959  -1.555  24.631  0.00  0.00    +0.092 C 
ATOM      8  C   UNL     1      -0.929  -2.360  23.320  0.00  0.00    +0.029 C 
ATOM      9  C   UNL     1       0.027  -0.401  24.401  0.00  0.00    +0.097 C 
ATOM     10  C   UNL     1       0.040  -1.607  22.418  0.00  0.00    +0.085 C 
ENDROOT
BRANCH   7  12
ATOM      2  O   UNL     1      -2.593   0.246  24.919  0.00  0.00    -0.420 OA
ATOM      4  N   UNL     1      -3.334  -1.769  25.551  0.00  0.00    -0.112 NA
ATOM      5  N   UNL     1      -4.348  -0.854  25.766  0.00  0.00    -0.107 NA
ATOM     12  C   UNL     1      -2.330  -1.083  25.057  0.00  0.00    +0.222 A 
ATOM     14  C   UNL     1      -3.871   0.308  25.383  0.00  0.00    +0.248 A 
BRANCH  14  16
ATOM      1 CL   UNL     1      -6.389   5.692  25.358  0.00  0.00    -0.084 Cl
ATOM     16  C   UNL     1      -4.478   1.607  25.377  0.00  0.00    +0.039 A 
ATOM     20  C   UNL     1      -3.734   2.724  24.994  0.00  0.00    +0.014 A 
ATOM     21  C   UNL     1      -5.813   1.755  25.753  0.00  0.00    +0.014 A 
ATOM     22  C   UNL     1      -4.325   3.987  24.988  0.00  0.00    +0.021 A 
ATOM     23  C   UNL     1      -6.404   3.018  25.747  0.00  0.00    +0.021 A 
ATOM     24  C   UNL     1      -5.660   4.134  25.364  0.00  0.00    +0.041 A 
ENDBRANCH  14  16
ENDBRANCH   7  12
BRANCH   3  11
ATOM     11  C   UNL     1       1.732   0.098  22.748  0.00  0.00    +0.139 C 
BRANCH  11  13
ATOM      6  N   UNL     1       3.586  -1.233  23.591  0.00  0.00    -0.259 NA
ATOM     13  C   UNL     1       3.187  -0.034  23.113  0.00  0.00    +0.055 A 
ATOM     15  C   UNL     1       4.029   1.054  22.945  0.00  0.00    +0.024 A 
ATOM     17  C   UNL     1       5.368   0.899  23.289  0.00  0.00    +0.003 A 
ATOM     18  C   UNL     1       4.894  -1.345  23.916  0.00  0.00    +0.111 A 
ATOM     19  C   UNL     1       5.816  -0.320  23.785  0.00  0.00    +0.020 A 
ENDBRANCH  11  13
ENDBRANCH   3  11
TORSDOF 4
ENDMDL
MODEL 7
REMARK VINA RESULT:      -0.7      3.863      5.496
REMARK  Name = 51137246
REMARK  4 active torsions:
REMARK  status: ('A' for Active; 'I' for Inactive)
REMARK    1  A    between atoms: N_3  and  C_11
REMARK    2  A    between atoms: C_7  and  C_12
REMARK    3  A    between atoms: C_11  and  C_13
REMARK    4  A    between atoms: C_14  and  C_16
REMARK                            x       y       z     vdW  Elec       q    Type
REMARK                         _______ _______ _______ _____ _____    ______ ____
ROOT
ATOM      3  N   UNL     1      -1.904   5.004  25.726  0.00  0.00    -0.296 NA
ATOM      7  C   UNL     1      -0.264   3.378  25.319  0.00  0.00    +0.092 C 
ATOM      8  C   UNL     1      -0.182   4.474  24.241  0.00  0.00    +0.029 C 
ATOM      9  C   UNL     1      -1.631   3.589  25.984  0.00  0.00    +0.097 C 
ATOM     10  C   UNL     1      -1.508   5.218  24.335  0.00  0.00    +0.085 C 
ENDROOT
BRANCH   7  12
ATOM      2  O   UNL     1      -1.148   1.144  24.848  0.00  0.00    -0.420 OA
ATOM      4  N   UNL     1       1.012   1.400  24.323  0.00  0.00    -0.112 NA
ATOM      5  N   UNL     1       0.646   0.103  24.010  0.00  0.00    -0.107 NA
ATOM     12  C   UNL     1      -0.066   1.969  24.810  0.00  0.00    +0.222 A 
ATOM     14  C   UNL     1      -0.622   0.000  24.332  0.00  0.00    +0.248 A 
BRANCH  14  16
ATOM      1 CL   UNL     1      -4.350  -4.609  23.894  0.00  0.00    -0.084 Cl
ATOM     16  C   UNL     1      -1.522  -1.112  24.226  0.00  0.00    +0.039 A 
ATOM     20  C   UNL     1      -1.018  -2.405  24.079  0.00  0.00    +0.014 A 
ATOM     21  C   UNL     1      -2.900  -0.902  24.272  0.00  0.00    +0.014 A 
ATOM     22  C   UNL     1      -1.893  -3.486  23.976  0.00  0.00    +0.021 A 
ATOM     23  C   UNL     1      -3.774  -1.983  24.169  0.00  0.00    +0.021 A 
ATOM     24  C   UNL     1      -3.271  -3.276  24.022  0.00  0.00    +0.041 A 
ENDBRANCH  14  16
ENDBRANCH   7  12
BRANCH   3  11
ATOM     11  C   UNL     1      -3.297   5.353  25.966  0.00  0.00    +0.139 C 
BRANCH  11  13
ATOM      6  N   UNL     1      -5.124   3.874  26.591  0.00  0.00    -0.259 NA
ATOM     13  C   UNL     1      -4.224   4.212  25.642  0.00  0.00    +0.055 A 
ATOM     15  C   UNL     1      -4.115   3.577  24.414  0.00  0.00    +0.024 A 
ATOM     17  C   UNL     1      -4.988   2.528  24.145  0.00  0.00    +0.003 A 
ATOM     18  C   UNL     1      -5.955   2.849  26.293  0.00  0.00    +0.111 A 
ATOM     19  C   UNL     1      -5.928   2.151  25.097  0.00  0.00    +0.020 A 
ENDBRANCH  11  13
ENDBRANCH   3  11
TORSDOF 4
ENDMDL
MODEL 8
REMARK VINA RESULT:       0.4      3.374      6.654
REMARK  Name = 51137246
REMARK  4 active torsions:
REMARK  status: ('A' for Active; 'I' for Inactive)
REMARK    1  A    between atoms: N_3  and  C_11
REMARK    2  A    between atoms: C_7  and  C_12
REMARK    3  A    between atoms: C_11  and  C_13
REMARK    4  A    between atoms: C_14  and  C_16
REMARK                            x       y       z     vdW  Elec       q    Type
REMARK                         _______ _______ _______ _____ _____    ______ ____
ROOT
ATOM      3  N   UNL     1      -2.762   5.149  25.259  0.00  0.00    -0.296 NA
ATOM      7  C   UNL     1      -4.648   3.769  25.071  0.00  0.00    +0.092 C 
ATOM      8  C   UNL     1      -4.513   4.261  26.523  0.00  0.00    +0.029 C 
ATOM      9  C   UNL     1      -3.282   4.057  24.434  0.00  0.00    +0.097 C 
ATOM     10  C   UNL     1      -3.081   4.769  26.634  0.00  0.00    +0.085 C 
ENDROOT
BRANCH   7  12
ATOM      2  O   UNL     1      -4.094   1.419  24.660  0.00  0.00    -0.420 OA
ATOM      4  N   UNL     1      -6.270   1.794  25.019  0.00  0.00    -0.112 NA
ATOM      5  N   UNL     1      -6.100   0.439  24.803  0.00  0.00    -0.107 NA
ATOM     12  C   UNL     1      -5.074   2.326  24.926  0.00  0.00    +0.222 A 
ATOM     14  C   UNL     1      -4.815   0.267  24.598  0.00  0.00    +0.248 A 
BRANCH  14  16
ATOM      1 CL   UNL     1      -1.717  -4.678  23.464  0.00  0.00    -0.084 Cl
ATOM     16  C   UNL     1      -4.067  -0.927  24.325  0.00  0.00    +0.039 A 
ATOM     20  C   UNL     1      -4.690  -2.016  23.715  0.00  0.00    +0.014 A 
ATOM     21  C   UNL     1      -2.717  -0.998  24.667  0.00  0.00    +0.014 A 
ATOM     22  C   UNL     1      -3.964  -3.176  23.449  0.00  0.00    +0.021 A 
ATOM     23  C   UNL     1      -1.991  -2.158  24.401  0.00  0.00    +0.021 A 
ATOM     24  C   UNL     1      -2.614  -3.247  23.792  0.00  0.00    +0.041 A 
ENDBRANCH  14  16
ENDBRANCH   7  12
BRANCH   3  11
ATOM     11  C   UNL     1      -1.336   5.365  25.060  0.00  0.00    +0.139 C 
BRANCH  11  13
ATOM      6  N   UNL     1      -0.038   3.822  23.700  0.00  0.00    -0.259 NA
ATOM     13  C   UNL     1      -0.589   4.067  24.909  0.00  0.00    +0.055 A 
ATOM     15  C   UNL     1      -0.503   3.204  25.991  0.00  0.00    +0.024 A 
ATOM     17  C   UNL     1       0.196   2.014  25.819  0.00  0.00    +0.003 A 
ATOM     18  C   UNL     1       0.633   2.654  23.571  0.00  0.00    +0.111 A 
ATOM     19  C   UNL     1       0.778   1.727  24.590  0.00  0.00    +0.020 A 
ENDBRANCH  11  13
ENDBRANCH   3  11
TORSDOF 4
ENDMDL
