MODEL 1
REMARK VINA RESULT:      -1.6      0.000      0.000
REMARK  Name = 40777125
REMARK  9 active torsions:
REMARK  status: ('A' for Active; 'I' for Inactive)
REMARK    1  A    between atoms: S_2  and  N_6
REMARK    2  A    between atoms: S_2  and  C_21
REMARK    3  A    between atoms: N_6  and  C_16
REMARK    4  A    between atoms: C_10  and  C_17
REMARK    5  A    between atoms: C_11  and  C_16
REMARK    6  A    between atoms: C_19  and  C_22
REMARK    7  A    between atoms: C_20  and  C_24
REMARK    8  A    between atoms: C_21  and  C_23
REMARK    9  A    between atoms: C_23  and  C_25
REMARK                            x       y       z     vdW  Elec       q    Type
REMARK                         _______ _______ _______ _____ _____    ______ ____
ROOT
ATOM      5  N   UNL     1      -2.590  -2.279  23.636  0.00  0.00    -0.297 NA
ATOM      9  C   UNL     1      -2.971  -1.467  26.081  0.00  0.00    +0.002 C 
ATOM     10  C   UNL     1      -3.973  -0.774  25.115  0.00  0.00    +0.055 C 
ATOM     11  C   UNL     1      -1.298  -1.861  24.240  0.00  0.00    +0.072 C 
ATOM     12  C   UNL     1      -1.529  -1.185  25.609  0.00  0.00    +0.024 C 
ATOM     13  C   UNL     1      -3.203  -2.987  25.948  0.00  0.00    +0.019 C 
ATOM     14  C   UNL     1      -3.555  -1.151  23.665  0.00  0.00    +0.094 C 
ATOM     15  C   UNL     1      -3.141  -3.381  24.462  0.00  0.00    +0.085 C 
ENDROOT
BRANCH  10  17
ATOM      7  N   UNL     1      -5.458   1.102  25.620  0.00  0.00    -0.237 NA
ATOM      8  N   UNL     1      -4.697   3.389  25.579  0.00  0.00    -0.232 NA
ATOM     17  C   UNL     1      -4.210   0.720  25.277  0.00  0.00    +0.050 A 
ATOM     18  C   UNL     1      -3.168   1.601  25.071  0.00  0.00    +0.052 A 
ATOM     19  C   UNL     1      -3.473   2.937  25.238  0.00  0.00    +0.076 A 
ATOM     20  C   UNL     1      -5.629   2.431  25.752  0.00  0.00    +0.127 A 
ATOM     24  C   UNL     1      -6.996   2.893  26.129  0.00  0.00    +0.088 C 
BRANCH  19  22
ATOM      1 BR   UNL     1      -0.465   2.016  25.819  0.00  0.00    -0.050 Br
ATOM     22  C   UNL     1      -2.472   3.959  25.050  0.00  0.00    +0.014 A 
ATOM     26  C   UNL     1      -1.115   3.714  25.262  0.00  0.00    +0.027 A 
ATOM     27  C   UNL     1      -2.896   5.224  24.642  0.00  0.00    +0.011 A 
ATOM     28  C   UNL     1      -0.183   4.734  25.067  0.00  0.00    +0.016 A 
ATOM     29  C   UNL     1      -1.965   6.243  24.447  0.00  0.00    +0.001 A 
ATOM     30  C   UNL     1      -0.608   5.998  24.659  0.00  0.00    +0.001 A 
ENDBRANCH  19  22
ENDBRANCH  10  17
BRANCH  11  16
ATOM     16  C   UNL     1      -0.474  -0.979  23.300  0.00  0.00    +0.124 C 
BRANCH  16   6
ATOM      6  N   UNL     1       0.854  -0.800  23.800  0.00  0.00    -0.193 NA
ATOM     31  H   UNL     1       1.229  -1.611  24.309  0.00  0.00    +0.148 HD
BRANCH   6   2
ATOM      2  S   UNL     1       2.016   0.109  22.899  0.00  0.00    +0.029 S 
ATOM      3  O   UNL     1       2.058   1.464  23.415  0.00  0.00    -0.158 OA
ATOM      4  O   UNL     1       1.840  -0.140  21.481  0.00  0.00    -0.158 OA
BRANCH   2  21
ATOM     21  C   UNL     1       3.511  -0.713  23.400  0.00  0.00    +0.185 C 
BRANCH  21  23
ATOM     23  C   UNL     1       4.735   0.140  23.111  0.00  0.00    +0.021 C 
ATOM     25  C   UNL     1       5.771   0.019  24.217  0.00  0.00    +0.005 C 
ENDBRANCH  21  23
ENDBRANCH   2  21
ENDBRANCH   6   2
ENDBRANCH  16   6
ENDBRANCH  11  16
TORSDOF 7
ENDMDL
MODEL 2
REMARK VINA RESULT:      -1.1      1.569      5.170
REMARK  Name = 40777125
REMARK  9 active torsions:
REMARK  status: ('A' for Active; 'I' for Inactive)
REMARK    1  A    between atoms: S_2  and  N_6
REMARK    2  A    between atoms: S_2  and  C_21
REMARK    3  A    between atoms: N_6  and  C_16
REMARK    4  A    between atoms: C_10  and  C_17
REMARK    5  A    between atoms: C_11  and  C_16
REMARK    6  A    between atoms: C_19  and  C_22
REMARK    7  A    between atoms: C_20  and  C_24
REMARK    8  A    between atoms: C_21  and  C_23
REMARK    9  A    between atoms: C_23  and  C_25
REMARK                            x       y       z     vdW  Elec       q    Type
REMARK                         _______ _______ _______ _____ _____    ______ ____
ROOT
ATOM      5  N   UNL     1      -0.148   4.041  25.429  0.00  0.00    -0.297 NA
ATOM      9  C   UNL     1      -2.173   4.133  23.793  0.00  0.00    +0.002 C 
ATOM     10  C   UNL     1      -2.635   3.682  25.206  0.00  0.00    +0.055 C 
ATOM     11  C   UNL     1       0.176   3.307  24.178  0.00  0.00    +0.072 C 
ATOM     12  C   UNL     1      -1.077   3.172  23.285  0.00  0.00    +0.024 C 
ATOM     13  C   UNL     1      -1.518   5.520  23.960  0.00  0.00    +0.019 C 
ATOM     14  C   UNL     1      -1.357   3.458  26.063  0.00  0.00    +0.094 C 
ATOM     15  C   UNL     1      -0.449   5.448  25.064  0.00  0.00    +0.085 C 
ENDROOT
BRANCH  10  17
ATOM      7  N   UNL     1      -4.838   2.793  25.789  0.00  0.00    -0.237 NA
ATOM      8  N   UNL     1      -5.397   0.465  25.511  0.00  0.00    -0.232 NA
ATOM     17  C   UNL     1      -3.609   2.517  25.306  0.00  0.00    +0.050 A 
ATOM     18  C   UNL     1      -3.205   1.258  24.911  0.00  0.00    +0.052 A 
ATOM     19  C   UNL     1      -4.151   0.261  25.036  0.00  0.00    +0.076 A 
ATOM     20  C   UNL     1      -5.669   1.736  25.864  0.00  0.00    +0.127 A 
ATOM     24  C   UNL     1      -7.037   2.002  26.395  0.00  0.00    +0.088 C 
BRANCH  19  22
ATOM      1 BR   UNL     1      -1.418  -0.911  26.215  0.00  0.00    -0.050 Br
ATOM     22  C   UNL     1      -3.854  -1.101  24.659  0.00  0.00    +0.014 A 
ATOM     26  C   UNL     1      -2.701  -1.754  25.093  0.00  0.00    +0.027 A 
ATOM     27  C   UNL     1      -4.763  -1.764  23.835  0.00  0.00    +0.011 A 
ATOM     28  C   UNL     1      -2.455  -3.071  24.702  0.00  0.00    +0.016 A 
ATOM     29  C   UNL     1      -4.519  -3.080  23.445  0.00  0.00    +0.001 A 
ATOM     30  C   UNL     1      -3.365  -3.734  23.879  0.00  0.00    +0.001 A 
ENDBRANCH  19  22
ENDBRANCH  10  17
BRANCH  11  16
ATOM     16  C   UNL     1       0.830   1.951  24.451  0.00  0.00    +0.124 C 
BRANCH  16   6
ATOM      6  N   UNL     1       1.617   1.529  23.333  0.00  0.00    -0.193 NA
ATOM     31  H   UNL     1       2.528   1.999  23.253  0.00  0.00    +0.148 HD
BRANCH   6   2
ATOM      2  S   UNL     1       1.586  -0.119  22.810  0.00  0.00    +0.029 S 
ATOM      3  O   UNL     1       1.491  -0.153  21.364  0.00  0.00    -0.158 OA
ATOM      4  O   UNL     1       0.662  -0.876  23.633  0.00  0.00    -0.158 OA
BRANCH   2  21
ATOM     21  C   UNL     1       3.231  -0.619  23.263  0.00  0.00    +0.185 C 
BRANCH  21  23
ATOM     23  C   UNL     1       4.238   0.489  23.003  0.00  0.00    +0.021 C 
ATOM     25  C   UNL     1       5.538   0.246  23.750  0.00  0.00    +0.005 C 
ENDBRANCH  21  23
ENDBRANCH   2  21
ENDBRANCH   6   2
ENDBRANCH  16   6
ENDBRANCH  11  16
TORSDOF 7
ENDMDL
MODEL 3
REMARK VINA RESULT:       0.5      2.928      5.343
REMARK  Name = 40777125
REMARK  9 active torsions:
REMARK  status: ('A' for Active; 'I' for Inactive)
REMARK    1  A    between atoms: S_2  and  N_6
REMARK    2  A    between atoms: S_2  and  C_21
REMARK    3  A    between atoms: N_6  and  C_16
REMARK    4  A    between atoms: C_10  and  C_17
REMARK    5  A    between atoms: C_11  and  C_16
REMARK    6  A    between atoms: C_19  and  C_22
REMARK    7  A    between atoms: C_20  and  C_24
REMARK    8  A    between atoms: C_21  and  C_23
REMARK    9  A    between atoms: C_23  and  C_25
REMARK                            x       y       z     vdW  Elec       q    Type
REMARK                         _______ _______ _______ _____ _____    ______ ____
ROOT
ATOM      5  N   UNL     1      -3.254  -2.034  26.047  0.00  0.00    -0.297 NA
ATOM      9  C   UNL     1      -2.379  -2.014  23.594  0.00  0.00    +0.002 C 
ATOM     10  C   UNL     1      -1.245  -1.619  24.579  0.00  0.00    +0.055 C 
ATOM     11  C   UNL     1      -4.178  -1.251  25.184  0.00  0.00    +0.072 C 
ATOM     12  C   UNL     1      -3.573  -1.053  23.777  0.00  0.00    +0.024 C 
ATOM     13  C   UNL     1      -2.861  -3.420  24.011  0.00  0.00    +0.019 C 
ATOM     14  C   UNL     1      -1.888  -1.457  25.986  0.00  0.00    +0.094 C 
ATOM     15  C   UNL     1      -3.197  -3.417  25.512  0.00  0.00    +0.085 C 
ENDROOT
BRANCH  10  17
ATOM      7  N   UNL     1       0.849  -0.734  23.677  0.00  0.00    -0.237 NA
ATOM      8  N   UNL     1       1.289   1.632  23.540  0.00  0.00    -0.232 NA
ATOM     17  C   UNL     1      -0.354  -0.440  24.213  0.00  0.00    +0.050 A 
ATOM     18  C   UNL     1      -0.799   0.846  24.441  0.00  0.00    +0.052 A 
ATOM     19  C   UNL     1       0.073   1.853  24.080  0.00  0.00    +0.076 A 
ATOM     20  C   UNL     1       1.608   0.335  23.369  0.00  0.00    +0.127 A 
ATOM     24  C   UNL     1       2.946   0.051  22.775  0.00  0.00    +0.088 C 
BRANCH  19  22
ATOM      1 BR   UNL     1      -1.193   2.565  26.929  0.00  0.00    -0.050 Br
ATOM     22  C   UNL     1      -0.273   3.241  24.267  0.00  0.00    +0.014 A 
ATOM     26  C   UNL     1      -0.833   3.711  25.455  0.00  0.00    +0.027 A 
ATOM     27  C   UNL     1      -0.029   4.124  23.215  0.00  0.00    +0.011 A 
ATOM     28  C   UNL     1      -1.151   5.062  25.591  0.00  0.00    +0.016 A 
ATOM     29  C   UNL     1      -0.346   5.475  23.350  0.00  0.00    +0.001 A 
ATOM     30  C   UNL     1      -0.907   5.945  24.539  0.00  0.00    +0.001 A 
ENDBRANCH  19  22
ENDBRANCH  10  17
BRANCH  11  16
ATOM     16  C   UNL     1      -4.584   0.079  25.823  0.00  0.00    +0.124 C 
BRANCH  16   6
ATOM      6  N   UNL     1      -3.939   1.176  25.171  0.00  0.00    -0.193 NA
ATOM     31  H   UNL     1      -3.302   0.904  24.411  0.00  0.00    +0.148 HD
BRANCH   6   2
ATOM      2  S   UNL     1      -4.774   2.672  24.936  0.00  0.00    +0.029 S 
ATOM      3  O   UNL     1      -4.392   3.595  25.987  0.00  0.00    -0.158 OA
ATOM      4  O   UNL     1      -6.172   2.411  24.649  0.00  0.00    -0.158 OA
BRANCH   2  21
ATOM     21  C   UNL     1      -4.014   3.218  23.424  0.00  0.00    +0.185 C 
BRANCH  21  23
ATOM     23  C   UNL     1      -3.170   2.119  22.801  0.00  0.00    +0.021 C 
ATOM     25  C   UNL     1      -2.781   2.460  21.372  0.00  0.00    +0.005 C 
ENDBRANCH  21  23
ENDBRANCH   2  21
ENDBRANCH   6   2
ENDBRANCH  16   6
ENDBRANCH  11  16
TORSDOF 7
ENDMDL
MODEL 4
REMARK VINA RESULT:       1.0      3.097      6.119
REMARK  Name = 40777125
REMARK  9 active torsions:
REMARK  status: ('A' for Active; 'I' for Inactive)
REMARK    1  A    between atoms: S_2  and  N_6
REMARK    2  A    between atoms: S_2  and  C_21
REMARK    3  A    between atoms: N_6  and  C_16
REMARK    4  A    between atoms: C_10  and  C_17
REMARK    5  A    between atoms: C_11  and  C_16
REMARK    6  A    between atoms: C_19  and  C_22
REMARK    7  A    between atoms: C_20  and  C_24
REMARK    8  A    between atoms: C_21  and  C_23
REMARK    9  A    between atoms: C_23  and  C_25
REMARK                            x       y       z     vdW  Elec       q    Type
REMARK                         _______ _______ _______ _____ _____    ______ ____
ROOT
ATOM      5  N   UNL     1      -4.016  -1.322  25.950  0.00  0.00    -0.297 NA
ATOM      9  C   UNL     1      -2.680  -1.452  23.718  0.00  0.00    +0.002 C 
ATOM     10  C   UNL     1      -1.734  -1.096  24.898  0.00  0.00    +0.055 C 
ATOM     11  C   UNL     1      -4.694  -0.511  24.904  0.00  0.00    +0.072 C 
ATOM     12  C   UNL     1      -3.813  -0.406  23.640  0.00  0.00    +0.024 C 
ATOM     13  C   UNL     1      -3.335  -2.806  24.064  0.00  0.00    +0.019 C 
ATOM     14  C   UNL     1      -2.626  -0.840  26.147  0.00  0.00    +0.094 C 
ATOM     15  C   UNL     1      -3.956  -2.724  25.469  0.00  0.00    +0.085 C 
ENDROOT
BRANCH  10  17
ATOM      7  N   UNL     1      -1.042   1.239  25.118  0.00  0.00    -0.237 NA
ATOM      8  N   UNL     1       1.099   2.023  24.335  0.00  0.00    -0.232 NA
ATOM     17  C   UNL     1      -0.705   0.005  24.688  0.00  0.00    +0.050 A 
ATOM     18  C   UNL     1       0.497  -0.294  24.081  0.00  0.00    +0.052 A 
ATOM     19  C   UNL     1       1.370   0.764  23.930  0.00  0.00    +0.076 A 
ATOM     20  C   UNL     1      -0.107   2.186  24.912  0.00  0.00    +0.127 A 
ATOM     24  C   UNL     1      -0.443   3.564  25.372  0.00  0.00    +0.088 C 
BRANCH  19  22
ATOM      1 BR   UNL     1       1.303  -0.538  21.010  0.00  0.00    -0.050 Br
ATOM     22  C   UNL     1       2.661   0.584  23.309  0.00  0.00    +0.014 A 
ATOM     26  C   UNL     1       2.798   0.030  22.037  0.00  0.00    +0.027 A 
ATOM     27  C   UNL     1       3.791   0.985  24.022  0.00  0.00    +0.011 A 
ATOM     28  C   UNL     1       4.066  -0.125  21.476  0.00  0.00    +0.016 A 
ATOM     29  C   UNL     1       5.059   0.831  23.462  0.00  0.00    +0.001 A 
ATOM     30  C   UNL     1       5.197   0.276  22.189  0.00  0.00    +0.001 A 
ENDBRANCH  19  22
ENDBRANCH  10  17
BRANCH  11  16
ATOM     16  C   UNL     1      -5.119   0.865  25.418  0.00  0.00    +0.124 C 
BRANCH  16   6
ATOM      6  N   UNL     1      -4.021   1.782  25.392  0.00  0.00    -0.193 NA
ATOM     31  H   UNL     1      -3.245   1.498  24.780  0.00  0.00    +0.148 HD
BRANCH   6   2
ATOM      2  S   UNL     1      -4.298   3.486  25.491  0.00  0.00    +0.029 S 
ATOM      3  O   UNL     1      -3.460   4.039  26.537  0.00  0.00    -0.158 OA
ATOM      4  O   UNL     1      -5.723   3.752  25.464  0.00  0.00    -0.158 OA
BRANCH   2  21
ATOM     21  C   UNL     1      -3.632   4.001  23.925  0.00  0.00    +0.185 C 
BRANCH  21  23
ATOM     23  C   UNL     1      -3.905   2.971  22.842  0.00  0.00    +0.021 C 
ATOM     25  C   UNL     1      -2.616   2.474  22.209  0.00  0.00    +0.005 C 
ENDBRANCH  21  23
ENDBRANCH   2  21
ENDBRANCH   6   2
ENDBRANCH  16   6
ENDBRANCH  11  16
TORSDOF 7
ENDMDL
MODEL 5
REMARK VINA RESULT:       1.6      1.785      2.320
REMARK  Name = 40777125
REMARK  9 active torsions:
REMARK  status: ('A' for Active; 'I' for Inactive)
REMARK    1  A    between atoms: S_2  and  N_6
REMARK    2  A    between atoms: S_2  and  C_21
REMARK    3  A    between atoms: N_6  and  C_16
REMARK    4  A    between atoms: C_10  and  C_17
REMARK    5  A    between atoms: C_11  and  C_16
REMARK    6  A    between atoms: C_19  and  C_22
REMARK    7  A    between atoms: C_20  and  C_24
REMARK    8  A    between atoms: C_21  and  C_23
REMARK    9  A    between atoms: C_23  and  C_25
REMARK                            x       y       z     vdW  Elec       q    Type
REMARK                         _______ _______ _______ _____ _____    ______ ____
ROOT
ATOM      5  N   UNL     1      -1.880  -2.145  23.898  0.00  0.00    -0.297 NA
ATOM      9  C   UNL     1      -3.649  -1.894  25.793  0.00  0.00    +0.002 C 
ATOM     10  C   UNL     1      -3.917  -0.866  24.659  0.00  0.00    +0.055 C 
ATOM     11  C   UNL     1      -1.202  -2.056  25.218  0.00  0.00    +0.072 C 
ATOM     12  C   UNL     1      -2.214  -1.701  26.329  0.00  0.00    +0.024 C 
ATOM     13  C   UNL     1      -3.707  -3.295  25.147  0.00  0.00    +0.019 C 
ATOM     14  C   UNL     1      -2.716  -0.939  23.674  0.00  0.00    +0.094 C 
ATOM     15  C   UNL     1      -2.773  -3.329  23.926  0.00  0.00    +0.085 C 
ENDROOT
BRANCH  10  17
ATOM      7  N   UNL     1      -5.460   0.767  25.626  0.00  0.00    -0.237 NA
ATOM      8  N   UNL     1      -4.919   3.112  25.776  0.00  0.00    -0.232 NA
ATOM     17  C   UNL     1      -4.255   0.565  25.052  0.00  0.00    +0.050 A 
ATOM     18  C   UNL     1      -3.342   1.570  24.811  0.00  0.00    +0.052 A 
ATOM     19  C   UNL     1      -3.731   2.837  25.198  0.00  0.00    +0.076 A 
ATOM     20  C   UNL     1      -5.722   2.046  25.957  0.00  0.00    +0.127 A 
ATOM     24  C   UNL     1      -7.045   2.310  26.593  0.00  0.00    +0.088 C 
BRANCH  19  22
ATOM      1 BR   UNL     1      -0.740   2.477  26.272  0.00  0.00    -0.050 Br
ATOM     22  C   UNL     1      -2.867   3.976  24.999  0.00  0.00    +0.014 A 
ATOM     26  C   UNL     1      -1.535   3.975  25.411  0.00  0.00    +0.027 A 
ATOM     27  C   UNL     1      -3.402   5.101  24.372  0.00  0.00    +0.011 A 
ATOM     28  C   UNL     1      -0.737   5.099  25.198  0.00  0.00    +0.016 A 
ATOM     29  C   UNL     1      -2.605   6.225  24.158  0.00  0.00    +0.001 A 
ATOM     30  C   UNL     1      -1.272   6.224  24.571  0.00  0.00    +0.001 A 
ENDBRANCH  19  22
ENDBRANCH  10  17
BRANCH  11  16
ATOM     16  C   UNL     1      -0.014  -1.092  25.199  0.00  0.00    +0.124 C 
BRANCH  16   6
ATOM      6  N   UNL     1       0.680  -1.161  23.951  0.00  0.00    -0.193 NA
ATOM     31  H   UNL     1       0.443  -1.982  23.377  0.00  0.00    +0.148 HD
BRANCH   6   2
ATOM      2  S   UNL     1       1.038   0.280  23.065  0.00  0.00    +0.029 S 
ATOM      3  O   UNL     1       2.017  -0.027  22.040  0.00  0.00    -0.158 OA
ATOM      4  O   UNL     1       1.249   1.380  23.986  0.00  0.00    -0.158 OA
BRANCH   2  21
ATOM     21  C   UNL     1      -0.526   0.550  22.264  0.00  0.00    +0.185 C 
BRANCH  21  23
ATOM     23  C   UNL     1      -1.104   1.909  22.624  0.00  0.00    +0.021 C 
ATOM     25  C   UNL     1      -2.378   2.195  21.846  0.00  0.00    +0.005 C 
ENDBRANCH  21  23
ENDBRANCH   2  21
ENDBRANCH   6   2
ENDBRANCH  16   6
ENDBRANCH  11  16
TORSDOF 7
ENDMDL
MODEL 6
REMARK VINA RESULT:       2.0      2.827      6.208
REMARK  Name = 40777125
REMARK  9 active torsions:
REMARK  status: ('A' for Active; 'I' for Inactive)
REMARK    1  A    between atoms: S_2  and  N_6
REMARK    2  A    between atoms: S_2  and  C_21
REMARK    3  A    between atoms: N_6  and  C_16
REMARK    4  A    between atoms: C_10  and  C_17
REMARK    5  A    between atoms: C_11  and  C_16
REMARK    6  A    between atoms: C_19  and  C_22
REMARK    7  A    between atoms: C_20  and  C_24
REMARK    8  A    between atoms: C_21  and  C_23
REMARK    9  A    between atoms: C_23  and  C_25
REMARK                            x       y       z     vdW  Elec       q    Type
REMARK                         _______ _______ _______ _____ _____    ______ ____
ROOT
ATOM      5  N   UNL     1      -4.813   2.700  23.900  0.00  0.00    -0.297 NA
ATOM      9  C   UNL     1      -3.592   3.770  25.937  0.00  0.00    +0.002 C 
ATOM     10  C   UNL     1      -2.597   3.537  24.766  0.00  0.00    +0.055 C 
ATOM     11  C   UNL     1      -5.129   1.941  25.139  0.00  0.00    +0.072 C 
ATOM     12  C   UNL     1      -4.256   2.429  26.315  0.00  0.00    +0.024 C 
ATOM     13  C   UNL     1      -4.706   4.692  25.397  0.00  0.00    +0.019 C 
ATOM     14  C   UNL     1      -3.346   2.720  23.676  0.00  0.00    +0.094 C 
ATOM     15  C   UNL     1      -5.271   4.097  24.096  0.00  0.00    +0.085 C 
ENDROOT
BRANCH  10  17
ATOM      7  N   UNL     1      -0.815   3.053  26.370  0.00  0.00    -0.237 NA
ATOM      8  N   UNL     1       1.214   1.919  25.732  0.00  0.00    -0.232 NA
ATOM     17  C   UNL     1      -1.231   2.951  25.090  0.00  0.00    +0.050 A 
ATOM     18  C   UNL     1      -0.491   2.355  24.090  0.00  0.00    +0.052 A 
ATOM     19  C   UNL     1       0.735   1.851  24.472  0.00  0.00    +0.076 A 
ATOM     20  C   UNL     1       0.399   2.525  26.617  0.00  0.00    +0.127 A 
ATOM     24  C   UNL     1       0.894   2.620  28.020  0.00  0.00    +0.088 C 
BRANCH  19  22
ATOM      1 BR   UNL     1      -0.631  -0.458  22.731  0.00  0.00    -0.050 Br
ATOM     22  C   UNL     1       1.606   1.204  23.519  0.00  0.00    +0.014 A 
ATOM     26  C   UNL     1       1.159   0.179  22.686  0.00  0.00    +0.027 A 
ATOM     27  C   UNL     1       2.931   1.635  23.447  0.00  0.00    +0.011 A 
ATOM     28  C   UNL     1       2.037  -0.416  21.780  0.00  0.00    +0.016 A 
ATOM     29  C   UNL     1       3.809   1.040  22.541  0.00  0.00    +0.001 A 
ATOM     30  C   UNL     1       3.362   0.014  21.707  0.00  0.00    +0.001 A 
ENDBRANCH  19  22
ENDBRANCH  10  17
BRANCH  11  16
ATOM     16  C   UNL     1      -5.021   0.428  24.939  0.00  0.00    +0.124 C 
BRANCH  16   6
ATOM      6  N   UNL     1      -3.675   0.047  24.639  0.00  0.00    -0.193 NA
ATOM     31  H   UNL     1      -3.125   0.773  24.162  0.00  0.00    +0.148 HD
BRANCH   6   2
ATOM      2  S   UNL     1      -2.784  -0.958  25.728  0.00  0.00    +0.029 S 
ATOM      3  O   UNL     1      -3.683  -1.457  26.751  0.00  0.00    -0.158 OA
ATOM      4  O   UNL     1      -1.539  -0.308  26.087  0.00  0.00    -0.158 OA
BRANCH   2  21
ATOM     21  C   UNL     1      -2.384  -2.310  24.645  0.00  0.00    +0.185 C 
BRANCH  21  23
ATOM     23  C   UNL     1      -3.561  -3.259  24.485  0.00  0.00    +0.021 C 
ATOM     25  C   UNL     1      -4.525  -2.773  23.415  0.00  0.00    +0.005 C 
ENDBRANCH  21  23
ENDBRANCH   2  21
ENDBRANCH   6   2
ENDBRANCH  16   6
ENDBRANCH  11  16
TORSDOF 7
ENDMDL
MODEL 7
REMARK VINA RESULT:       2.2      3.258      7.562
REMARK  Name = 40777125
REMARK  9 active torsions:
REMARK  status: ('A' for Active; 'I' for Inactive)
REMARK    1  A    between atoms: S_2  and  N_6
REMARK    2  A    between atoms: S_2  and  C_21
REMARK    3  A    between atoms: N_6  and  C_16
REMARK    4  A    between atoms: C_10  and  C_17
REMARK    5  A    between atoms: C_11  and  C_16
REMARK    6  A    between atoms: C_19  and  C_22
REMARK    7  A    between atoms: C_20  and  C_24
REMARK    8  A    between atoms: C_21  and  C_23
REMARK    9  A    between atoms: C_23  and  C_25
REMARK                            x       y       z     vdW  Elec       q    Type
REMARK                         _______ _______ _______ _____ _____    ______ ____
ROOT
ATOM      5  N   UNL     1      -2.790   4.540  24.628  0.00  0.00    -0.297 NA
ATOM      9  C   UNL     1      -0.285   4.065  25.156  0.00  0.00    +0.002 C 
ATOM     10  C   UNL     1      -0.745   3.244  23.920  0.00  0.00    +0.055 C 
ATOM     11  C   UNL     1      -2.628   4.213  26.069  0.00  0.00    +0.072 C 
ATOM     12  C   UNL     1      -1.191   3.727  26.359  0.00  0.00    +0.024 C 
ATOM     13  C   UNL     1      -0.518   5.552  24.815  0.00  0.00    +0.019 C 
ATOM     14  C   UNL     1      -2.285   3.422  23.792  0.00  0.00    +0.094 C 
ATOM     15  C   UNL     1      -1.969   5.742  24.340  0.00  0.00    +0.085 C 
ENDROOT
BRANCH  10  17
ATOM      7  N   UNL     1       0.928   1.540  23.390  0.00  0.00    -0.237 NA
ATOM      8  N   UNL     1       0.486  -0.816  23.643  0.00  0.00    -0.232 NA
ATOM     17  C   UNL     1      -0.324   1.784  23.830  0.00  0.00    +0.050 A 
ATOM     18  C   UNL     1      -1.217   0.795  24.189  0.00  0.00    +0.052 A 
ATOM     19  C   UNL     1      -0.752  -0.499  24.076  0.00  0.00    +0.076 A 
ATOM     20  C   UNL     1       1.262   0.237  23.322  0.00  0.00    +0.127 A 
ATOM     24  C   UNL     1       2.638  -0.072  22.839  0.00  0.00    +0.088 C 
BRANCH  19  22
ATOM      1 BR   UNL     1      -1.702  -0.605  27.128  0.00  0.00    -0.050 Br
ATOM     22  C   UNL     1      -1.588  -1.625  24.419  0.00  0.00    +0.014 A 
ATOM     26  C   UNL     1      -2.084  -1.812  25.709  0.00  0.00    +0.027 A 
ATOM     27  C   UNL     1      -1.898  -2.541  23.414  0.00  0.00    +0.011 A 
ATOM     28  C   UNL     1      -2.889  -2.915  25.995  0.00  0.00    +0.016 A 
ATOM     29  C   UNL     1      -2.703  -3.643  23.698  0.00  0.00    +0.001 A 
ATOM     30  C   UNL     1      -3.199  -3.830  24.989  0.00  0.00    +0.001 A 
ENDBRANCH  19  22
ENDBRANCH  10  17
BRANCH  11  16
ATOM     16  C   UNL     1      -3.677   3.215  26.562  0.00  0.00    +0.124 C 
BRANCH  16   6
ATOM      6  N   UNL     1      -4.882   3.322  25.798  0.00  0.00    -0.193 NA
ATOM     31  H   UNL     1      -4.787   3.864  24.929  0.00  0.00    +0.148 HD
BRANCH   6   2
ATOM      2  S   UNL     1      -5.997   2.002  25.728  0.00  0.00    +0.029 S 
ATOM      3  O   UNL     1      -6.729   2.069  24.478  0.00  0.00    -0.158 OA
ATOM      4  O   UNL     1      -6.697   1.885  26.993  0.00  0.00    -0.158 OA
BRANCH   2  21
ATOM     21  C   UNL     1      -4.860   0.639  25.623  0.00  0.00    +0.185 C 
BRANCH  21  23
ATOM     23  C   UNL     1      -4.433   0.384  24.187  0.00  0.00    +0.021 C 
ATOM     25  C   UNL     1      -4.875  -0.990  23.712  0.00  0.00    +0.005 C 
ENDBRANCH  21  23
ENDBRANCH   2  21
ENDBRANCH   6   2
ENDBRANCH  16   6
ENDBRANCH  11  16
TORSDOF 7
ENDMDL
