MODEL 1
REMARK VINA RESULT:       1.3      0.000      0.000
REMARK  Name = 45361691
REMARK  11 active torsions:
REMARK  status: ('A' for Active; 'I' for Inactive)
REMARK    1  A    between atoms: O_1  and  C_14
REMARK    2  A    between atoms: O_1  and  C_23
REMARK    3  A    between atoms: O_2  and  C_15
REMARK    4  A    between atoms: O_3  and  C_19
REMARK    5  A    between atoms: N_7  and  C_28
REMARK    6  A    between atoms: C_8  and  C_18
REMARK    7  A    between atoms: C_10  and  C_19
REMARK    8  A    between atoms: C_10  and  C_21
REMARK    9  A    between atoms: C_11  and  C_20
REMARK   10  A    between atoms: C_20  and  C_22
REMARK   11  A    between atoms: C_33  and  C_34
REMARK                            x       y       z     vdW  Elec       q    Type
REMARK                         _______ _______ _______ _____ _____    ______ ____
ROOT
ATOM      8  C   UNL     1      -3.697   1.676  24.639  0.00  0.00    -0.023 C 
ATOM      9  C   UNL     1      -4.475   0.335  24.342  0.00  0.00    +0.007 C 
ATOM     10  C   UNL     1      -3.633  -0.998  24.395  0.00  0.00    +0.031 C 
ATOM     11  C   UNL     1      -4.653   2.868  24.215  0.00  0.00    +0.032 C 
ATOM     12  C   UNL     1      -2.419   1.708  23.757  0.00  0.00    +0.011 C 
ATOM     13  C   UNL     1      -5.808   0.287  25.121  0.00  0.00    +0.007 C 
ATOM     14  C   UNL     1      -2.342  -0.813  23.540  0.00  0.00    +0.186 C 
ATOM     15  C   UNL     1      -6.039   2.818  24.900  0.00  0.00    +0.119 C 
ATOM     16  C   UNL     1      -1.560   0.454  23.872  0.00  0.00    +0.046 C 
ATOM     17  C   UNL     1      -6.714   1.459  24.743  0.00  0.00    +0.032 C 
ATOM     18  C   UNL     1      -3.262   1.826  26.117  0.00  0.00    +0.012 C 
ATOM     21  C   UNL     1      -4.459  -2.146  23.747  0.00  0.00    +0.017 C 
ENDROOT
BRANCH  15   2
ATOM      2  O   UNL     1      -5.935   3.146  26.282  0.00  0.00    -0.391 OA
ATOM     35  H   UNL     1      -6.813   3.434  26.585  0.00  0.00    +0.210 HD
ENDBRANCH  15   2
BRANCH  14   1
ATOM      1  O   UNL     1      -1.444  -1.912  23.693  0.00  0.00    -0.446 OA
BRANCH   1  23
ATOM      5  O   UNL     1       0.091  -1.756  25.381  0.00  0.00    -0.226 OA
ATOM      7  N   UNL     1       0.599  -1.153  23.177  0.00  0.00    -0.251 N 
ATOM     23  C   UNL     1      -0.205  -1.615  24.201  0.00  0.00    +0.405 C 
ATOM     37  H   UNL     1       0.171  -1.107  22.255  0.00  0.00    +0.158 HD
BRANCH   7  28
ATOM     28  C   UNL     1       1.947  -0.735  23.251  0.00  0.00    +0.036 A 
ATOM     29  C   UNL     1       2.301   0.553  22.847  0.00  0.00    +0.023 A 
ATOM     30  C   UNL     1       2.924  -1.609  23.726  0.00  0.00    +0.023 A 
ATOM     31  C   UNL     1       3.631   0.966  22.921  0.00  0.00    +0.005 A 
ATOM     32  C   UNL     1       4.255  -1.196  23.799  0.00  0.00    +0.005 A 
ATOM     33  C   UNL     1       4.607   0.091  23.396  0.00  0.00    -0.050 A 
ATOM     34  C   UNL     1       6.030   0.533  23.476  0.00  0.00    +0.044 C 
ENDBRANCH   7  28
ENDBRANCH   1  23
ENDBRANCH  14   1
BRANCH  10  19
ATOM     19  C   UNL     1      -3.300  -1.476  25.822  0.00  0.00    +0.166 C 
BRANCH  19   3
ATOM      3  O   UNL     1      -3.296  -2.886  25.818  0.00  0.00    -0.394 OA
ATOM     36  H   UNL     1      -2.380  -3.174  25.657  0.00  0.00    +0.209 HD
ENDBRANCH  19   3
ENDBRANCH  10  19
BRANCH  11  20
ATOM     20  C   UNL     1      -4.043   4.270  24.371  0.00  0.00    +0.102 C 
BRANCH  20  22
ATOM      4  O   UNL     1      -3.417   4.463  26.660  0.00  0.00    -0.276 OA
ATOM      6  N   UNL     1      -1.730   4.049  25.137  0.00  0.00    -0.301 N 
ATOM     22  C   UNL     1      -3.046   4.270  25.502  0.00  0.00    +0.216 C 
ATOM     24  C   UNL     1      -0.648   4.025  26.110  0.00  0.00    +0.108 C 
ATOM     25  C   UNL     1      -1.228   3.810  23.788  0.00  0.00    +0.108 C 
ATOM     26  C   UNL     1       0.533   3.441  25.351  0.00  0.00    +0.020 C 
ATOM     27  C   UNL     1       0.285   3.912  23.923  0.00  0.00    +0.020 C 
ENDBRANCH  20  22
ENDBRANCH  11  20
TORSDOF 8
ENDMDL
MODEL 2
REMARK VINA RESULT:       5.2      2.070      4.526
REMARK  Name = 45361691
REMARK  11 active torsions:
REMARK  status: ('A' for Active; 'I' for Inactive)
REMARK    1  A    between atoms: O_1  and  C_14
REMARK    2  A    between atoms: O_1  and  C_23
REMARK    3  A    between atoms: O_2  and  C_15
REMARK    4  A    between atoms: O_3  and  C_19
REMARK    5  A    between atoms: N_7  and  C_28
REMARK    6  A    between atoms: C_8  and  C_18
REMARK    7  A    between atoms: C_10  and  C_19
REMARK    8  A    between atoms: C_10  and  C_21
REMARK    9  A    between atoms: C_11  and  C_20
REMARK   10  A    between atoms: C_20  and  C_22
REMARK   11  A    between atoms: C_33  and  C_34
REMARK                            x       y       z     vdW  Elec       q    Type
REMARK                         _______ _______ _______ _____ _____    ______ ____
ROOT
ATOM      8  C   UNL     1      -3.390   1.679  24.344  0.00  0.00    -0.023 C 
ATOM      9  C   UNL     1      -2.570   2.573  25.353  0.00  0.00    +0.007 C 
ATOM     10  C   UNL     1      -1.135   3.031  24.887  0.00  0.00    +0.031 C 
ATOM     11  C   UNL     1      -4.625   1.090  25.145  0.00  0.00    +0.032 C 
ATOM     12  C   UNL     1      -2.483   0.510  23.874  0.00  0.00    +0.011 C 
ATOM     13  C   UNL     1      -3.451   3.702  25.931  0.00  0.00    +0.007 C 
ATOM     14  C   UNL     1      -0.353   1.787  24.365  0.00  0.00    +0.186 C 
ATOM     15  C   UNL     1      -5.494   2.177  25.821  0.00  0.00    +0.119 C 
ATOM     16  C   UNL     1      -1.125   0.959  23.344  0.00  0.00    +0.046 C 
ATOM     17  C   UNL     1      -4.665   3.137  26.669  0.00  0.00    +0.032 C 
ATOM     18  C   UNL     1      -3.872   2.445  23.088  0.00  0.00    +0.012 C 
ATOM     21  C   UNL     1      -0.357   3.588  26.115  0.00  0.00    +0.017 C 
ENDROOT
BRANCH  15   2
ATOM      2  O   UNL     1      -6.236   2.910  24.851  0.00  0.00    -0.391 OA
ATOM     35  H   UNL     1      -6.073   2.503  23.984  0.00  0.00    +0.210 HD
ENDBRANCH  15   2
BRANCH  14   1
ATOM      1  O   UNL     1       0.884   2.156  23.756  0.00  0.00    -0.446 OA
BRANCH   1  23
ATOM      5  O   UNL     1       1.351   0.004  23.138  0.00  0.00    -0.226 OA
ATOM      7  N   UNL     1       3.037   1.580  23.532  0.00  0.00    -0.251 N 
ATOM     23  C   UNL     1       1.735   1.127  23.443  0.00  0.00    +0.405 C 
ATOM     37  H   UNL     1       3.156   2.553  23.803  0.00  0.00    +0.158 HD
BRANCH   7  28
ATOM     28  C   UNL     1       4.228   0.857  23.295  0.00  0.00    +0.036 A 
ATOM     29  C   UNL     1       4.506   0.373  22.016  0.00  0.00    +0.023 A 
ATOM     30  C   UNL     1       5.125   0.626  24.337  0.00  0.00    +0.023 A 
ATOM     31  C   UNL     1       5.682  -0.340  21.781  0.00  0.00    +0.005 A 
ATOM     32  C   UNL     1       6.300  -0.087  24.103  0.00  0.00    +0.005 A 
ATOM     33  C   UNL     1       6.578  -0.570  22.824  0.00  0.00    -0.050 A 
ATOM     34  C   UNL     1       7.835  -1.332  22.573  0.00  0.00    +0.044 C 
ENDBRANCH   7  28
ENDBRANCH   1  23
ENDBRANCH  14   1
BRANCH  10  19
ATOM     19  C   UNL     1      -1.144   4.168  23.846  0.00  0.00    +0.166 C 
BRANCH  19   3
ATOM      3  O   UNL     1      -0.639   5.329  24.467  0.00  0.00    -0.394 OA
ATOM     36  H   UNL     1      -1.038   6.095  24.018  0.00  0.00    +0.209 HD
ENDBRANCH  19   3
ENDBRANCH  10  19
BRANCH  11  20
ATOM     20  C   UNL     1      -5.519   0.132  24.342  0.00  0.00    +0.102 C 
BRANCH  20  22
ATOM      4  O   UNL     1      -4.918  -1.647  22.877  0.00  0.00    -0.276 OA
ATOM      6  N   UNL     1      -3.833  -1.546  24.915  0.00  0.00    -0.301 N 
ATOM     22  C   UNL     1      -4.735  -1.100  23.965  0.00  0.00    +0.216 C 
ATOM     24  C   UNL     1      -3.006  -2.726  24.707  0.00  0.00    +0.108 C 
ATOM     25  C   UNL     1      -3.566  -0.943  26.216  0.00  0.00    +0.108 C 
ATOM     26  C   UNL     1      -1.965  -2.661  25.813  0.00  0.00    +0.020 C 
ATOM     27  C   UNL     1      -2.718  -1.974  26.946  0.00  0.00    +0.020 C 
ENDBRANCH  20  22
ENDBRANCH  11  20
TORSDOF 8
ENDMDL
