MODEL 1
REMARK VINA RESULT:      -5.5      0.000      0.000
REMARK  Name = 45783692
REMARK  6 active torsions:
REMARK  status: ('A' for Active; 'I' for Inactive)
REMARK    1  A    between atoms: O_3  and  C_25
REMARK    2  A    between atoms: O_3  and  C_26
REMARK    3  A    between atoms: N_4  and  C_12
REMARK    4  A    between atoms: C_8  and  C_13
REMARK    5  A    between atoms: C_12  and  C_14
REMARK    6  A    between atoms: C_17  and  C_20
REMARK                            x       y       z     vdW  Elec       q    Type
REMARK                         _______ _______ _______ _____ _____    ______ ____
ROOT
ATOM      4  N   UNL     1      -4.805   1.405  25.279  0.00  0.00    -0.287 NA
ATOM      8  C   UNL     1      -4.140   2.239  24.258  0.00  0.00    +0.146 C 
ATOM      9  C   UNL     1      -4.672   3.662  24.507  0.00  0.00    +0.030 C 
ATOM     10  C   UNL     1      -5.674   3.518  25.644  0.00  0.00    +0.017 C 
ATOM     11  C   UNL     1      -6.078   2.058  25.581  0.00  0.00    +0.085 C 
ENDROOT
BRANCH   8  13
ATOM      2  O   UNL     1      -2.033   2.887  25.315  0.00  0.00    -0.336 OA
ATOM      5  N   UNL     1      -1.794   1.480  23.588  0.00  0.00    -0.190 NA
ATOM      6  N   UNL     1      -0.658   2.656  25.188  0.00  0.00    -0.056 NA
ATOM     13  C   UNL     1      -2.629   2.158  24.335  0.00  0.00    +0.245 A 
ATOM     17  C   UNL     1      -0.598   1.817  24.149  0.00  0.00    +0.204 A 
BRANCH  17  20
ATOM      7  N   UNL     1       3.017   1.589  23.305  0.00  0.00    -0.221 NA
ATOM     20  C   UNL     1       0.642   1.297  23.647  0.00  0.00    +0.041 A 
ATOM     22  C   UNL     1       0.699   0.050  23.035  0.00  0.00    +0.018 A 
ATOM     23  C   UNL     1       1.818   2.020  23.757  0.00  0.00    +0.126 A 
ATOM     24  C   UNL     1       1.915  -0.428  22.557  0.00  0.00    +0.068 A 
ATOM     25  C   UNL     1       3.035   0.373  22.715  0.00  0.00    +0.214 A 
BRANCH  25   3
ATOM      3  O   UNL     1       4.244  -0.076  22.253  0.00  0.00    -0.480 OA
ATOM     26  C   UNL     1       5.351   0.041  23.137  0.00  0.00    +0.279 C 
ENDBRANCH  25   3
ENDBRANCH  17  20
ENDBRANCH   8  13
BRANCH   4  12
ATOM     12  C   UNL     1      -4.985   0.020  24.861  0.00  0.00    +0.123 C 
BRANCH  12  14
ATOM      1  F   UNL     1      -4.347  -2.167  23.178  0.00  0.00    -0.205 F 
ATOM     14  C   UNL     1      -3.713  -0.775  24.993  0.00  0.00    +0.002 A 
ATOM     15  C   UNL     1      -3.462  -1.841  24.130  0.00  0.00    +0.128 A 
ATOM     16  C   UNL     1      -2.784  -0.442  25.979  0.00  0.00    +0.008 A 
ATOM     18  C   UNL     1      -2.282  -2.576  24.253  0.00  0.00    +0.038 A 
ATOM     19  C   UNL     1      -1.605  -1.177  26.103  0.00  0.00    +0.000 A 
ATOM     21  C   UNL     1      -1.354  -2.243  25.240  0.00  0.00    +0.003 A 
ENDBRANCH  12  14
ENDBRANCH   4  12
TORSDOF 5
ENDMDL
MODEL 2
REMARK VINA RESULT:      -5.0     15.396     17.618
REMARK  Name = 45783692
REMARK  6 active torsions:
REMARK  status: ('A' for Active; 'I' for Inactive)
REMARK    1  A    between atoms: O_3  and  C_25
REMARK    2  A    between atoms: O_3  and  C_26
REMARK    3  A    between atoms: N_4  and  C_12
REMARK    4  A    between atoms: C_8  and  C_13
REMARK    5  A    between atoms: C_12  and  C_14
REMARK    6  A    between atoms: C_17  and  C_20
REMARK                            x       y       z     vdW  Elec       q    Type
REMARK                         _______ _______ _______ _____ _____    ______ ____
ROOT
ATOM      4  N   UNL     1      -5.785  -9.150   9.732  0.00  0.00    -0.287 NA
ATOM      8  C   UNL     1      -5.445 -10.197  10.716  0.00  0.00    +0.146 C 
ATOM      9  C   UNL     1      -3.924 -10.070  10.913  0.00  0.00    +0.030 C 
ATOM     10  C   UNL     1      -3.489  -8.970   9.955  0.00  0.00    +0.017 C 
ATOM     11  C   UNL     1      -4.590  -8.949   8.913  0.00  0.00    +0.085 C 
ENDROOT
BRANCH   8  13
ATOM      2  O   UNL     1      -7.532  -9.726  11.898  0.00  0.00    -0.336 OA
ATOM      5  N   UNL     1      -5.803 -10.192  13.245  0.00  0.00    -0.190 NA
ATOM      6  N   UNL     1      -8.025  -9.647  13.207  0.00  0.00    -0.056 NA
ATOM     13  C   UNL     1      -6.217 -10.051  12.011  0.00  0.00    +0.245 A 
ATOM     17  C   UNL     1      -6.946  -9.935  13.943  0.00  0.00    +0.204 A 
BRANCH  17  20
ATOM      7  N   UNL     1      -5.933 -10.654  17.448  0.00  0.00    -0.221 NA
ATOM     20  C   UNL     1      -6.979  -9.975  15.377  0.00  0.00    +0.041 A 
ATOM     22  C   UNL     1      -8.032  -9.409  16.085  0.00  0.00    +0.018 A 
ATOM     23  C   UNL     1      -5.963 -10.580  16.098  0.00  0.00    +0.126 A 
ATOM     24  C   UNL     1      -8.037  -9.464  17.474  0.00  0.00    +0.068 A 
ATOM     25  C   UNL     1      -6.974 -10.092  18.103  0.00  0.00    +0.214 A 
BRANCH  25   3
ATOM      3  O   UNL     1      -6.955 -10.160  19.472  0.00  0.00    -0.480 OA
ATOM     26  C   UNL     1      -5.822 -10.779  20.067  0.00  0.00    +0.279 C 
ENDBRANCH  25   3
ENDBRANCH  17  20
ENDBRANCH   8  13
BRANCH   4  12
ATOM     12  C   UNL     1      -6.953  -9.478   8.924  0.00  0.00    +0.123 C 
BRANCH  12  14
ATOM      1  F   UNL     1      -9.638  -9.582   9.823  0.00  0.00    -0.205 F 
ATOM     14  C   UNL     1      -7.903  -8.314   8.814  0.00  0.00    +0.002 A 
ATOM     15  C   UNL     1      -9.213  -8.434   9.277  0.00  0.00    +0.128 A 
ATOM     16  C   UNL     1      -7.469  -7.114   8.250  0.00  0.00    +0.008 A 
ATOM     18  C   UNL     1     -10.091  -7.354   9.176  0.00  0.00    +0.038 A 
ATOM     19  C   UNL     1      -8.347  -6.035   8.147  0.00  0.00    +0.000 A 
ATOM     21  C   UNL     1      -9.657  -6.155   8.610  0.00  0.00    +0.003 A 
ENDBRANCH  12  14
ENDBRANCH   4  12
TORSDOF 5
ENDMDL
MODEL 3
REMARK VINA RESULT:      -3.7     15.126     17.679
REMARK  Name = 45783692
REMARK  6 active torsions:
REMARK  status: ('A' for Active; 'I' for Inactive)
REMARK    1  A    between atoms: O_3  and  C_25
REMARK    2  A    between atoms: O_3  and  C_26
REMARK    3  A    between atoms: N_4  and  C_12
REMARK    4  A    between atoms: C_8  and  C_13
REMARK    5  A    between atoms: C_12  and  C_14
REMARK    6  A    between atoms: C_17  and  C_20
REMARK                            x       y       z     vdW  Elec       q    Type
REMARK                         _______ _______ _______ _____ _____    ______ ____
ROOT
ATOM      4  N   UNL     1      -3.223  -9.715  10.859  0.00  0.00    -0.287 NA
ATOM      8  C   UNL     1      -3.290 -10.679  11.975  0.00  0.00    +0.146 C 
ATOM      9  C   UNL     1      -2.102 -10.310  12.882  0.00  0.00    +0.030 C 
ATOM     10  C   UNL     1      -1.393  -9.170  12.165  0.00  0.00    +0.017 C 
ATOM     11  C   UNL     1      -1.816  -9.340  10.719  0.00  0.00    +0.085 C 
ENDROOT
BRANCH   8  13
ATOM      2  O   UNL     1      -5.732 -10.779  11.938  0.00  0.00    -0.336 OA
ATOM      5  N   UNL     1      -4.860 -10.479  13.979  0.00  0.00    -0.190 NA
ATOM      6  N   UNL     1      -6.818 -10.706  12.819  0.00  0.00    -0.056 NA
ATOM     13  C   UNL     1      -4.617 -10.636  12.703  0.00  0.00    +0.245 A 
ATOM     17  C   UNL     1      -6.223 -10.528  14.002  0.00  0.00    +0.204 A 
BRANCH  17  20
ATOM      7  N   UNL     1      -9.093 -10.420  16.364  0.00  0.00    -0.221 NA
ATOM     20  C   UNL     1      -6.961 -10.399  15.226  0.00  0.00    +0.041 A 
ATOM     22  C   UNL     1      -6.314 -10.135  16.427  0.00  0.00    +0.018 A 
ATOM     23  C   UNL     1      -8.340 -10.531  15.247  0.00  0.00    +0.126 A 
ATOM     24  C   UNL     1      -7.055 -10.013  17.597  0.00  0.00    +0.068 A 
ATOM     25  C   UNL     1      -8.430 -10.163  17.513  0.00  0.00    +0.214 A 
BRANCH  25   3
ATOM      3  O   UNL     1      -9.183 -10.047  18.652  0.00  0.00    -0.480 OA
ATOM     26  C   UNL     1     -10.538  -9.648  18.486  0.00  0.00    +0.279 C 
ENDBRANCH  25   3
ENDBRANCH  17  20
ENDBRANCH   8  13
BRANCH   4  12
ATOM     12  C   UNL     1      -3.777 -10.236   9.615  0.00  0.00    +0.123 C 
BRANCH  12  14
ATOM      1  F   UNL     1      -4.575  -7.710  10.622  0.00  0.00    -0.205 F 
ATOM     14  C   UNL     1      -5.099  -9.598   9.280  0.00  0.00    +0.002 A 
ATOM     15  C   UNL     1      -5.429  -8.351   9.811  0.00  0.00    +0.128 A 
ATOM     16  C   UNL     1      -5.994 -10.255   8.436  0.00  0.00    +0.008 A 
ATOM     18  C   UNL     1      -6.655  -7.761   9.499  0.00  0.00    +0.038 A 
ATOM     19  C   UNL     1      -7.220  -9.666   8.124  0.00  0.00    +0.000 A 
ATOM     21  C   UNL     1      -7.549  -8.419   8.655  0.00  0.00    +0.003 A 
ENDBRANCH  12  14
ENDBRANCH   4  12
TORSDOF 5
ENDMDL
MODEL 4
REMARK VINA RESULT:      -3.1     15.160     17.673
REMARK  Name = 45783692
REMARK  6 active torsions:
REMARK  status: ('A' for Active; 'I' for Inactive)
REMARK    1  A    between atoms: O_3  and  C_25
REMARK    2  A    between atoms: O_3  and  C_26
REMARK    3  A    between atoms: N_4  and  C_12
REMARK    4  A    between atoms: C_8  and  C_13
REMARK    5  A    between atoms: C_12  and  C_14
REMARK    6  A    between atoms: C_17  and  C_20
REMARK                            x       y       z     vdW  Elec       q    Type
REMARK                         _______ _______ _______ _____ _____    ______ ____
ROOT
ATOM      4  N   UNL     1      -3.548  -8.657  11.134  0.00  0.00    -0.287 NA
ATOM      8  C   UNL     1      -3.897 -10.037  11.528  0.00  0.00    +0.146 C 
ATOM      9  C   UNL     1      -2.551 -10.781  11.584  0.00  0.00    +0.030 C 
ATOM     10  C   UNL     1      -1.512  -9.758  11.149  0.00  0.00    +0.017 C 
ATOM     11  C   UNL     1      -2.316  -8.751  10.350  0.00  0.00    +0.085 C 
ENDROOT
BRANCH   8  13
ATOM      2  O   UNL     1      -3.934 -10.449  13.937  0.00  0.00    -0.336 OA
ATOM      5  N   UNL     1      -5.916  -9.849  13.082  0.00  0.00    -0.190 NA
ATOM      6  N   UNL     1      -4.833 -10.433  15.011  0.00  0.00    -0.056 NA
ATOM     13  C   UNL     1      -4.653 -10.094  12.840  0.00  0.00    +0.245 A 
ATOM     17  C   UNL     1      -5.979 -10.070  14.427  0.00  0.00    +0.204 A 
BRANCH  17  20
ATOM      7  N   UNL     1      -8.315  -9.575  17.277  0.00  0.00    -0.221 NA
ATOM     20  C   UNL     1      -7.204  -9.918  15.158  0.00  0.00    +0.041 A 
ATOM     22  C   UNL     1      -8.434  -9.962  14.512  0.00  0.00    +0.018 A 
ATOM     23  C   UNL     1      -7.199  -9.724  16.530  0.00  0.00    +0.126 A 
ATOM     24  C   UNL     1      -9.604  -9.813  15.247  0.00  0.00    +0.068 A 
ATOM     25  C   UNL     1      -9.493  -9.624  16.615  0.00  0.00    +0.214 A 
BRANCH  25   3
ATOM      3  O   UNL     1     -10.632  -9.475  17.361  0.00  0.00    -0.480 OA
ATOM     26  C   UNL     1     -10.517  -9.710  18.759  0.00  0.00    +0.279 C 
ENDBRANCH  25   3
ENDBRANCH  17  20
ENDBRANCH   8  13
BRANCH   4  12
ATOM     12  C   UNL     1      -4.612  -7.981  10.404  0.00  0.00    +0.123 C 
BRANCH  12  14
ATOM      1  F   UNL     1      -3.840  -9.834   8.404  0.00  0.00    -0.205 F 
ATOM     14  C   UNL     1      -5.569  -8.959   9.776  0.00  0.00    +0.002 A 
ATOM     15  C   UNL     1      -5.122  -9.845   8.796  0.00  0.00    +0.128 A 
ATOM     16  C   UNL     1      -6.905  -8.981  10.177  0.00  0.00    +0.008 A 
ATOM     18  C   UNL     1      -6.010 -10.751   8.215  0.00  0.00    +0.038 A 
ATOM     19  C   UNL     1      -7.794  -9.886   9.597  0.00  0.00    +0.000 A 
ATOM     21  C   UNL     1      -7.346 -10.771   8.617  0.00  0.00    +0.003 A 
ENDBRANCH  12  14
ENDBRANCH   4  12
TORSDOF 5
ENDMDL
MODEL 5
REMARK VINA RESULT:      -2.5      2.327      3.859
REMARK  Name = 45783692
REMARK  6 active torsions:
REMARK  status: ('A' for Active; 'I' for Inactive)
REMARK    1  A    between atoms: O_3  and  C_25
REMARK    2  A    between atoms: O_3  and  C_26
REMARK    3  A    between atoms: N_4  and  C_12
REMARK    4  A    between atoms: C_8  and  C_13
REMARK    5  A    between atoms: C_12  and  C_14
REMARK    6  A    between atoms: C_17  and  C_20
REMARK                            x       y       z     vdW  Elec       q    Type
REMARK                         _______ _______ _______ _____ _____    ______ ____
ROOT
ATOM      4  N   UNL     1      -4.424   2.489  25.366  0.00  0.00    -0.287 NA
ATOM      8  C   UNL     1      -4.318   1.030  25.572  0.00  0.00    +0.146 C 
ATOM      9  C   UNL     1      -5.615   0.455  24.976  0.00  0.00    +0.030 C 
ATOM     10  C   UNL     1      -6.413   1.667  24.515  0.00  0.00    +0.017 C 
ATOM     11  C   UNL     1      -5.853   2.801  25.351  0.00  0.00    +0.085 C 
ENDROOT
BRANCH   8  13
ATOM      2  O   UNL     1      -3.099  -0.892  24.681  0.00  0.00    -0.336 OA
ATOM      5  N   UNL     1      -1.955   1.033  24.601  0.00  0.00    -0.190 NA
ATOM      6  N   UNL     1      -1.858  -1.199  24.109  0.00  0.00    -0.056 NA
ATOM     13  C   UNL     1      -3.073   0.442  24.941  0.00  0.00    +0.245 A 
ATOM     17  C   UNL     1      -1.241  -0.013  24.095  0.00  0.00    +0.204 A 
BRANCH  17  20
ATOM      7  N   UNL     1       2.183   1.364  23.640  0.00  0.00    -0.221 NA
ATOM     20  C   UNL     1       0.088   0.161  23.583  0.00  0.00    +0.041 A 
ATOM     22  C   UNL     1       0.576  -0.657  22.570  0.00  0.00    +0.018 A 
ATOM     23  C   UNL     1       0.924   1.147  24.079  0.00  0.00    +0.126 A 
ATOM     24  C   UNL     1       1.868  -0.464  22.091  0.00  0.00    +0.068 A 
ATOM     25  C   UNL     1       2.624   0.551  22.655  0.00  0.00    +0.214 A 
BRANCH  25   3
ATOM      3  O   UNL     1       3.900   0.760  22.200  0.00  0.00    -0.480 OA
ATOM     26  C   UNL     1       4.960   0.354  23.057  0.00  0.00    +0.279 C 
ENDBRANCH  25   3
ENDBRANCH  17  20
ENDBRANCH   8  13
BRANCH   4  12
ATOM     12  C   UNL     1      -3.704   3.264  26.367  0.00  0.00    +0.123 C 
BRANCH  12  14
ATOM      1  F   UNL     1      -1.015   2.397  26.582  0.00  0.00    -0.205 F 
ATOM     14  C   UNL     1      -2.546   4.018  25.766  0.00  0.00    +0.002 A 
ATOM     15  C   UNL     1      -1.246   3.534  25.910  0.00  0.00    +0.128 A 
ATOM     16  C   UNL     1      -2.777   5.201  25.064  0.00  0.00    +0.008 A 
ATOM     18  C   UNL     1      -0.175   4.233  25.352  0.00  0.00    +0.038 A 
ATOM     19  C   UNL     1      -1.706   5.901  24.506  0.00  0.00    +0.000 A 
ATOM     21  C   UNL     1      -0.406   5.416  24.650  0.00  0.00    +0.003 A 
ENDBRANCH  12  14
ENDBRANCH   4  12
TORSDOF 5
ENDMDL
MODEL 6
REMARK VINA RESULT:      -2.5      1.634      2.093
REMARK  Name = 45783692
REMARK  6 active torsions:
REMARK  status: ('A' for Active; 'I' for Inactive)
REMARK    1  A    between atoms: O_3  and  C_25
REMARK    2  A    between atoms: O_3  and  C_26
REMARK    3  A    between atoms: N_4  and  C_12
REMARK    4  A    between atoms: C_8  and  C_13
REMARK    5  A    between atoms: C_12  and  C_14
REMARK    6  A    between atoms: C_17  and  C_20
REMARK                            x       y       z     vdW  Elec       q    Type
REMARK                         _______ _______ _______ _____ _____    ______ ____
ROOT
ATOM      4  N   UNL     1      -3.601   2.177  25.416  0.00  0.00    -0.287 NA
ATOM      8  C   UNL     1      -2.975   2.811  24.239  0.00  0.00    +0.146 C 
ATOM      9  C   UNL     1      -2.533   4.201  24.731  0.00  0.00    +0.030 C 
ATOM     10  C   UNL     1      -3.007   4.281  26.176  0.00  0.00    +0.017 C 
ATOM     11  C   UNL     1      -4.130   3.265  26.239  0.00  0.00    +0.085 C 
ENDROOT
BRANCH   8  13
ATOM      2  O   UNL     1      -2.139   1.095  22.712  0.00  0.00    -0.336 OA
ATOM      5  N   UNL     1      -0.556   2.026  23.995  0.00  0.00    -0.190 NA
ATOM      6  N   UNL     1      -0.935   0.472  22.360  0.00  0.00    -0.056 NA
ATOM     13  C   UNL     1      -1.827   1.996  23.681  0.00  0.00    +0.245 A 
ATOM     17  C   UNL     1      -0.049   1.075  23.160  0.00  0.00    +0.204 A 
BRANCH  17  20
ATOM      7  N   UNL     1       3.644   1.509  23.114  0.00  0.00    -0.221 NA
ATOM     20  C   UNL     1       1.348   0.752  23.147  0.00  0.00    +0.041 A 
ATOM     22  C   UNL     1       1.777  -0.571  23.151  0.00  0.00    +0.018 A 
ATOM     23  C   UNL     1       2.313   1.746  23.128  0.00  0.00    +0.126 A 
ATOM     24  C   UNL     1       3.138  -0.855  23.137  0.00  0.00    +0.068 A 
ATOM     25  C   UNL     1       4.023   0.211  23.119  0.00  0.00    +0.214 A 
BRANCH  25   3
ATOM      3  O   UNL     1       5.370  -0.042  23.104  0.00  0.00    -0.480 OA
ATOM     26  C   UNL     1       5.903  -0.737  24.225  0.00  0.00    +0.279 C 
ENDBRANCH  25   3
ENDBRANCH  17  20
ENDBRANCH   8  13
BRANCH   4  12
ATOM     12  C   UNL     1      -4.629   1.205  25.066  0.00  0.00    +0.123 C 
BRANCH  12  14
ATOM      1  F   UNL     1      -2.247   0.316  26.317  0.00  0.00    -0.205 F 
ATOM     14  C   UNL     1      -4.051  -0.169  24.851  0.00  0.00    +0.002 A 
ATOM     15  C   UNL     1      -2.873  -0.541  25.499  0.00  0.00    +0.128 A 
ATOM     16  C   UNL     1      -4.696  -1.069  24.004  0.00  0.00    +0.008 A 
ATOM     18  C   UNL     1      -2.339  -1.815  25.299  0.00  0.00    +0.038 A 
ATOM     19  C   UNL     1      -4.162  -2.342  23.802  0.00  0.00    +0.000 A 
ATOM     21  C   UNL     1      -2.985  -2.715  24.450  0.00  0.00    +0.003 A 
ENDBRANCH  12  14
ENDBRANCH   4  12
TORSDOF 5
ENDMDL
MODEL 7
REMARK VINA RESULT:      -2.0      2.192      4.047
REMARK  Name = 45783692
REMARK  6 active torsions:
REMARK  status: ('A' for Active; 'I' for Inactive)
REMARK    1  A    between atoms: O_3  and  C_25
REMARK    2  A    between atoms: O_3  and  C_26
REMARK    3  A    between atoms: N_4  and  C_12
REMARK    4  A    between atoms: C_8  and  C_13
REMARK    5  A    between atoms: C_12  and  C_14
REMARK    6  A    between atoms: C_17  and  C_20
REMARK                            x       y       z     vdW  Elec       q    Type
REMARK                         _______ _______ _______ _____ _____    ______ ____
ROOT
ATOM      4  N   UNL     1      -3.212   0.129  23.785  0.00  0.00    -0.287 NA
ATOM      8  C   UNL     1      -2.055   0.097  24.701  0.00  0.00    +0.146 C 
ATOM      9  C   UNL     1      -2.348  -1.068  25.664  0.00  0.00    +0.030 C 
ATOM     10  C   UNL     1      -3.716  -1.591  25.250  0.00  0.00    +0.017 C 
ATOM     11  C   UNL     1      -4.347  -0.412  24.534  0.00  0.00    +0.085 C 
ENDROOT
BRANCH   8  13
ATOM      2  O   UNL     1      -0.810  -0.503  22.685  0.00  0.00    -0.336 OA
ATOM      5  N   UNL     1       0.481   0.156  24.394  0.00  0.00    -0.190 NA
ATOM      6  N   UNL     1       0.512  -0.573  22.226  0.00  0.00    -0.056 NA
ATOM     13  C   UNL     1      -0.738  -0.065  23.970  0.00  0.00    +0.245 A 
ATOM     17  C   UNL     1       1.213  -0.170  23.290  0.00  0.00    +0.204 A 
BRANCH  17  20
ATOM      7  N   UNL     1       4.782  -1.118  23.729  0.00  0.00    -0.221 NA
ATOM     20  C   UNL     1       2.644  -0.080  23.283  0.00  0.00    +0.041 A 
ATOM     22  C   UNL     1       3.287   1.074  22.848  0.00  0.00    +0.018 A 
ATOM     23  C   UNL     1       3.430  -1.138  23.709  0.00  0.00    +0.126 A 
ATOM     24  C   UNL     1       4.676   1.133  22.853  0.00  0.00    +0.068 A 
ATOM     25  C   UNL     1       5.372   0.020  23.299  0.00  0.00    +0.214 A 
BRANCH  25   3
ATOM      3  O   UNL     1       6.741   0.054  23.314  0.00  0.00    -0.480 OA
ATOM     26  C   UNL     1       7.415  -1.028  22.684  0.00  0.00    +0.279 C 
ENDBRANCH  25   3
ENDBRANCH  17  20
ENDBRANCH   8  13
BRANCH   4  12
ATOM     12  C   UNL     1      -3.489   1.457  23.255  0.00  0.00    +0.123 C 
BRANCH  12  14
ATOM      1  F   UNL     1      -5.641   2.393  24.842  0.00  0.00    -0.205 F 
ATOM     14  C   UNL     1      -3.332   2.524  24.306  0.00  0.00    +0.002 A 
ATOM     15  C   UNL     1      -4.435   2.938  25.052  0.00  0.00    +0.128 A 
ATOM     16  C   UNL     1      -2.081   3.096  24.535  0.00  0.00    +0.008 A 
ATOM     18  C   UNL     1      -4.288   3.927  26.027  0.00  0.00    +0.038 A 
ATOM     19  C   UNL     1      -1.932   4.084  25.508  0.00  0.00    +0.000 A 
ATOM     21  C   UNL     1      -3.036   4.499  26.254  0.00  0.00    +0.003 A 
ENDBRANCH  12  14
ENDBRANCH   4  12
TORSDOF 5
ENDMDL
MODEL 8
REMARK VINA RESULT:      -1.7      2.189      4.168
REMARK  Name = 45783692
REMARK  6 active torsions:
REMARK  status: ('A' for Active; 'I' for Inactive)
REMARK    1  A    between atoms: O_3  and  C_25
REMARK    2  A    between atoms: O_3  and  C_26
REMARK    3  A    between atoms: N_4  and  C_12
REMARK    4  A    between atoms: C_8  and  C_13
REMARK    5  A    between atoms: C_12  and  C_14
REMARK    6  A    between atoms: C_17  and  C_20
REMARK                            x       y       z     vdW  Elec       q    Type
REMARK                         _______ _______ _______ _____ _____    ______ ____
ROOT
ATOM      4  N   UNL     1      -3.226  -0.544  24.646  0.00  0.00    -0.287 NA
ATOM      8  C   UNL     1      -2.051  -1.435  24.728  0.00  0.00    +0.146 C 
ATOM      9  C   UNL     1      -2.491  -2.729  24.020  0.00  0.00    +0.030 C 
ATOM     10  C   UNL     1      -3.943  -2.496  23.630  0.00  0.00    +0.017 C 
ATOM     11  C   UNL     1      -4.401  -1.414  24.589  0.00  0.00    +0.085 C 
ENDROOT
BRANCH   8  13
ATOM      2  O   UNL     1      -1.018   0.128  23.158  0.00  0.00    -0.336 OA
ATOM      5  N   UNL     1       0.449  -1.070  24.354  0.00  0.00    -0.190 NA
ATOM      6  N   UNL     1       0.254   0.539  22.741  0.00  0.00    -0.056 NA
ATOM     13  C   UNL     1      -0.812  -0.821  24.109  0.00  0.00    +0.245 A 
ATOM     17  C   UNL     1       1.065  -0.213  23.492  0.00  0.00    +0.204 A 
BRANCH  17  20
ATOM      7  N   UNL     1       4.650  -1.158  23.780  0.00  0.00    -0.221 NA
ATOM     20  C   UNL     1       2.495  -0.129  23.405  0.00  0.00    +0.041 A 
ATOM     22  C   UNL     1       3.116   1.003  22.890  0.00  0.00    +0.018 A 
ATOM     23  C   UNL     1       3.300  -1.173  23.833  0.00  0.00    +0.126 A 
ATOM     24  C   UNL     1       4.504   1.056  22.820  0.00  0.00    +0.068 A 
ATOM     25  C   UNL     1       5.220  -0.041  23.274  0.00  0.00    +0.214 A 
BRANCH  25   3
ATOM      3  O   UNL     1       6.588  -0.013  23.215  0.00  0.00    -0.480 OA
ATOM     26  C   UNL     1       7.222  -1.082  22.523  0.00  0.00    +0.279 C 
ENDBRANCH  25   3
ENDBRANCH  17  20
ENDBRANCH   8  13
BRANCH   4  12
ATOM     12  C   UNL     1      -3.303   0.408  25.747  0.00  0.00    +0.123 C 
BRANCH  12  14
ATOM      1  F   UNL     1      -0.859   1.796  26.099  0.00  0.00    -0.205 F 
ATOM     14  C   UNL     1      -3.086   1.823  25.279  0.00  0.00    +0.002 A 
ATOM     15  C   UNL     1      -1.856   2.447  25.485  0.00  0.00    +0.128 A 
ATOM     16  C   UNL     1      -4.118   2.509  24.637  0.00  0.00    +0.008 A 
ATOM     18  C   UNL     1      -1.657   3.758  25.050  0.00  0.00    +0.038 A 
ATOM     19  C   UNL     1      -3.919   3.820  24.203  0.00  0.00    +0.000 A 
ATOM     21  C   UNL     1      -2.689   4.443  24.409  0.00  0.00    +0.003 A 
ENDBRANCH  12  14
ENDBRANCH   4  12
TORSDOF 5
ENDMDL
