MODEL 1
REMARK VINA RESULT:      -6.0      0.000      0.000
REMARK  Name = 26743968
REMARK  5 active torsions:
REMARK  status: ('A' for Active; 'I' for Inactive)
REMARK    1  A    between atoms: O_2  and  C_10
REMARK    2  A    between atoms: N_4  and  C_12
REMARK    3  A    between atoms: C_8  and  C_13
REMARK    4  A    between atoms: C_12  and  C_14
REMARK    5  A    between atoms: C_17  and  C_20
REMARK                            x       y       z     vdW  Elec       q    Type
REMARK                         _______ _______ _______ _____ _____    ______ ____
ROOT
ATOM      4  N   UNL     1      -4.840   1.679  25.264  0.00  0.00    -0.285 NA
ATOM      8  C   UNL     1      -4.084   2.525  24.317  0.00  0.00    +0.149 C 
ATOM      9  C   UNL     1      -4.453   3.970  24.701  0.00  0.00    +0.061 C 
ATOM     10  C   UNL     1      -5.454   3.833  25.840  0.00  0.00    +0.130 C 
ATOM     11  C   UNL     1      -6.027   2.442  25.643  0.00  0.00    +0.116 C 
ENDROOT
BRANCH   8  13
ATOM      3  O   UNL     1      -1.925   2.788  25.430  0.00  0.00    -0.336 OA
ATOM      5  N   UNL     1      -1.835   1.608  23.529  0.00  0.00    -0.190 NA
ATOM      6  N   UNL     1      -0.583   2.425  25.261  0.00  0.00    -0.056 NA
ATOM     13  C   UNL     1      -2.593   2.267  24.369  0.00  0.00    +0.245 A 
ATOM     17  C   UNL     1      -0.610   1.733  24.118  0.00  0.00    +0.204 A 
BRANCH  17  20
ATOM      7  N   UNL     1       2.948   1.270  23.145  0.00  0.00    -0.263 NA
ATOM     20  C   UNL     1       0.566   1.150  23.540  0.00  0.00    +0.041 A 
ATOM     22  C   UNL     1       0.503  -0.048  22.838  0.00  0.00    +0.014 A 
ATOM     23  C   UNL     1       1.803   1.764  23.664  0.00  0.00    +0.122 A 
ATOM     24  C   UNL     1       1.660  -0.588  22.288  0.00  0.00    +0.020 A 
ATOM     25  C   UNL     1       2.847   0.104  22.468  0.00  0.00    +0.111 A 
ENDBRANCH  17  20
ENDBRANCH   8  13
BRANCH  10   2
ATOM      2  O   UNL     1      -6.454   4.830  25.752  0.00  0.00    -0.390 OA
ATOM     26  H   UNL     1      -7.312   4.397  25.897  0.00  0.00    +0.210 HD
ENDBRANCH  10   2
BRANCH   4  12
ATOM     12  C   UNL     1      -5.180   0.370  24.719  0.00  0.00    +0.120 C 
BRANCH  12  14
ATOM      1  F   UNL     1      -0.877  -3.245  25.116  0.00  0.00    -0.205 F 
ATOM     14  C   UNL     1      -4.031  -0.596  24.825  0.00  0.00    -0.033 A 
ATOM     15  C   UNL     1      -3.065  -0.424  25.816  0.00  0.00    +0.008 A 
ATOM     16  C   UNL     1      -3.932  -1.663  23.933  0.00  0.00    +0.008 A 
ATOM     18  C   UNL     1      -1.999  -1.318  25.915  0.00  0.00    +0.038 A 
ATOM     19  C   UNL     1      -2.866  -2.558  24.031  0.00  0.00    +0.038 A 
ATOM     21  C   UNL     1      -1.900  -2.385  25.021  0.00  0.00    +0.123 A 
ENDBRANCH  12  14
ENDBRANCH   4  12
TORSDOF 5
ENDMDL
MODEL 2
REMARK VINA RESULT:      -4.6      1.998      3.046
REMARK  Name = 26743968
REMARK  5 active torsions:
REMARK  status: ('A' for Active; 'I' for Inactive)
REMARK    1  A    between atoms: O_2  and  C_10
REMARK    2  A    between atoms: N_4  and  C_12
REMARK    3  A    between atoms: C_8  and  C_13
REMARK    4  A    between atoms: C_12  and  C_14
REMARK    5  A    between atoms: C_17  and  C_20
REMARK                            x       y       z     vdW  Elec       q    Type
REMARK                         _______ _______ _______ _____ _____    ______ ____
ROOT
ATOM      4  N   UNL     1      -2.396   2.323  24.494  0.00  0.00    -0.285 NA
ATOM      8  C   UNL     1      -1.299   2.725  23.588  0.00  0.00    +0.149 C 
ATOM      9  C   UNL     1      -0.755   4.035  24.187  0.00  0.00    +0.061 C 
ATOM     10  C   UNL     1      -1.637   4.313  25.397  0.00  0.00    +0.130 C 
ATOM     11  C   UNL     1      -2.914   3.555  25.087  0.00  0.00    +0.116 C 
ENDROOT
BRANCH   8  13
ATOM      3  O   UNL     1      -0.667   0.408  23.136  0.00  0.00    -0.336 OA
ATOM      5  N   UNL     1       1.063   1.754  23.598  0.00  0.00    -0.190 NA
ATOM      6  N   UNL     1       0.479  -0.394  23.067  0.00  0.00    -0.056 NA
ATOM     13  C   UNL     1      -0.235   1.657  23.452  0.00  0.00    +0.245 A 
ATOM     17  C   UNL     1       1.457   0.471  23.353  0.00  0.00    +0.204 A 
BRANCH  17  20
ATOM      7  N   UNL     1       4.490  -1.636  23.790  0.00  0.00    -0.263 NA
ATOM     20  C   UNL     1       2.838   0.086  23.398  0.00  0.00    +0.041 A 
ATOM     22  C   UNL     1       3.848   0.999  23.111  0.00  0.00    +0.014 A 
ATOM     23  C   UNL     1       3.209  -1.208  23.728  0.00  0.00    +0.122 A 
ATOM     24  C   UNL     1       5.177   0.597  23.164  0.00  0.00    +0.020 A 
ATOM     25  C   UNL     1       5.443  -0.720  23.505  0.00  0.00    +0.111 A 
ENDBRANCH  17  20
ENDBRANCH   8  13
BRANCH  10   2
ATOM      2  O   UNL     1      -1.872   5.701  25.539  0.00  0.00    -0.390 OA
ATOM     26  H   UNL     1      -1.535   6.137  24.738  0.00  0.00    +0.210 HD
ENDBRANCH  10   2
BRANCH   4  12
ATOM     12  C   UNL     1      -3.439   1.555  23.826  0.00  0.00    +0.120 C 
BRANCH  12  14
ATOM      1  F   UNL     1      -3.563  -3.792  25.599  0.00  0.00    -0.205 F 
ATOM     14  C   UNL     1      -3.472   0.126  24.300  0.00  0.00    -0.033 A 
ATOM     15  C   UNL     1      -4.017  -0.866  23.486  0.00  0.00    +0.008 A 
ATOM     16  C   UNL     1      -2.957  -0.205  25.553  0.00  0.00    +0.008 A 
ATOM     18  C   UNL     1      -4.049  -2.189  23.924  0.00  0.00    +0.038 A 
ATOM     19  C   UNL     1      -2.988  -1.529  25.992  0.00  0.00    +0.038 A 
ATOM     21  C   UNL     1      -3.534  -2.521  25.178  0.00  0.00    +0.123 A 
ENDBRANCH  12  14
ENDBRANCH   4  12
TORSDOF 5
ENDMDL
MODEL 3
REMARK VINA RESULT:      -3.6      2.111      5.893
REMARK  Name = 26743968
REMARK  5 active torsions:
REMARK  status: ('A' for Active; 'I' for Inactive)
REMARK    1  A    between atoms: O_2  and  C_10
REMARK    2  A    between atoms: N_4  and  C_12
REMARK    3  A    between atoms: C_8  and  C_13
REMARK    4  A    between atoms: C_12  and  C_14
REMARK    5  A    between atoms: C_17  and  C_20
REMARK                            x       y       z     vdW  Elec       q    Type
REMARK                         _______ _______ _______ _____ _____    ______ ____
ROOT
ATOM      4  N   UNL     1       0.207  -0.192  23.888  0.00  0.00    -0.285 NA
ATOM      8  C   UNL     1       0.545   1.098  24.527  0.00  0.00    +0.149 C 
ATOM      9  C   UNL     1       1.645   1.701  23.634  0.00  0.00    +0.061 C 
ATOM     10  C   UNL     1       1.890   0.660  22.549  0.00  0.00    +0.130 C 
ATOM     11  C   UNL     1       1.409  -0.632  23.183  0.00  0.00    +0.116 C 
ENDROOT
BRANCH   8  13
ATOM      3  O   UNL     1      -0.434   3.336  24.496  0.00  0.00    -0.336 OA
ATOM      5  N   UNL     1      -1.899   1.704  24.950  0.00  0.00    -0.190 NA
ATOM      6  N   UNL     1      -1.672   3.964  24.678  0.00  0.00    -0.056 NA
ATOM     13  C   UNL     1      -0.656   2.008  24.673  0.00  0.00    +0.245 A 
ATOM     17  C   UNL     1      -2.485   2.936  24.943  0.00  0.00    +0.204 A 
BRANCH  17  20
ATOM      7  N   UNL     1      -5.724   4.588  25.718  0.00  0.00    -0.263 NA
ATOM     20  C   UNL     1      -3.885   3.107  25.201  0.00  0.00    +0.041 A 
ATOM     22  C   UNL     1      -4.753   2.020  25.195  0.00  0.00    +0.014 A 
ATOM     23  C   UNL     1      -4.416   4.359  25.466  0.00  0.00    +0.122 A 
ATOM     24  C   UNL     1      -6.106   2.215  25.449  0.00  0.00    +0.020 A 
ATOM     25  C   UNL     1      -6.537   3.508  25.703  0.00  0.00    +0.111 A 
ENDBRANCH  17  20
ENDBRANCH   8  13
BRANCH  10   2
ATOM      2  O   UNL     1       3.262   0.600  22.211  0.00  0.00    -0.390 OA
ATOM     26  H   UNL     1       3.370  -0.104  21.550  0.00  0.00    +0.210 HD
ENDBRANCH  10   2
BRANCH   4  12
ATOM     12  C   UNL     1      -0.271  -1.192  24.834  0.00  0.00    +0.120 C 
BRANCH  12  14
ATOM      1  F   UNL     1      -5.516  -2.868  23.638  0.00  0.00    -0.205 F 
ATOM     14  C   UNL     1      -1.673  -1.640  24.515  0.00  0.00    -0.033 A 
ATOM     15  C   UNL     1      -2.020  -2.985  24.640  0.00  0.00    +0.008 A 
ATOM     16  C   UNL     1      -2.623  -0.710  24.094  0.00  0.00    +0.008 A 
ATOM     18  C   UNL     1      -3.318  -3.401  24.343  0.00  0.00    +0.038 A 
ATOM     19  C   UNL     1      -3.922  -1.125  23.797  0.00  0.00    +0.038 A 
ATOM     21  C   UNL     1      -4.269  -2.470  23.922  0.00  0.00    +0.123 A 
ENDBRANCH  12  14
ENDBRANCH   4  12
TORSDOF 5
ENDMDL
MODEL 4
REMARK VINA RESULT:      -3.4      2.724      3.413
REMARK  Name = 26743968
REMARK  5 active torsions:
REMARK  status: ('A' for Active; 'I' for Inactive)
REMARK    1  A    between atoms: O_2  and  C_10
REMARK    2  A    between atoms: N_4  and  C_12
REMARK    3  A    between atoms: C_8  and  C_13
REMARK    4  A    between atoms: C_12  and  C_14
REMARK    5  A    between atoms: C_17  and  C_20
REMARK                            x       y       z     vdW  Elec       q    Type
REMARK                         _______ _______ _______ _____ _____    ______ ____
ROOT
ATOM      4  N   UNL     1      -3.959   1.982  24.724  0.00  0.00    -0.285 NA
ATOM      8  C   UNL     1      -3.119   3.197  24.669  0.00  0.00    +0.149 C 
ATOM      9  C   UNL     1      -3.939   4.275  25.400  0.00  0.00    +0.061 C 
ATOM     10  C   UNL     1      -5.241   3.586  25.789  0.00  0.00    +0.130 C 
ATOM     11  C   UNL     1      -5.345   2.441  24.799  0.00  0.00    +0.116 C 
ENDROOT
BRANCH   8  13
ATOM      3  O   UNL     1      -0.736   2.717  24.418  0.00  0.00    -0.336 OA
ATOM      5  N   UNL     1      -1.388   3.023  26.539  0.00  0.00    -0.190 NA
ATOM      6  N   UNL     1       0.412   2.564  25.204  0.00  0.00    -0.056 NA
ATOM     13  C   UNL     1      -1.750   2.986  25.280  0.00  0.00    +0.245 A 
ATOM     17  C   UNL     1      -0.053   2.758  26.442  0.00  0.00    +0.204 A 
BRANCH  17  20
ATOM      7  N   UNL     1       2.981   2.981  28.579  0.00  0.00    -0.263 NA
ATOM     20  C   UNL     1       0.788   2.696  27.602  0.00  0.00    +0.041 A 
ATOM     22  C   UNL     1       0.280   2.310  28.837  0.00  0.00    +0.014 A 
ATOM     23  C   UNL     1       2.134   3.019  27.526  0.00  0.00    +0.122 A 
ATOM     24  C   UNL     1       1.120   2.259  29.944  0.00  0.00    +0.020 A 
ATOM     25  C   UNL     1       2.451   2.601  29.763  0.00  0.00    +0.111 A 
ENDBRANCH  17  20
ENDBRANCH   8  13
BRANCH  10   2
ATOM      2  O   UNL     1      -6.334   4.478  25.677  0.00  0.00    -0.390 OA
ATOM     26  H   UNL     1      -7.142   3.942  25.611  0.00  0.00    +0.210 HD
ENDBRANCH  10   2
BRANCH   4  12
ATOM     12  C   UNL     1      -3.740   1.081  23.599  0.00  0.00    +0.120 C 
BRANCH  12  14
ATOM      1  F   UNL     1      -1.272  -3.720  25.213  0.00  0.00    -0.205 F 
ATOM     14  C   UNL     1      -3.080  -0.202  24.030  0.00  0.00    -0.033 A 
ATOM     15  C   UNL     1      -3.849  -1.349  24.227  0.00  0.00    +0.008 A 
ATOM     16  C   UNL     1      -1.701  -0.243  24.232  0.00  0.00    +0.008 A 
ATOM     18  C   UNL     1      -3.239  -2.537  24.628  0.00  0.00    +0.038 A 
ATOM     19  C   UNL     1      -1.090  -1.432  24.632  0.00  0.00    +0.038 A 
ATOM     21  C   UNL     1      -1.858  -2.579  24.830  0.00  0.00    +0.123 A 
ENDBRANCH  12  14
ENDBRANCH   4  12
TORSDOF 5
ENDMDL
MODEL 5
REMARK VINA RESULT:      -3.3      3.026      4.771
REMARK  Name = 26743968
REMARK  5 active torsions:
REMARK  status: ('A' for Active; 'I' for Inactive)
REMARK    1  A    between atoms: O_2  and  C_10
REMARK    2  A    between atoms: N_4  and  C_12
REMARK    3  A    between atoms: C_8  and  C_13
REMARK    4  A    between atoms: C_12  and  C_14
REMARK    5  A    between atoms: C_17  and  C_20
REMARK                            x       y       z     vdW  Elec       q    Type
REMARK                         _______ _______ _______ _____ _____    ______ ____
ROOT
ATOM      4  N   UNL     1      -2.947  -0.205  24.739  0.00  0.00    -0.285 NA
ATOM      8  C   UNL     1      -1.867  -1.214  24.721  0.00  0.00    +0.149 C 
ATOM      9  C   UNL     1      -2.464  -2.415  23.966  0.00  0.00    +0.061 C 
ATOM     10  C   UNL     1      -3.895  -2.006  23.639  0.00  0.00    +0.130 C 
ATOM     11  C   UNL     1      -4.205  -0.946  24.679  0.00  0.00    +0.116 C 
ENDROOT
BRANCH   8  13
ATOM      3  O   UNL     1      -0.745   0.206  23.080  0.00  0.00    -0.336 OA
ATOM      5  N   UNL     1       0.651  -0.988  24.361  0.00  0.00    -0.190 NA
ATOM      6  N   UNL     1       0.549   0.534  22.656  0.00  0.00    -0.056 NA
ATOM     13  C   UNL     1      -0.595  -0.695  24.085  0.00  0.00    +0.245 A 
ATOM     17  C   UNL     1       1.316  -0.211  23.458  0.00  0.00    +0.204 A 
BRANCH  17  20
ATOM      7  N   UNL     1       4.845  -1.343  23.761  0.00  0.00    -0.263 NA
ATOM     20  C   UNL     1       2.748  -0.199  23.385  0.00  0.00    +0.041 A 
ATOM     22  C   UNL     1       3.433   0.908  22.894  0.00  0.00    +0.014 A 
ATOM     23  C   UNL     1       3.495  -1.290  23.802  0.00  0.00    +0.122 A 
ATOM     24  C   UNL     1       4.822   0.891  22.835  0.00  0.00    +0.020 A 
ATOM     25  C   UNL     1       5.475  -0.249  23.278  0.00  0.00    +0.111 A 
ENDBRANCH  17  20
ENDBRANCH   8  13
BRANCH  10   2
ATOM      2  O   UNL     1      -4.769  -3.113  23.741  0.00  0.00    -0.390 OA
ATOM     26  H   UNL     1      -4.238  -3.917  23.615  0.00  0.00    +0.210 HD
ENDBRANCH  10   2
BRANCH   4  12
ATOM     12  C   UNL     1      -2.886   0.681  25.895  0.00  0.00    +0.120 C 
BRANCH  12  14
ATOM      1  F   UNL     1      -0.440   5.599  24.640  0.00  0.00    -0.205 F 
ATOM     14  C   UNL     1      -2.233   1.995  25.559  0.00  0.00    -0.033 A 
ATOM     15  C   UNL     1      -0.868   2.173  25.785  0.00  0.00    +0.008 A 
ATOM     16  C   UNL     1      -2.992   3.034  25.022  0.00  0.00    +0.008 A 
ATOM     18  C   UNL     1      -0.262   3.390  25.476  0.00  0.00    +0.038 A 
ATOM     19  C   UNL     1      -2.386   4.253  24.712  0.00  0.00    +0.038 A 
ATOM     21  C   UNL     1      -1.022   4.430  24.939  0.00  0.00    +0.123 A 
ENDBRANCH  12  14
ENDBRANCH   4  12
TORSDOF 5
ENDMDL
