MODEL 1
REMARK VINA RESULT:      -1.8      0.000      0.000
REMARK  Name = 26744766
REMARK  4 active torsions:
REMARK  status: ('A' for Active; 'I' for Inactive)
REMARK    1  A    between atoms: N_3  and  C_13
REMARK    2  A    between atoms: C_8  and  C_14
REMARK    3  A    between atoms: C_13  and  C_15
REMARK    4  A    between atoms: C_18  and  C_20
REMARK                            x       y       z     vdW  Elec       q    Type
REMARK                         _______ _______ _______ _____ _____    ______ ____
ROOT
ATOM      3  N   UNL     1      -2.866   0.897  23.885  0.00  0.00    -0.281 NA
ATOM      4  N   UNL     1      -4.350  -2.498  23.513  0.00  0.00    -0.347 N 
ATOM      5  N   UNL     1      -3.342  -2.916  25.465  0.00  0.00    -0.240 NA
ATOM      8  C   UNL     1      -1.710   0.475  24.733  0.00  0.00    +0.152 C 
ATOM      9  C   UNL     1      -2.092  -0.718  25.682  0.00  0.00    +0.086 C 
ATOM     10  C   UNL     1      -3.437  -0.157  23.020  0.00  0.00    +0.140 C 
ATOM     11  C   UNL     1      -3.606  -1.397  23.809  0.00  0.00    +0.053 A 
ATOM     12  C   UNL     1      -2.995  -1.678  25.005  0.00  0.00    +0.065 A 
ATOM     16  C   UNL     1      -4.158  -3.387  24.542  0.00  0.00    +0.197 A 
ATOM     27  H   UNL     1      -4.927  -2.641  22.696  0.00  0.00    +0.167 HD
ENDROOT
BRANCH   8  14
ATOM      2  O   UNL     1      -0.493   0.004  22.650  0.00  0.00    -0.336 OA
ATOM      6  N   UNL     1       0.832   0.258  24.439  0.00  0.00    -0.190 NA
ATOM      7  N   UNL     1       0.819  -0.167  22.190  0.00  0.00    -0.056 NA
ATOM     14  C   UNL     1      -0.396   0.250  23.983  0.00  0.00    +0.245 A 
ATOM     18  C   UNL     1       1.541  -0.001  23.302  0.00  0.00    +0.202 A 
BRANCH  18  20
ATOM     20  C   UNL     1       2.973  -0.090  23.312  0.00  0.00    +0.022 A 
ATOM     22  C   UNL     1       3.596  -1.253  23.765  0.00  0.00    +0.012 A 
ATOM     23  C   UNL     1       3.742   0.987  22.871  0.00  0.00    +0.012 A 
ATOM     24  C   UNL     1       4.988  -1.340  23.776  0.00  0.00    +0.001 A 
ATOM     25  C   UNL     1       5.135   0.900  22.882  0.00  0.00    +0.001 A 
ATOM     26  C   UNL     1       5.758  -0.262  23.334  0.00  0.00    +0.000 A 
ENDBRANCH  18  20
ENDBRANCH   8  14
BRANCH   3  13
ATOM     13  C   UNL     1      -2.639   2.133  23.143  0.00  0.00    +0.128 C 
BRANCH  13  15
ATOM      1  S   UNL     1      -3.380   3.860  25.193  0.00  0.00    -0.100 S 
ATOM     15  C   UNL     1      -2.248   3.268  24.052  0.00  0.00    +0.004 A 
ATOM     17  C   UNL     1      -1.051   3.945  24.111  0.00  0.00    +0.012 A 
ATOM     19  C   UNL     1      -1.061   4.965  25.107  0.00  0.00    +0.008 A 
ATOM     21  C   UNL     1      -2.267   5.027  25.771  0.00  0.00    +0.045 A 
ENDBRANCH  13  15
ENDBRANCH   3  13
TORSDOF 4
ENDMDL
MODEL 2
REMARK VINA RESULT:      -1.8      1.768      4.667
REMARK  Name = 26744766
REMARK  4 active torsions:
REMARK  status: ('A' for Active; 'I' for Inactive)
REMARK    1  A    between atoms: N_3  and  C_13
REMARK    2  A    between atoms: C_8  and  C_14
REMARK    3  A    between atoms: C_13  and  C_15
REMARK    4  A    between atoms: C_18  and  C_20
REMARK                            x       y       z     vdW  Elec       q    Type
REMARK                         _______ _______ _______ _____ _____    ______ ____
ROOT
ATOM      3  N   UNL     1      -1.794   0.849  25.212  0.00  0.00    -0.281 NA
ATOM      4  N   UNL     1      -1.005   4.404  25.991  0.00  0.00    -0.347 N 
ATOM      5  N   UNL     1      -1.617   4.779  23.874  0.00  0.00    -0.240 NA
ATOM      8  C   UNL     1      -1.543   0.948  23.742  0.00  0.00    +0.152 C 
ATOM      9  C   UNL     1      -1.943   2.359  23.179  0.00  0.00    +0.086 C 
ATOM     10  C   UNL     1      -1.087   1.845  26.044  0.00  0.00    +0.140 C 
ATOM     11  C   UNL     1      -1.231   3.183  25.432  0.00  0.00    +0.053 A 
ATOM     12  C   UNL     1      -1.600   3.438  24.135  0.00  0.00    +0.065 A 
ATOM     16  C   UNL     1      -1.251   5.334  25.012  0.00  0.00    +0.197 A 
ATOM     27  H   UNL     1      -0.708   4.593  26.939  0.00  0.00    +0.167 HD
ENDROOT
BRANCH   8  14
ATOM      2  O   UNL     1      -0.094  -0.110  22.062  0.00  0.00    -0.336 OA
ATOM      6  N   UNL     1       0.994   0.577  23.896  0.00  0.00    -0.190 NA
ATOM      7  N   UNL     1       1.252  -0.441  21.864  0.00  0.00    -0.056 NA
ATOM     14  C   UNL     1      -0.160   0.486  23.282  0.00  0.00    +0.245 A 
ATOM     18  C   UNL     1       1.828  -0.004  22.987  0.00  0.00    +0.202 A 
BRANCH  18  20
ATOM     20  C   UNL     1       3.236  -0.132  23.233  0.00  0.00    +0.022 A 
ATOM     22  C   UNL     1       3.750  -1.331  23.728  0.00  0.00    +0.012 A 
ATOM     23  C   UNL     1       4.090   0.940  22.978  0.00  0.00    +0.012 A 
ATOM     24  C   UNL     1       5.119  -1.457  23.968  0.00  0.00    +0.001 A 
ATOM     25  C   UNL     1       5.459   0.815  23.218  0.00  0.00    +0.001 A 
ATOM     26  C   UNL     1       5.973  -0.384  23.713  0.00  0.00    +0.000 A 
ENDBRANCH  18  20
ENDBRANCH   8  14
BRANCH   3  13
ATOM     13  C   UNL     1      -1.647  -0.499  25.751  0.00  0.00    +0.128 C 
BRANCH  13  15
ATOM      1  S   UNL     1      -4.129  -1.027  24.612  0.00  0.00    -0.100 S 
ATOM     15  C   UNL     1      -2.536  -1.486  25.041  0.00  0.00    +0.004 A 
ATOM     17  C   UNL     1      -2.250  -2.778  24.660  0.00  0.00    +0.012 A 
ATOM     19  C   UNL     1      -3.353  -3.401  24.007  0.00  0.00    +0.008 A 
ATOM     21  C   UNL     1      -4.440  -2.560  23.914  0.00  0.00    +0.045 A 
ENDBRANCH  13  15
ENDBRANCH   3  13
TORSDOF 4
ENDMDL
MODEL 3
REMARK VINA RESULT:      -0.8      3.623      5.555
REMARK  Name = 26744766
REMARK  4 active torsions:
REMARK  status: ('A' for Active; 'I' for Inactive)
REMARK    1  A    between atoms: N_3  and  C_13
REMARK    2  A    between atoms: C_8  and  C_14
REMARK    3  A    between atoms: C_13  and  C_15
REMARK    4  A    between atoms: C_18  and  C_20
REMARK                            x       y       z     vdW  Elec       q    Type
REMARK                         _______ _______ _______ _____ _____    ______ ____
ROOT
ATOM      3  N   UNL     1      -3.446   1.467  23.565  0.00  0.00    -0.281 NA
ATOM      4  N   UNL     1      -5.979   2.145  26.209  0.00  0.00    -0.347 N 
ATOM      5  N   UNL     1      -5.478   4.292  25.836  0.00  0.00    -0.240 NA
ATOM      8  C   UNL     1      -2.652   2.715  23.780  0.00  0.00    +0.152 C 
ATOM      9  C   UNL     1      -3.567   3.919  24.206  0.00  0.00    +0.086 C 
ATOM     10  C   UNL     1      -4.227   1.004  24.731  0.00  0.00    +0.140 C 
ATOM     11  C   UNL     1      -4.940   2.153  25.329  0.00  0.00    +0.053 A 
ATOM     12  C   UNL     1      -4.648   3.477  25.119  0.00  0.00    +0.065 A 
ATOM     16  C   UNL     1      -6.267   3.459  26.485  0.00  0.00    +0.197 A 
ATOM     27  H   UNL     1      -6.446   1.335  26.593  0.00  0.00    +0.167 HD
ENDROOT
BRANCH   8  14
ATOM      2  O   UNL     1      -0.287   2.107  24.052  0.00  0.00    -0.336 OA
ATOM      6  N   UNL     1      -1.271   2.795  25.943  0.00  0.00    -0.190 NA
ATOM      7  N   UNL     1       0.697   2.045  25.047  0.00  0.00    -0.056 NA
ATOM     14  C   UNL     1      -1.413   2.558  24.663  0.00  0.00    +0.245 A 
ATOM     18  C   UNL     1       0.040   2.467  26.132  0.00  0.00    +0.202 A 
BRANCH  18  20
ATOM     20  C   UNL     1       0.664   2.571  27.419  0.00  0.00    +0.022 A 
ATOM     22  C   UNL     1       2.026   2.861  27.512  0.00  0.00    +0.012 A 
ATOM     23  C   UNL     1      -0.088   2.380  28.578  0.00  0.00    +0.012 A 
ATOM     24  C   UNL     1       2.634   2.961  28.763  0.00  0.00    +0.001 A 
ATOM     25  C   UNL     1       0.520   2.480  29.830  0.00  0.00    +0.001 A 
ATOM     26  C   UNL     1       1.881   2.771  29.922  0.00  0.00    +0.000 A 
ENDBRANCH  18  20
ENDBRANCH   8  14
BRANCH   3  13
ATOM     13  C   UNL     1      -2.688   0.376  22.961  0.00  0.00    +0.128 C 
BRANCH  13  15
ATOM      1  S   UNL     1      -1.389  -1.309  24.754  0.00  0.00    -0.100 S 
ATOM     15  C   UNL     1      -2.744  -0.875  23.798  0.00  0.00    +0.004 A 
ATOM     17  C   UNL     1      -3.775  -1.779  23.922  0.00  0.00    +0.012 A 
ATOM     19  C   UNL     1      -3.450  -2.843  24.813  0.00  0.00    +0.008 A 
ATOM     21  C   UNL     1      -2.183  -2.710  25.336  0.00  0.00    +0.045 A 
ENDBRANCH  13  15
ENDBRANCH   3  13
TORSDOF 4
ENDMDL
MODEL 4
REMARK VINA RESULT:      -0.7      1.518      1.797
REMARK  Name = 26744766
REMARK  4 active torsions:
REMARK  status: ('A' for Active; 'I' for Inactive)
REMARK    1  A    between atoms: N_3  and  C_13
REMARK    2  A    between atoms: C_8  and  C_14
REMARK    3  A    between atoms: C_13  and  C_15
REMARK    4  A    between atoms: C_18  and  C_20
REMARK                            x       y       z     vdW  Elec       q    Type
REMARK                         _______ _______ _______ _____ _____    ______ ____
ROOT
ATOM      3  N   UNL     1      -3.865   0.897  24.238  0.00  0.00    -0.281 NA
ATOM      4  N   UNL     1      -4.090  -2.718  23.372  0.00  0.00    -0.347 N 
ATOM      5  N   UNL     1      -3.488  -3.044  25.500  0.00  0.00    -0.240 NA
ATOM      8  C   UNL     1      -2.867   0.735  25.339  0.00  0.00    +0.152 C 
ATOM      9  C   UNL     1      -3.070  -0.616  26.113  0.00  0.00    +0.086 C 
ATOM     10  C   UNL     1      -3.861  -0.172  23.217  0.00  0.00    +0.140 C 
ATOM     11  C   UNL     1      -3.816  -1.489  23.890  0.00  0.00    +0.053 A 
ATOM     12  C   UNL     1      -3.446  -1.714  25.191  0.00  0.00    +0.065 A 
ATOM     16  C   UNL     1      -3.878  -3.624  24.382  0.00  0.00    +0.197 A 
ATOM     27  H   UNL     1      -4.386  -2.929  22.428  0.00  0.00    +0.167 HD
ENDROOT
BRANCH   8  14
ATOM      2  O   UNL     1      -0.744   1.929  25.666  0.00  0.00    -0.336 OA
ATOM      6  N   UNL     1      -0.697   0.434  23.999  0.00  0.00    -0.190 NA
ATOM      7  N   UNL     1       0.548   1.986  25.128  0.00  0.00    -0.056 NA
ATOM     14  C   UNL     1      -1.411   0.991  24.945  0.00  0.00    +0.245 A 
ATOM     18  C   UNL     1       0.497   1.076  24.151  0.00  0.00    +0.202 A 
BRANCH  18  20
ATOM     20  C   UNL     1       1.621   0.784  23.309  0.00  0.00    +0.022 A 
ATOM     22  C   UNL     1       1.476  -0.089  22.230  0.00  0.00    +0.012 A 
ATOM     23  C   UNL     1       2.859   1.371  23.569  0.00  0.00    +0.012 A 
ATOM     24  C   UNL     1       2.569  -0.374  21.411  0.00  0.00    +0.001 A 
ATOM     25  C   UNL     1       3.953   1.086  22.750  0.00  0.00    +0.001 A 
ATOM     26  C   UNL     1       3.808   0.214  21.672  0.00  0.00    +0.000 A 
ENDBRANCH  18  20
ENDBRANCH   8  14
BRANCH   3  13
ATOM     13  C   UNL     1      -3.866   2.221  23.625  0.00  0.00    +0.128 C 
BRANCH  13  15
ATOM      1  S   UNL     1      -4.491   3.555  25.985  0.00  0.00    -0.100 S 
ATOM     15  C   UNL     1      -3.497   3.295  24.614  0.00  0.00    +0.004 A 
ATOM     17  C   UNL     1      -2.421   4.154  24.585  0.00  0.00    +0.012 A 
ATOM     19  C   UNL     1      -2.410   5.037  25.704  0.00  0.00    +0.008 A 
ATOM     21  C   UNL     1      -3.480   4.820  26.544  0.00  0.00    +0.045 A 
ENDBRANCH  13  15
ENDBRANCH   3  13
TORSDOF 4
ENDMDL
