MODEL 1
REMARK VINA RESULT:       9.5      0.000      0.000
REMARK  Name = 11911795
REMARK  9 active torsions:
REMARK  status: ('A' for Active; 'I' for Inactive)
REMARK    1  A    between atoms: O_3  and  C_14
REMARK    2  A    between atoms: O_3  and  C_18
REMARK    3  A    between atoms: N_5  and  C_13
REMARK    4  A    between atoms: N_8  and  C_22
REMARK    5  A    between atoms: N_9  and  C_28
REMARK    6  A    between atoms: N_9  and  C_34
REMARK    7  A    between atoms: N_9  and  C_35
REMARK    8  A    between atoms: C_19  and  C_23
REMARK    9  A    between atoms: C_31  and  C_36
REMARK                            x       y       z     vdW  Elec       q    Type
REMARK                         _______ _______ _______ _____ _____    ______ ____
ROOT
ATOM      1  O   UNL     1      -3.341  -1.071  23.595  0.00  0.00    -0.368 OA
ATOM      2  O   UNL     1      -3.937  -0.870  26.598  0.00  0.00    -0.368 OA
ATOM     11  C   UNL     1      -3.803   0.143  25.578  0.00  0.00    +0.173 C 
ATOM     12  C   UNL     1      -2.705  -0.319  24.642  0.00  0.00    +0.192 C 
ATOM     13  C   UNL     1      -5.039   0.168  24.710  0.00  0.00    +0.130 C 
ATOM     14  C   UNL     1      -1.865  -1.202  25.534  0.00  0.00    +0.235 C 
ATOM     15  C   UNL     1      -4.767  -0.957  23.727  0.00  0.00    +0.185 C 
ATOM     16  C   UNL     1      -2.908  -1.853  26.413  0.00  0.00    +0.207 C 
ENDROOT
BRANCH  13   5
ATOM      5  N   UNL     1      -5.137   1.433  24.013  0.00  0.00    -0.306 N 
ATOM      6  N   UNL     1      -3.229   2.293  25.073  0.00  0.00    -0.214 NA
ATOM      7  N   UNL     1      -4.454   3.610  23.469  0.00  0.00    -0.223 NA
ATOM     17  C   UNL     1      -4.247   2.476  24.190  0.00  0.00    +0.216 A 
ATOM     19  C   UNL     1      -2.381   3.332  25.223  0.00  0.00    +0.076 A 
ATOM     20  C   UNL     1      -3.568   4.608  23.667  0.00  0.00    +0.116 A 
ATOM     21  C   UNL     1      -2.501   4.525  24.539  0.00  0.00    +0.048 A 
ATOM     37  H   UNL     1      -5.860   1.560  23.314  0.00  0.00    +0.149 HD
BRANCH  19  23
ATOM     23  C   UNL     1      -1.308   3.116  26.164  0.00  0.00    +0.001 A 
ATOM     26  C   UNL     1      -0.016   2.853  25.703  0.00  0.00    +0.012 A 
ATOM     27  C   UNL     1      -1.557   3.171  27.536  0.00  0.00    +0.012 A 
ATOM     28  C   UNL     1       0.770   2.700  27.983  0.00  0.00    +0.029 A 
ATOM     29  C   UNL     1       1.022   2.646  26.613  0.00  0.00    +0.024 A 
ATOM     30  C   UNL     1      -0.519   2.963  28.445  0.00  0.00    +0.024 A 
BRANCH  28   9
ATOM      9  N   UNL     1       1.818   2.492  28.903  0.00  0.00    -0.336 N 
ATOM     34  C   UNL     1       1.535   2.019  30.243  0.00  0.00    +0.129 C 
ATOM     35  C   UNL     1       3.192   2.761  28.525  0.00  0.00    +0.129 C 
ENDBRANCH  28   9
ENDBRANCH  19  23
ENDBRANCH  13   5
BRANCH  14   3
ATOM      3  O   UNL     1      -1.100  -2.152  24.825  0.00  0.00    -0.442 OA
BRANCH   3  18
ATOM      4  O   UNL     1       1.084  -2.613  25.325  0.00  0.00    -0.226 OA
ATOM      8  N   UNL     1       0.492  -0.831  23.927  0.00  0.00    -0.251 N 
ATOM     18  C   UNL     1       0.258  -1.922  24.742  0.00  0.00    +0.405 C 
ATOM     38  H   UNL     1      -0.330  -0.383  23.529  0.00  0.00    +0.158 HD
BRANCH   8  22
ATOM     22  C   UNL     1       1.737  -0.259  23.575  0.00  0.00    +0.038 A 
ATOM     24  C   UNL     1       2.904  -0.959  23.836  0.00  0.00    +0.042 A 
ATOM     25  C   UNL     1       1.764   0.990  22.976  0.00  0.00    +0.023 A 
ATOM     31  C   UNL     1       4.131  -0.394  23.489  0.00  0.00    +0.054 A 
ATOM     32  C   UNL     1       2.992   1.555  22.630  0.00  0.00    +0.003 A 
ATOM     33  C   UNL     1       4.175   0.863  22.886  0.00  0.00    +0.019 A 
BRANCH  31  36
ATOM     10  N   UNL     1       6.330  -1.679  23.965  0.00  0.00    -0.191 NA
ATOM     36  C   UNL     1       5.344  -1.103  23.751  0.00  0.00    +0.099 C 
ENDBRANCH  31  36
ENDBRANCH   8  22
ENDBRANCH   3  18
ENDBRANCH  14   3
TORSDOF 7
ENDMDL
MODEL 2
REMARK VINA RESULT:      10.1      2.640      5.065
REMARK  Name = 11911795
REMARK  9 active torsions:
REMARK  status: ('A' for Active; 'I' for Inactive)
REMARK    1  A    between atoms: O_3  and  C_14
REMARK    2  A    between atoms: O_3  and  C_18
REMARK    3  A    between atoms: N_5  and  C_13
REMARK    4  A    between atoms: N_8  and  C_22
REMARK    5  A    between atoms: N_9  and  C_28
REMARK    6  A    between atoms: N_9  and  C_34
REMARK    7  A    between atoms: N_9  and  C_35
REMARK    8  A    between atoms: C_19  and  C_23
REMARK    9  A    between atoms: C_31  and  C_36
REMARK                            x       y       z     vdW  Elec       q    Type
REMARK                         _______ _______ _______ _____ _____    ______ ____
ROOT
ATOM      1  O   UNL     1      -1.851   2.501  25.375  0.00  0.00    -0.368 OA
ATOM      2  O   UNL     1      -0.402   4.990  24.317  0.00  0.00    -0.368 OA
ATOM     11  C   UNL     1      -1.806   4.688  24.462  0.00  0.00    +0.173 C 
ATOM     12  C   UNL     1      -1.975   3.218  24.136  0.00  0.00    +0.192 C 
ATOM     13  C   UNL     1      -2.210   4.791  25.913  0.00  0.00    +0.130 C 
ATOM     14  C   UNL     1      -0.809   2.951  23.215  0.00  0.00    +0.235 C 
ATOM     15  C   UNL     1      -1.791   3.438  26.462  0.00  0.00    +0.185 C 
ATOM     16  C   UNL     1       0.270   3.831  23.804  0.00  0.00    +0.207 C 
ENDROOT
BRANCH  13   5
ATOM      5  N   UNL     1      -3.643   4.957  26.027  0.00  0.00    -0.306 N 
ATOM      6  N   UNL     1      -4.056   2.701  25.536  0.00  0.00    -0.214 NA
ATOM      7  N   UNL     1      -5.871   4.223  25.980  0.00  0.00    -0.223 NA
ATOM     17  C   UNL     1      -4.550   3.930  25.843  0.00  0.00    +0.216 A 
ATOM     19  C   UNL     1      -4.969   1.722  25.362  0.00  0.00    +0.076 A 
ATOM     20  C   UNL     1      -6.728   3.198  25.793  0.00  0.00    +0.116 A 
ATOM     21  C   UNL     1      -6.330   1.914  25.480  0.00  0.00    +0.048 A 
ATOM     37  H   UNL     1      -4.018   5.856  26.306  0.00  0.00    +0.149 HD
BRANCH  19  23
ATOM     23  C   UNL     1      -4.423   0.426  25.039  0.00  0.00    +0.001 A 
ATOM     26  C   UNL     1      -4.530  -0.075  23.739  0.00  0.00    +0.012 A 
ATOM     27  C   UNL     1      -3.784  -0.331  26.023  0.00  0.00    +0.012 A 
ATOM     28  C   UNL     1      -3.364  -2.082  24.412  0.00  0.00    +0.029 A 
ATOM     29  C   UNL     1      -4.001  -1.328  23.427  0.00  0.00    +0.024 A 
ATOM     30  C   UNL     1      -3.255  -1.584  25.710  0.00  0.00    +0.024 A 
BRANCH  28   9
ATOM      9  N   UNL     1      -2.828  -3.348  24.097  0.00  0.00    -0.336 N 
ATOM     34  C   UNL     1      -1.407  -3.597  24.233  0.00  0.00    +0.129 C 
ATOM     35  C   UNL     1      -3.689  -4.412  23.620  0.00  0.00    +0.129 C 
ENDBRANCH  28   9
ENDBRANCH  19  23
ENDBRANCH  13   5
BRANCH  14   3
ATOM      3  O   UNL     1      -0.424   1.595  23.174  0.00  0.00    -0.442 OA
BRANCH   3  18
ATOM      4  O   UNL     1       0.916   1.553  25.028  0.00  0.00    -0.226 OA
ATOM      8  N   UNL     1       1.568   0.550  23.016  0.00  0.00    -0.251 N 
ATOM     18  C   UNL     1       0.725   1.253  23.856  0.00  0.00    +0.405 C 
ATOM     38  H   UNL     1       1.232   0.397  22.068  0.00  0.00    +0.158 HD
BRANCH   8  22
ATOM     22  C   UNL     1       2.843   0.015  23.311  0.00  0.00    +0.038 A 
ATOM     24  C   UNL     1       3.915   0.874  23.493  0.00  0.00    +0.042 A 
ATOM     25  C   UNL     1       2.995  -1.359  23.412  0.00  0.00    +0.023 A 
ATOM     31  C   UNL     1       5.173   0.344  23.784  0.00  0.00    +0.054 A 
ATOM     32  C   UNL     1       4.254  -1.888  23.702  0.00  0.00    +0.003 A 
ATOM     33  C   UNL     1       5.342  -1.035  23.888  0.00  0.00    +0.019 A 
BRANCH  31  36
ATOM     10  N   UNL     1       7.195   1.927  24.131  0.00  0.00    -0.191 NA
ATOM     36  C   UNL     1       6.288   1.218  23.975  0.00  0.00    +0.099 C 
ENDBRANCH  31  36
ENDBRANCH   8  22
ENDBRANCH   3  18
ENDBRANCH  14   3
TORSDOF 7
ENDMDL
MODEL 3
REMARK VINA RESULT:      10.1      2.259      5.994
REMARK  Name = 11911795
REMARK  9 active torsions:
REMARK  status: ('A' for Active; 'I' for Inactive)
REMARK    1  A    between atoms: O_3  and  C_14
REMARK    2  A    between atoms: O_3  and  C_18
REMARK    3  A    between atoms: N_5  and  C_13
REMARK    4  A    between atoms: N_8  and  C_22
REMARK    5  A    between atoms: N_9  and  C_28
REMARK    6  A    between atoms: N_9  and  C_34
REMARK    7  A    between atoms: N_9  and  C_35
REMARK    8  A    between atoms: C_19  and  C_23
REMARK    9  A    between atoms: C_31  and  C_36
REMARK                            x       y       z     vdW  Elec       q    Type
REMARK                         _______ _______ _______ _____ _____    ______ ____
ROOT
ATOM      1  O   UNL     1      -3.160   2.337  25.593  0.00  0.00    -0.368 OA
ATOM      2  O   UNL     1      -3.261   2.704  22.549  0.00  0.00    -0.368 OA
ATOM     11  C   UNL     1      -3.329   1.521  23.374  0.00  0.00    +0.173 C 
ATOM     12  C   UNL     1      -2.386   1.744  24.538  0.00  0.00    +0.192 C 
ATOM     13  C   UNL     1      -4.690   1.419  24.019  0.00  0.00    +0.130 C 
ATOM     14  C   UNL     1      -1.383   2.716  23.966  0.00  0.00    +0.235 C 
ATOM     15  C   UNL     1      -4.548   2.334  25.222  0.00  0.00    +0.185 C 
ATOM     16  C   UNL     1      -2.246   3.574  23.070  0.00  0.00    +0.207 C 
ENDROOT
BRANCH  13   5
ATOM      5  N   UNL     1      -4.942   0.060  24.449  0.00  0.00    -0.306 N 
ATOM      6  N   UNL     1      -2.695  -0.559  24.181  0.00  0.00    -0.214 NA
ATOM      7  N   UNL     1      -4.334  -2.150  24.951  0.00  0.00    -0.223 NA
ATOM     17  C   UNL     1      -3.962  -0.912  24.530  0.00  0.00    +0.216 A 
ATOM     19  C   UNL     1      -1.764  -1.532  24.271  0.00  0.00    +0.076 A 
ATOM     20  C   UNL     1      -3.352  -3.073  25.018  0.00  0.00    +0.116 A 
ATOM     21  C   UNL     1      -2.037  -2.819  24.688  0.00  0.00    +0.048 A 
ATOM     37  H   UNL     1      -5.871  -0.199  24.760  0.00  0.00    +0.149 HD
BRANCH  19  23
ATOM     23  C   UNL     1      -0.427  -1.136  23.898  0.00  0.00    +0.001 A 
ATOM     26  C   UNL     1       0.670  -1.601  24.626  0.00  0.00    +0.012 A 
ATOM     27  C   UNL     1      -0.226  -0.288  22.807  0.00  0.00    +0.012 A 
ATOM     28  C   UNL     1       2.161  -0.372  23.175  0.00  0.00    +0.029 A 
ATOM     29  C   UNL     1       1.962  -1.220  24.265  0.00  0.00    +0.024 A 
ATOM     30  C   UNL     1       1.067   0.094  22.446  0.00  0.00    +0.024 A 
BRANCH  28   9
ATOM      9  N   UNL     1       3.467   0.013  22.808  0.00  0.00    -0.336 N 
ATOM     34  C   UNL     1       3.691   0.801  21.613  0.00  0.00    +0.129 C 
ATOM     35  C   UNL     1       4.604  -0.385  23.614  0.00  0.00    +0.129 C 
ENDBRANCH  28   9
ENDBRANCH  19  23
ENDBRANCH  13   5
BRANCH  14   3
ATOM      3  O   UNL     1      -0.715   3.478  24.947  0.00  0.00    -0.442 OA
BRANCH   3  18
ATOM      4  O   UNL     1       0.918   1.918  25.311  0.00  0.00    -0.226 OA
ATOM      8  N   UNL     1       0.151   3.318  27.024  0.00  0.00    -0.251 N 
ATOM     18  C   UNL     1       0.199   2.813  25.738  0.00  0.00    +0.405 C 
ATOM     38  H   UNL     1      -0.517   4.067  27.187  0.00  0.00    +0.158 HD
BRANCH   8  22
ATOM     22  C   UNL     1       0.918   2.922  28.143  0.00  0.00    +0.038 A 
ATOM     24  C   UNL     1       0.309   2.822  29.384  0.00  0.00    +0.042 A 
ATOM     25  C   UNL     1       2.265   2.641  27.977  0.00  0.00    +0.023 A 
ATOM     31  C   UNL     1       1.067   2.432  30.488  0.00  0.00    +0.054 A 
ATOM     32  C   UNL     1       3.023   2.251  29.082  0.00  0.00    +0.003 A 
ATOM     33  C   UNL     1       2.423   2.147  30.338  0.00  0.00    +0.019 A 
BRANCH  31  36
ATOM     10  N   UNL     1      -0.047   2.238  32.819  0.00  0.00    -0.191 NA
ATOM     36  C   UNL     1       0.453   2.325  31.774  0.00  0.00    +0.099 C 
ENDBRANCH  31  36
ENDBRANCH   8  22
ENDBRANCH   3  18
ENDBRANCH  14   3
TORSDOF 7
ENDMDL
