MODEL 1
REMARK VINA RESULT:      -2.3      0.000      0.000
REMARK  Name = 71693234
REMARK  9 active torsions:
REMARK  status: ('A' for Active; 'I' for Inactive)
REMARK    1  A    between atoms: O_2  and  C_10
REMARK    2  A    between atoms: N_6  and  C_18
REMARK    3  A    between atoms: C_7  and  C_9
REMARK    4  A    between atoms: CA_8  and  C_10
REMARK    5  A    between atoms: C_11  and  C_16
REMARK    6  A    between atoms: C_11  and  C_17
REMARK    7  A    between atoms: C_11  and  C_19
REMARK    8  A    between atoms: C_16  and  C_22
REMARK    9  A    between atoms: C_17  and  C_23
REMARK                            x       y       z     vdW  Elec       q    Type
REMARK                         _______ _______ _______ _____ _____    ______ ____
ROOT
ATOM      9  C   UNL     1      -2.299   1.405  24.457  0.00  0.00    -0.017 A 
ATOM     14  C   UNL     1      -1.817   0.145  24.816  0.00  0.00    +0.008 A 
ATOM     15  C   UNL     1      -1.454   2.321  23.831  0.00  0.00    +0.008 A 
ATOM     18  C   UNL     1       0.352   0.720  23.923  0.00  0.00    +0.033 A 
ATOM     20  C   UNL     1      -0.492  -0.197  24.548  0.00  0.00    +0.023 A 
ATOM     21  C   UNL     1      -0.129   1.980  23.564  0.00  0.00    +0.023 A 
ENDROOT
BRANCH   9   7
ATOM      1  O   UNL     1      -4.360   0.648  25.370  0.00  0.00    -0.361 OA
ATOM      3  O   UNL     1      -7.327   2.239  26.607  0.00  0.00    -0.273 OA
ATOM      5  N   UNL     1      -5.284   3.145  26.083  0.00  0.00    -0.306 N 
ATOM      7  C   UNL     1      -3.737   1.776  24.746  0.00  0.00    +0.171 C 
ATOM      8  CA  UNL     1      -3.886   2.976  25.696  0.00  0.00    +0.131 C 
ATOM     12  C   UNL     1      -5.758   0.821  25.477  0.00  0.00    +0.256 C 
ATOM     13  C   UNL     1      -6.199   2.116  26.131  0.00  0.00    +0.239 C 
ATOM     24  H   UNL     1      -5.552   4.026  26.511  0.00  0.00    +0.149 HD
BRANCH   8  10
ATOM     10  C   UNL     1      -3.359   4.274  25.088  0.00  0.00    +0.181 C 
BRANCH  10   2
ATOM      2  O   UNL     1      -2.250   4.708  25.852  0.00  0.00    -0.393 OA
ATOM     26  H   UNL     1      -2.281   5.680  25.877  0.00  0.00    +0.209 HD
ENDBRANCH  10   2
ENDBRANCH   8  10
ENDBRANCH   9   7
BRANCH  18   6
ATOM      4  O   UNL     1       1.625  -0.282  21.401  0.00  0.00    -0.275 OA
ATOM      6  N   UNL     1       1.697   0.373  23.652  0.00  0.00    -0.285 N 
ATOM     19  C   UNL     1       2.229  -0.097  22.453  0.00  0.00    +0.220 C 
ATOM     25  H   UNL     1       2.326   0.485  24.442  0.00  0.00    +0.155 HD
BRANCH  19  11
ATOM     11  C   UNL     1       3.738  -0.357  22.572  0.00  0.00    +0.075 C 
BRANCH  11  16
ATOM     16  C   UNL     1       4.015  -1.363  23.708  0.00  0.00    +0.009 C 
ATOM     22  C   UNL     1       5.483  -1.719  23.900  0.00  0.00    +0.004 C 
ENDBRANCH  11  16
BRANCH  11  17
ATOM     17  C   UNL     1       4.543   0.943  22.745  0.00  0.00    +0.009 C 
ATOM     23  C   UNL     1       5.480   0.889  23.947  0.00  0.00    +0.004 C 
ENDBRANCH  11  17
ENDBRANCH  19  11
ENDBRANCH  18   6
TORSDOF 7
ENDMDL
MODEL 2
REMARK VINA RESULT:      -2.3      1.402      2.284
REMARK  Name = 71693234
REMARK  9 active torsions:
REMARK  status: ('A' for Active; 'I' for Inactive)
REMARK    1  A    between atoms: O_2  and  C_10
REMARK    2  A    between atoms: N_6  and  C_18
REMARK    3  A    between atoms: C_7  and  C_9
REMARK    4  A    between atoms: CA_8  and  C_10
REMARK    5  A    between atoms: C_11  and  C_16
REMARK    6  A    between atoms: C_11  and  C_17
REMARK    7  A    between atoms: C_11  and  C_19
REMARK    8  A    between atoms: C_16  and  C_22
REMARK    9  A    between atoms: C_17  and  C_23
REMARK                            x       y       z     vdW  Elec       q    Type
REMARK                         _______ _______ _______ _____ _____    ______ ____
ROOT
ATOM      9  C   UNL     1      -1.739   1.346  24.708  0.00  0.00    -0.017 A 
ATOM     14  C   UNL     1      -1.275   0.105  24.270  0.00  0.00    +0.008 A 
ATOM     15  C   UNL     1      -0.865   2.430  24.784  0.00  0.00    +0.008 A 
ATOM     18  C   UNL     1       0.937   1.034  23.983  0.00  0.00    +0.033 A 
ATOM     20  C   UNL     1       0.063  -0.050  23.907  0.00  0.00    +0.023 A 
ATOM     21  C   UNL     1       0.473   2.274  24.422  0.00  0.00    +0.023 A 
ENDROOT
BRANCH   9   7
ATOM      1  O   UNL     1      -3.728   2.592  24.324  0.00  0.00    -0.361 OA
ATOM      3  O   UNL     1      -7.222   2.049  24.926  0.00  0.00    -0.273 OA
ATOM      5  N   UNL     1      -5.465   0.578  25.048  0.00  0.00    -0.306 N 
ATOM      7  C   UNL     1      -3.190   1.516  25.101  0.00  0.00    +0.171 C 
ATOM      8  CA  UNL     1      -4.053   0.272  24.835  0.00  0.00    +0.131 C 
ATOM     12  C   UNL     1      -5.012   2.968  24.777  0.00  0.00    +0.256 C 
ATOM     13  C   UNL     1      -6.011   1.833  24.899  0.00  0.00    +0.239 C 
ATOM     24  H   UNL     1      -6.109  -0.203  25.135  0.00  0.00    +0.149 HD
BRANCH   8  10
ATOM     10  C   UNL     1      -3.646  -0.920  25.699  0.00  0.00    +0.181 C 
BRANCH  10   2
ATOM      2  O   UNL     1      -3.791  -2.101  24.934  0.00  0.00    -0.393 OA
ATOM     26  H   UNL     1      -2.902  -2.478  24.817  0.00  0.00    +0.209 HD
ENDBRANCH  10   2
ENDBRANCH   8  10
ENDBRANCH   9   7
BRANCH  18   6
ATOM      4  O   UNL     1       2.150  -0.206  21.539  0.00  0.00    -0.275 OA
ATOM      6  N   UNL     1       2.294   0.875  23.616  0.00  0.00    -0.285 N 
ATOM     19  C   UNL     1       2.798   0.281  22.462  0.00  0.00    +0.220 C 
ATOM     25  H   UNL     1       2.957   1.244  24.292  0.00  0.00    +0.155 HD
BRANCH  19  11
ATOM     11  C   UNL     1       4.334   0.309  22.440  0.00  0.00    +0.075 C 
BRANCH  11  16
ATOM     16  C   UNL     1       4.895  -1.094  22.748  0.00  0.00    +0.009 C 
ATOM     22  C   UNL     1       4.233  -1.801  23.924  0.00  0.00    +0.004 C 
ENDBRANCH  11  16
BRANCH  11  17
ATOM     17  C   UNL     1       4.911   1.380  23.382  0.00  0.00    +0.009 C 
ATOM     23  C   UNL     1       5.873   0.792  24.409  0.00  0.00    +0.004 C 
ENDBRANCH  11  17
ENDBRANCH  19  11
ENDBRANCH  18   6
TORSDOF 7
ENDMDL
MODEL 3
REMARK VINA RESULT:       0.2      2.121      8.393
REMARK  Name = 71693234
REMARK  9 active torsions:
REMARK  status: ('A' for Active; 'I' for Inactive)
REMARK    1  A    between atoms: O_2  and  C_10
REMARK    2  A    between atoms: N_6  and  C_18
REMARK    3  A    between atoms: C_7  and  C_9
REMARK    4  A    between atoms: CA_8  and  C_10
REMARK    5  A    between atoms: C_11  and  C_16
REMARK    6  A    between atoms: C_11  and  C_17
REMARK    7  A    between atoms: C_11  and  C_19
REMARK    8  A    between atoms: C_16  and  C_22
REMARK    9  A    between atoms: C_17  and  C_23
REMARK                            x       y       z     vdW  Elec       q    Type
REMARK                         _______ _______ _______ _____ _____    ______ ____
ROOT
ATOM      9  C   UNL     1       0.835   0.695  23.508  0.00  0.00    -0.017 A 
ATOM     14  C   UNL     1       0.650   1.912  24.165  0.00  0.00    +0.008 A 
ATOM     15  C   UNL     1      -0.261  -0.120  23.227  0.00  0.00    +0.008 A 
ATOM     18  C   UNL     1      -1.729   1.500  24.257  0.00  0.00    +0.033 A 
ATOM     20  C   UNL     1      -0.632   2.315  24.538  0.00  0.00    +0.023 A 
ATOM     21  C   UNL     1      -1.543   0.282  23.601  0.00  0.00    +0.023 A 
ENDROOT
BRANCH   9   7
ATOM      1  O   UNL     1       3.062   1.421  23.098  0.00  0.00    -0.361 OA
ATOM      3  O   UNL     1       6.270  -0.178  22.959  0.00  0.00    -0.273 OA
ATOM      5  N   UNL     1       4.259  -0.984  23.716  0.00  0.00    -0.306 N 
ATOM      7  C   UNL     1       2.226   0.258  23.102  0.00  0.00    +0.171 C 
ATOM      8  CA  UNL     1       2.856  -0.766  24.058  0.00  0.00    +0.131 C 
ATOM     12  C   UNL     1       4.323   1.150  22.520  0.00  0.00    +0.256 C 
ATOM     13  C   UNL     1       5.055  -0.045  23.099  0.00  0.00    +0.239 C 
ATOM     24  H   UNL     1       4.721  -1.797  24.112  0.00  0.00    +0.149 HD
BRANCH   8  10
ATOM     10  C   UNL     1       2.113  -2.100  24.061  0.00  0.00    +0.181 C 
BRANCH  10   2
ATOM      2  O   UNL     1       1.226  -2.118  25.163  0.00  0.00    -0.393 OA
ATOM     26  H   UNL     1       0.323  -2.159  24.805  0.00  0.00    +0.209 HD
ENDBRANCH  10   2
ENDBRANCH   8  10
ENDBRANCH   9   7
BRANCH  18   6
ATOM      4  O   UNL     1      -3.720   3.213  22.814  0.00  0.00    -0.275 OA
ATOM      6  N   UNL     1      -3.029   1.908  24.636  0.00  0.00    -0.285 N 
ATOM     19  C   UNL     1      -3.909   2.716  23.920  0.00  0.00    +0.220 C 
ATOM     25  H   UNL     1      -3.330   1.561  25.543  0.00  0.00    +0.155 HD
BRANCH  19  11
ATOM     11  C   UNL     1      -5.228   2.924  24.681  0.00  0.00    +0.075 C 
BRANCH  11  16
ATOM     16  C   UNL     1      -5.030   3.952  25.813  0.00  0.00    +0.009 C 
ATOM     22  C   UNL     1      -3.577   4.224  26.182  0.00  0.00    +0.004 C 
ENDBRANCH  11  16
BRANCH  11  17
ATOM     17  C   UNL     1      -5.815   1.600  25.203  0.00  0.00    +0.009 C 
ATOM     23  C   UNL     1      -6.421   1.743  26.594  0.00  0.00    +0.004 C 
ENDBRANCH  11  17
ENDBRANCH  19  11
ENDBRANCH  18   6
TORSDOF 7
ENDMDL
MODEL 4
REMARK VINA RESULT:       0.5     16.102     17.364
REMARK  Name = 71693234
REMARK  9 active torsions:
REMARK  status: ('A' for Active; 'I' for Inactive)
REMARK    1  A    between atoms: O_2  and  C_10
REMARK    2  A    between atoms: N_6  and  C_18
REMARK    3  A    between atoms: C_7  and  C_9
REMARK    4  A    between atoms: CA_8  and  C_10
REMARK    5  A    between atoms: C_11  and  C_16
REMARK    6  A    between atoms: C_11  and  C_17
REMARK    7  A    between atoms: C_11  and  C_19
REMARK    8  A    between atoms: C_16  and  C_22
REMARK    9  A    between atoms: C_17  and  C_23
REMARK                            x       y       z     vdW  Elec       q    Type
REMARK                         _______ _______ _______ _____ _____    ______ ____
ROOT
ATOM      9  C   UNL     1      -5.032 -10.299  11.677  0.00  0.00    -0.017 A 
ATOM     14  C   UNL     1      -4.633  -9.441  10.651  0.00  0.00    +0.008 A 
ATOM     15  C   UNL     1      -4.095 -10.773  12.594  0.00  0.00    +0.008 A 
ATOM     18  C   UNL     1      -2.359  -9.533  11.461  0.00  0.00    +0.033 A 
ATOM     20  C   UNL     1      -3.296  -9.058  10.544  0.00  0.00    +0.023 A 
ATOM     21  C   UNL     1      -2.758 -10.391  12.486  0.00  0.00    +0.023 A 
ENDROOT
BRANCH   9   7
ATOM      1  O   UNL     1      -6.989 -10.181  13.023  0.00  0.00    -0.361 OA
ATOM      3  O   UNL     1     -10.499 -10.644  12.449  0.00  0.00    -0.273 OA
ATOM      5  N   UNL     1      -8.777 -10.457  10.944  0.00  0.00    -0.306 N 
ATOM      7  C   UNL     1      -6.482 -10.714  11.794  0.00  0.00    +0.171 C 
ATOM      8  CA  UNL     1      -7.371 -10.187  10.656  0.00  0.00    +0.131 C 
ATOM     12  C   UNL     1      -8.268 -10.700  13.325  0.00  0.00    +0.256 C 
ATOM     13  C   UNL     1      -9.293 -10.575  12.215  0.00  0.00    +0.239 C 
ATOM     24  H   UNL     1      -9.440 -10.374  10.179  0.00  0.00    +0.149 HD
BRANCH   8  10
ATOM     10  C   UNL     1      -6.999 -10.781   9.299  0.00  0.00    +0.181 C 
BRANCH  10   2
ATOM      2  O   UNL     1      -8.046 -10.508   8.387  0.00  0.00    -0.393 OA
ATOM     26  H   UNL     1      -8.841 -10.314   8.913  0.00  0.00    +0.209 HD
ENDBRANCH  10   2
ENDBRANCH   8  10
ENDBRANCH   9   7
BRANCH  18   6
ATOM      4  O   UNL     1      -0.609  -8.041  13.384  0.00  0.00    -0.275 OA
ATOM      6  N   UNL     1      -1.003  -9.144  11.351  0.00  0.00    -0.285 N 
ATOM     19  C   UNL     1      -0.242  -8.442  12.283  0.00  0.00    +0.220 C 
ATOM     25  H   UNL     1      -0.557  -9.418  10.480  0.00  0.00    +0.155 HD
BRANCH  19  11
ATOM     11  C   UNL     1       1.194  -8.218  11.783  0.00  0.00    +0.075 C 
BRANCH  11  16
ATOM     16  C   UNL     1       1.664  -6.794  12.140  0.00  0.00    +0.009 C 
ATOM     22  C   UNL     1       3.175  -6.596  12.113  0.00  0.00    +0.004 C 
ENDBRANCH  11  16
BRANCH  11  17
ATOM     17  C   UNL     1       1.340  -8.512  10.279  0.00  0.00    +0.009 C 
ATOM     23  C   UNL     1       2.025  -9.848  10.013  0.00  0.00    +0.004 C 
ENDBRANCH  11  17
ENDBRANCH  19  11
ENDBRANCH  18   6
TORSDOF 7
ENDMDL
MODEL 5
REMARK VINA RESULT:       1.0      2.107      8.367
REMARK  Name = 71693234
REMARK  9 active torsions:
REMARK  status: ('A' for Active; 'I' for Inactive)
REMARK    1  A    between atoms: O_2  and  C_10
REMARK    2  A    between atoms: N_6  and  C_18
REMARK    3  A    between atoms: C_7  and  C_9
REMARK    4  A    between atoms: CA_8  and  C_10
REMARK    5  A    between atoms: C_11  and  C_16
REMARK    6  A    between atoms: C_11  and  C_17
REMARK    7  A    between atoms: C_11  and  C_19
REMARK    8  A    between atoms: C_16  and  C_22
REMARK    9  A    between atoms: C_17  and  C_23
REMARK                            x       y       z     vdW  Elec       q    Type
REMARK                         _______ _______ _______ _____ _____    ______ ____
ROOT
ATOM      9  C   UNL     1       1.470   1.110  23.658  0.00  0.00    -0.017 A 
ATOM     14  C   UNL     1       0.939   2.365  23.958  0.00  0.00    +0.008 A 
ATOM     15  C   UNL     1       0.655  -0.021  23.699  0.00  0.00    +0.008 A 
ATOM     18  C   UNL     1      -1.224   1.358  24.336  0.00  0.00    +0.033 A 
ATOM     20  C   UNL     1      -0.408   2.488  24.296  0.00  0.00    +0.023 A 
ATOM     21  C   UNL     1      -0.693   0.103  24.038  0.00  0.00    +0.023 A 
ENDROOT
BRANCH   9   7
ATOM      1  O   UNL     1       3.661   0.713  24.495  0.00  0.00    -0.361 OA
ATOM      3  O   UNL     1       6.770  -0.360  23.066  0.00  0.00    -0.273 OA
ATOM      5  N   UNL     1       4.660  -0.368  22.165  0.00  0.00    -0.306 N 
ATOM      7  C   UNL     1       2.932   0.975  23.290  0.00  0.00    +0.171 C 
ATOM      8  CA  UNL     1       3.219  -0.176  22.312  0.00  0.00    +0.131 C 
ATOM     12  C   UNL     1       5.056   0.790  24.284  0.00  0.00    +0.256 C 
ATOM     13  C   UNL     1       5.582  -0.050  23.137  0.00  0.00    +0.239 C 
ATOM     24  H   UNL     1       4.983  -0.929  21.382  0.00  0.00    +0.149 HD
BRANCH   8  10
ATOM     10  C   UNL     1       2.585   0.048  20.941  0.00  0.00    +0.181 C 
BRANCH  10   2
ATOM      2  O   UNL     1       1.373  -0.679  20.883  0.00  0.00    -0.393 OA
ATOM     26  H   UNL     1       1.140  -0.922  21.795  0.00  0.00    +0.209 HD
ENDBRANCH  10   2
ENDBRANCH   8  10
ENDBRANCH   9   7
BRANCH  18   6
ATOM      4  O   UNL     1      -3.476   2.690  22.873  0.00  0.00    -0.275 OA
ATOM      6  N   UNL     1      -2.591   1.484  24.680  0.00  0.00    -0.285 N 
ATOM     19  C   UNL     1      -3.594   2.125  23.957  0.00  0.00    +0.220 C 
ATOM     25  H   UNL     1      -2.842   1.050  25.564  0.00  0.00    +0.155 HD
BRANCH  19  11
ATOM     11  C   UNL     1      -4.949   2.037  24.675  0.00  0.00    +0.075 C 
BRANCH  11  16
ATOM     16  C   UNL     1      -5.120   3.233  25.633  0.00  0.00    +0.009 C 
ATOM     22  C   UNL     1      -3.824   3.944  26.003  0.00  0.00    +0.004 C 
ENDBRANCH  11  16
BRANCH  11  17
ATOM     17  C   UNL     1      -5.141   0.690  25.396  0.00  0.00    +0.009 C 
ATOM     23  C   UNL     1      -4.612  -0.485  24.581  0.00  0.00    +0.004 C 
ENDBRANCH  11  17
ENDBRANCH  19  11
ENDBRANCH  18   6
TORSDOF 7
ENDMDL
MODEL 6
REMARK VINA RESULT:       1.5      1.981      8.337
REMARK  Name = 71693234
REMARK  9 active torsions:
REMARK  status: ('A' for Active; 'I' for Inactive)
REMARK    1  A    between atoms: O_2  and  C_10
REMARK    2  A    between atoms: N_6  and  C_18
REMARK    3  A    between atoms: C_7  and  C_9
REMARK    4  A    between atoms: CA_8  and  C_10
REMARK    5  A    between atoms: C_11  and  C_16
REMARK    6  A    between atoms: C_11  and  C_17
REMARK    7  A    between atoms: C_11  and  C_19
REMARK    8  A    between atoms: C_16  and  C_22
REMARK    9  A    between atoms: C_17  and  C_23
REMARK                            x       y       z     vdW  Elec       q    Type
REMARK                         _______ _______ _______ _____ _____    ______ ____
ROOT
ATOM      9  C   UNL     1       0.583   0.958  23.635  0.00  0.00    -0.017 A 
ATOM     14  C   UNL     1       0.512   1.923  24.640  0.00  0.00    +0.008 A 
ATOM     15  C   UNL     1      -0.586   0.463  23.059  0.00  0.00    +0.008 A 
ATOM     18  C   UNL     1      -1.899   1.900  24.491  0.00  0.00    +0.033 A 
ATOM     20  C   UNL     1      -0.729   2.394  25.067  0.00  0.00    +0.023 A 
ATOM     21  C   UNL     1      -1.828   0.934  23.486  0.00  0.00    +0.023 A 
ENDROOT
BRANCH   9   7
ATOM      1  O   UNL     1       2.836   1.556  23.163  0.00  0.00    -0.361 OA
ATOM      3  O   UNL     1       5.932  -0.233  22.875  0.00  0.00    -0.273 OA
ATOM      5  N   UNL     1       3.902  -0.933  23.685  0.00  0.00    -0.306 N 
ATOM      7  C   UNL     1       1.930   0.447  23.170  0.00  0.00    +0.171 C 
ATOM      8  CA  UNL     1       2.527  -0.638  24.081  0.00  0.00    +0.131 C 
ATOM     12  C   UNL     1       4.057   1.222  22.535  0.00  0.00    +0.256 C 
ATOM     13  C   UNL     1       4.733  -0.029  23.061  0.00  0.00    +0.239 C 
ATOM     24  H   UNL     1       4.325  -1.782  24.046  0.00  0.00    +0.149 HD
BRANCH   8  10
ATOM     10  C   UNL     1       1.703  -1.924  24.080  0.00  0.00    +0.181 C 
BRANCH  10   2
ATOM      2  O   UNL     1       0.775  -1.863  25.146  0.00  0.00    -0.393 OA
ATOM     26  H   UNL     1       0.493  -0.936  25.229  0.00  0.00    +0.209 HD
ENDBRANCH  10   2
ENDBRANCH   8  10
ENDBRANCH   9   7
BRANCH  18   6
ATOM      4  O   UNL     1      -2.582   3.964  26.554  0.00  0.00    -0.275 OA
ATOM      6  N   UNL     1      -3.158   2.377  24.925  0.00  0.00    -0.285 N 
ATOM     19  C   UNL     1      -3.412   3.340  25.899  0.00  0.00    +0.220 C 
ATOM     25  H   UNL     1      -3.953   1.949  24.458  0.00  0.00    +0.155 HD
BRANCH  19  11
ATOM     11  C   UNL     1      -4.920   3.577  26.075  0.00  0.00    +0.075 C 
BRANCH  11  16
ATOM     16  C   UNL     1      -5.667   2.229  26.117  0.00  0.00    +0.009 C 
ATOM     22  C   UNL     1      -6.325   1.823  24.804  0.00  0.00    +0.004 C 
ENDBRANCH  11  16
BRANCH  11  17
ATOM     17  C   UNL     1      -5.492   4.519  25.001  0.00  0.00    +0.009 C 
ATOM     23  C   UNL     1      -4.456   4.894  23.947  0.00  0.00    +0.004 C 
ENDBRANCH  11  17
ENDBRANCH  19  11
ENDBRANCH  18   6
TORSDOF 7
ENDMDL
