MODEL 1
REMARK VINA RESULT:      -4.3      0.000      0.000
REMARK  Name = 75536700
REMARK  8 active torsions:
REMARK  status: ('A' for Active; 'I' for Inactive)
REMARK    1  A    between atoms: S_1  and  N_8
REMARK    2  A    between atoms: S_1  and  C_19
REMARK    3  A    between atoms: O_3  and  C_10
REMARK    4  A    between atoms: N_7  and  C_9
REMARK    5  A    between atoms: N_7  and  C_12
REMARK    6  A    between atoms: N_8  and  C_16
REMARK    7  A    between atoms: C_11  and  C_16
REMARK    8  A    between atoms: C_24  and  C_25
REMARK                            x       y       z     vdW  Elec       q    Type
REMARK                         _______ _______ _______ _____ _____    ______ ____
ROOT
ATOM      2  O   UNL     1      -1.649   4.405  25.737  0.00  0.00    -0.371 OA
ATOM      9  C   UNL     1      -0.512   2.738  24.484  0.00  0.00    +0.111 C 
ATOM     10  C   UNL     1      -2.005   2.599  24.252  0.00  0.00    +0.164 C 
ATOM     11  C   UNL     1      -2.494   3.985  24.653  0.00  0.00    +0.164 C 
ATOM     13  C   UNL     1      -0.482   3.566  25.759  0.00  0.00    +0.181 C 
ENDROOT
BRANCH  10   3
ATOM      3  O   UNL     1      -2.321   2.298  22.906  0.00  0.00    -0.388 OA
ATOM     27  H   UNL     1      -2.876   3.014  22.554  0.00  0.00    +0.210 HD
ENDBRANCH  10   3
BRANCH   9   7
ATOM      7  N   UNL     1       0.179   1.466  24.618  0.00  0.00    -0.306 NA
ATOM     26  H   UNL     1      -0.493   0.720  24.797  0.00  0.00    +0.123 HD
BRANCH   7  12
ATOM      4  O   UNL     1       2.908  -0.495  22.104  0.00  0.00    -0.380 OA
ATOM     12  C   UNL     1       0.953   1.158  23.419  0.00  0.00    +0.058 C 
ATOM     14  C   UNL     1       2.453   1.271  23.710  0.00  0.00    +0.047 C 
ATOM     15  C   UNL     1       0.625  -0.242  22.895  0.00  0.00    +0.047 C 
ATOM     17  C   UNL     1       3.262   0.831  22.495  0.00  0.00    +0.161 C 
ATOM     18  C   UNL     1       1.535  -0.599  21.725  0.00  0.00    +0.161 C 
ENDBRANCH   7  12
ENDBRANCH   9   7
BRANCH  11  16
ATOM     16  C   UNL     1      -3.946   4.003  25.097  0.00  0.00    +0.140 C 
BRANCH  16   8
ATOM      8  N   UNL     1      -4.712   3.003  24.327  0.00  0.00    -0.187 NA
ATOM     28  H   UNL     1      -5.028   3.303  23.397  0.00  0.00    +0.148 HD
BRANCH   8   1
ATOM      1  S   UNL     1      -5.605   1.804  25.138  0.00  0.00    +0.058 S 
ATOM      5  O   UNL     1      -6.833   1.544  24.411  0.00  0.00    -0.153 OA
ATOM      6  O   UNL     1      -5.649   2.124  26.552  0.00  0.00    -0.153 OA
BRANCH   1  19
ATOM     19  C   UNL     1      -4.557   0.391  24.961  0.00  0.00    +0.105 A 
ATOM     20  C   UNL     1      -3.409   0.272  25.744  0.00  0.00    +0.029 A 
ATOM     21  C   UNL     1      -4.876  -0.603  24.036  0.00  0.00    +0.029 A 
ATOM     22  C   UNL     1      -2.580  -0.841  25.603  0.00  0.00    +0.005 A 
ATOM     23  C   UNL     1      -4.048  -1.716  23.895  0.00  0.00    +0.005 A 
ATOM     24  C   UNL     1      -2.899  -1.835  24.677  0.00  0.00    -0.050 A 
ATOM     25  C   UNL     1      -2.013  -3.025  24.526  0.00  0.00    +0.044 C 
ENDBRANCH   1  19
ENDBRANCH   8   1
ENDBRANCH  16   8
ENDBRANCH  11  16
TORSDOF 7
ENDMDL
MODEL 2
REMARK VINA RESULT:      -3.9      1.897      2.376
REMARK  Name = 75536700
REMARK  8 active torsions:
REMARK  status: ('A' for Active; 'I' for Inactive)
REMARK    1  A    between atoms: S_1  and  N_8
REMARK    2  A    between atoms: S_1  and  C_19
REMARK    3  A    between atoms: O_3  and  C_10
REMARK    4  A    between atoms: N_7  and  C_9
REMARK    5  A    between atoms: N_7  and  C_12
REMARK    6  A    between atoms: N_8  and  C_16
REMARK    7  A    between atoms: C_11  and  C_16
REMARK    8  A    between atoms: C_24  and  C_25
REMARK                            x       y       z     vdW  Elec       q    Type
REMARK                         _______ _______ _______ _____ _____    ______ ____
ROOT
ATOM      2  O   UNL     1      -0.875   1.110  26.032  0.00  0.00    -0.371 OA
ATOM      9  C   UNL     1       0.597   1.120  24.168  0.00  0.00    +0.111 C 
ATOM     10  C   UNL     1      -0.185   2.419  24.187  0.00  0.00    +0.164 C 
ATOM     11  C   UNL     1      -0.632   2.472  25.642  0.00  0.00    +0.164 C 
ATOM     13  C   UNL     1      -0.257   0.240  25.067  0.00  0.00    +0.181 C 
ENDROOT
BRANCH  10   3
ATOM      3  O   UNL     1       0.607   3.538  23.838  0.00  0.00    -0.388 OA
ATOM     27  H   UNL     1       0.295   3.880  22.984  0.00  0.00    +0.210 HD
ENDBRANCH  10   3
BRANCH   9   7
ATOM      7  N   UNL     1       0.776   0.564  22.837  0.00  0.00    -0.306 NA
ATOM     26  H   UNL     1       0.530   1.259  22.132  0.00  0.00    +0.123 HD
BRANCH   7  12
ATOM      4  O   UNL     1       4.807  -0.244  23.681  0.00  0.00    -0.380 OA
ATOM     12  C   UNL     1       2.151   0.116  22.633  0.00  0.00    +0.058 C 
ATOM     14  C   UNL     1       3.124   1.284  22.821  0.00  0.00    +0.047 C 
ATOM     15  C   UNL     1       2.508  -1.023  23.591  0.00  0.00    +0.047 C 
ATOM     17  C   UNL     1       4.565   0.792  22.729  0.00  0.00    +0.161 C 
ATOM     18  C   UNL     1       3.982  -1.388  23.457  0.00  0.00    +0.161 C 
ENDBRANCH   7  12
ENDBRANCH   9   7
BRANCH  11  16
ATOM     16  C   UNL     1      -1.887   3.299  25.855  0.00  0.00    +0.140 C 
BRANCH  16   8
ATOM      8  N   UNL     1      -2.433   3.715  24.548  0.00  0.00    -0.187 NA
ATOM     28  H   UNL     1      -2.064   4.595  24.169  0.00  0.00    +0.148 HD
BRANCH   8   1
ATOM      1  S   UNL     1      -3.994   3.225  24.082  0.00  0.00    +0.058 S 
ATOM      5  O   UNL     1      -4.202   3.546  22.682  0.00  0.00    -0.153 OA
ATOM      6  O   UNL     1      -4.946   3.671  25.081  0.00  0.00    -0.153 OA
BRANCH   1  19
ATOM     19  C   UNL     1      -3.881   1.467  24.227  0.00  0.00    +0.105 A 
ATOM     20  C   UNL     1      -3.329   0.716  23.189  0.00  0.00    +0.029 A 
ATOM     21  C   UNL     1      -4.346   0.831  25.377  0.00  0.00    +0.029 A 
ATOM     22  C   UNL     1      -3.242  -0.671  23.302  0.00  0.00    +0.005 A 
ATOM     23  C   UNL     1      -4.260  -0.557  25.490  0.00  0.00    +0.005 A 
ATOM     24  C   UNL     1      -3.708  -1.308  24.452  0.00  0.00    -0.050 A 
ATOM     25  C   UNL     1      -3.614  -2.792  24.573  0.00  0.00    +0.044 C 
ENDBRANCH   1  19
ENDBRANCH   8   1
ENDBRANCH  16   8
ENDBRANCH  11  16
TORSDOF 7
ENDMDL
MODEL 3
REMARK VINA RESULT:      -3.9      1.559      1.989
REMARK  Name = 75536700
REMARK  8 active torsions:
REMARK  status: ('A' for Active; 'I' for Inactive)
REMARK    1  A    between atoms: S_1  and  N_8
REMARK    2  A    between atoms: S_1  and  C_19
REMARK    3  A    between atoms: O_3  and  C_10
REMARK    4  A    between atoms: N_7  and  C_9
REMARK    5  A    between atoms: N_7  and  C_12
REMARK    6  A    between atoms: N_8  and  C_16
REMARK    7  A    between atoms: C_11  and  C_16
REMARK    8  A    between atoms: C_24  and  C_25
REMARK                            x       y       z     vdW  Elec       q    Type
REMARK                         _______ _______ _______ _____ _____    ______ ____
ROOT
ATOM      2  O   UNL     1      -1.842   5.181  25.385  0.00  0.00    -0.371 OA
ATOM      9  C   UNL     1      -0.835   3.645  23.879  0.00  0.00    +0.111 C 
ATOM     10  C   UNL     1      -2.225   3.151  24.234  0.00  0.00    +0.164 C 
ATOM     11  C   UNL     1      -2.878   4.438  24.721  0.00  0.00    +0.164 C 
ATOM     13  C   UNL     1      -0.569   4.630  25.007  0.00  0.00    +0.181 C 
ENDROOT
BRANCH  10   3
ATOM      3  O   UNL     1      -2.908   2.603  23.123  0.00  0.00    -0.388 OA
ATOM     27  H   UNL     1      -2.307   1.994  22.663  0.00  0.00    +0.210 HD
ENDBRANCH  10   3
BRANCH   9   7
ATOM      7  N   UNL     1       0.159   2.587  23.805  0.00  0.00    -0.306 NA
ATOM     26  H   UNL     1       0.933   2.789  24.439  0.00  0.00    +0.123 HD
BRANCH   7  12
ATOM      4  O   UNL     1      -0.125  -1.325  25.301  0.00  0.00    -0.380 OA
ATOM     12  C   UNL     1      -0.426   1.290  24.136  0.00  0.00    +0.058 C 
ATOM     14  C   UNL     1       0.347   0.165  23.440  0.00  0.00    +0.047 C 
ATOM     15  C   UNL     1      -0.436   1.060  25.649  0.00  0.00    +0.047 C 
ATOM     17  C   UNL     1      -0.186  -1.194  23.880  0.00  0.00    +0.161 C 
ATOM     18  C   UNL     1      -0.925  -0.349  25.969  0.00  0.00    +0.161 C 
ENDBRANCH   7  12
ENDBRANCH   9   7
BRANCH  11  16
ATOM     16  C   UNL     1      -4.032   4.200  25.679  0.00  0.00    +0.140 C 
BRANCH  16   8
ATOM      8  N   UNL     1      -4.109   2.764  26.014  0.00  0.00    -0.187 NA
ATOM     28  H   UNL     1      -3.208   2.289  26.149  0.00  0.00    +0.148 HD
BRANCH   8   1
ATOM      1  S   UNL     1      -5.444   1.841  25.507  0.00  0.00    +0.058 S 
ATOM      5  O   UNL     1      -5.949   2.371  24.255  0.00  0.00    -0.153 OA
ATOM      6  O   UNL     1      -6.341   1.651  26.632  0.00  0.00    -0.153 OA
BRANCH   1  19
ATOM     19  C   UNL     1      -4.696   0.274  25.174  0.00  0.00    +0.105 A 
ATOM     20  C   UNL     1      -4.181  -0.489  26.222  0.00  0.00    +0.029 A 
ATOM     21  C   UNL     1      -4.618  -0.196  23.864  0.00  0.00    +0.029 A 
ATOM     22  C   UNL     1      -3.588  -1.723  25.959  0.00  0.00    +0.005 A 
ATOM     23  C   UNL     1      -4.024  -1.431  23.601  0.00  0.00    +0.005 A 
ATOM     24  C   UNL     1      -3.509  -2.195  24.648  0.00  0.00    -0.050 A 
ATOM     25  C   UNL     1      -2.874  -3.515  24.367  0.00  0.00    +0.044 C 
ENDBRANCH   1  19
ENDBRANCH   8   1
ENDBRANCH  16   8
ENDBRANCH  11  16
TORSDOF 7
ENDMDL
MODEL 4
REMARK VINA RESULT:      -3.8      2.159      4.614
REMARK  Name = 75536700
REMARK  8 active torsions:
REMARK  status: ('A' for Active; 'I' for Inactive)
REMARK    1  A    between atoms: S_1  and  N_8
REMARK    2  A    between atoms: S_1  and  C_19
REMARK    3  A    between atoms: O_3  and  C_10
REMARK    4  A    between atoms: N_7  and  C_9
REMARK    5  A    between atoms: N_7  and  C_12
REMARK    6  A    between atoms: N_8  and  C_16
REMARK    7  A    between atoms: C_11  and  C_16
REMARK    8  A    between atoms: C_24  and  C_25
REMARK                            x       y       z     vdW  Elec       q    Type
REMARK                         _______ _______ _______ _____ _____    ______ ____
ROOT
ATOM      2  O   UNL     1      -4.647   2.331  23.595  0.00  0.00    -0.371 OA
ATOM      9  C   UNL     1      -5.093   0.560  25.114  0.00  0.00    +0.111 C 
ATOM     10  C   UNL     1      -5.166   1.880  25.858  0.00  0.00    +0.164 C 
ATOM     11  C   UNL     1      -5.392   2.853  24.709  0.00  0.00    +0.164 C 
ATOM     13  C   UNL     1      -4.316   0.959  23.870  0.00  0.00    +0.181 C 
ENDROOT
BRANCH  10   3
ATOM      3  O   UNL     1      -6.224   1.918  26.796  0.00  0.00    -0.388 OA
ATOM     27  H   UNL     1      -6.613   1.030  26.858  0.00  0.00    +0.210 HD
ENDBRANCH  10   3
BRANCH   9   7
ATOM      7  N   UNL     1      -4.447  -0.501  25.869  0.00  0.00    -0.306 NA
ATOM     26  H   UNL     1      -5.095  -1.277  26.007  0.00  0.00    +0.123 HD
BRANCH   7  12
ATOM      4  O   UNL     1      -1.045  -2.828  25.074  0.00  0.00    -0.380 OA
ATOM     12  C   UNL     1      -3.246  -0.976  25.187  0.00  0.00    +0.058 C 
ATOM     14  C   UNL     1      -2.030  -0.863  26.112  0.00  0.00    +0.047 C 
ATOM     15  C   UNL     1      -3.414  -2.424  24.718  0.00  0.00    +0.047 C 
ATOM     17  C   UNL     1      -0.800  -1.471  25.446  0.00  0.00    +0.161 C 
ATOM     18  C   UNL     1      -2.108  -2.946  24.129  0.00  0.00    +0.161 C 
ENDBRANCH   7  12
ENDBRANCH   9   7
BRANCH  11  16
ATOM     16  C   UNL     1      -4.930   4.265  25.019  0.00  0.00    +0.140 C 
BRANCH  16   8
ATOM      8  N   UNL     1      -3.591   4.487  24.438  0.00  0.00    -0.187 NA
ATOM     28  H   UNL     1      -3.484   4.226  23.450  0.00  0.00    +0.148 HD
BRANCH   8   1
ATOM      1  S   UNL     1      -2.214   4.458  25.436  0.00  0.00    +0.058 S 
ATOM      5  O   UNL     1      -2.599   4.057  26.776  0.00  0.00    -0.153 OA
ATOM      6  O   UNL     1      -1.456   5.677  25.229  0.00  0.00    -0.153 OA
BRANCH   1  19
ATOM     19  C   UNL     1      -1.277   3.140  24.722  0.00  0.00    +0.105 A 
ATOM     20  C   UNL     1      -0.090   2.722  25.324  0.00  0.00    +0.029 A 
ATOM     21  C   UNL     1      -1.721   2.522  23.553  0.00  0.00    +0.029 A 
ATOM     22  C   UNL     1       0.651   1.684  24.759  0.00  0.00    +0.005 A 
ATOM     23  C   UNL     1      -0.980   1.485  22.987  0.00  0.00    +0.005 A 
ATOM     24  C   UNL     1       0.207   1.066  23.590  0.00  0.00    -0.050 A 
ATOM     25  C   UNL     1       1.000  -0.043  22.986  0.00  0.00    +0.044 C 
ENDBRANCH   1  19
ENDBRANCH   8   1
ENDBRANCH  16   8
ENDBRANCH  11  16
TORSDOF 7
ENDMDL
MODEL 5
REMARK VINA RESULT:      -3.4      2.556      6.716
REMARK  Name = 75536700
REMARK  8 active torsions:
REMARK  status: ('A' for Active; 'I' for Inactive)
REMARK    1  A    between atoms: S_1  and  N_8
REMARK    2  A    between atoms: S_1  and  C_19
REMARK    3  A    between atoms: O_3  and  C_10
REMARK    4  A    between atoms: N_7  and  C_9
REMARK    5  A    between atoms: N_7  and  C_12
REMARK    6  A    between atoms: N_8  and  C_16
REMARK    7  A    between atoms: C_11  and  C_16
REMARK    8  A    between atoms: C_24  and  C_25
REMARK                            x       y       z     vdW  Elec       q    Type
REMARK                         _______ _______ _______ _____ _____    ______ ____
ROOT
ATOM      2  O   UNL     1      -1.492  -0.856  25.970  0.00  0.00    -0.371 OA
ATOM      9  C   UNL     1      -3.755  -0.835  25.248  0.00  0.00    +0.111 C 
ATOM     10  C   UNL     1      -2.931  -1.650  24.269  0.00  0.00    +0.164 C 
ATOM     11  C   UNL     1      -1.718  -1.996  25.123  0.00  0.00    +0.164 C 
ATOM     13  C   UNL     1      -2.674  -0.037  25.960  0.00  0.00    +0.181 C 
ENDROOT
BRANCH  10   3
ATOM      3  O   UNL     1      -3.607  -2.809  23.821  0.00  0.00    -0.388 OA
ATOM     27  H   UNL     1      -2.956  -3.523  23.719  0.00  0.00    +0.210 HD
ENDBRANCH  10   3
BRANCH   9   7
ATOM      7  N   UNL     1      -4.753   0.008  24.611  0.00  0.00    -0.306 NA
ATOM     26  H   UNL     1      -5.672  -0.431  24.672  0.00  0.00    +0.123 HD
BRANCH   7  12
ATOM      4  O   UNL     1      -6.085   3.893  25.479  0.00  0.00    -0.380 OA
ATOM     12  C   UNL     1      -4.795   1.332  25.226  0.00  0.00    +0.058 C 
ATOM     14  C   UNL     1      -4.676   2.421  24.155  0.00  0.00    +0.047 C 
ATOM     15  C   UNL     1      -6.084   1.527  26.029  0.00  0.00    +0.047 C 
ATOM     17  C   UNL     1      -4.842   3.801  24.782  0.00  0.00    +0.161 C 
ATOM     18  C   UNL     1      -6.173   2.956  26.552  0.00  0.00    +0.161 C 
ENDBRANCH   7  12
ENDBRANCH   9   7
BRANCH  11  16
ATOM     16  C   UNL     1      -0.471  -2.283  24.306  0.00  0.00    +0.140 C 
BRANCH  16   8
ATOM      8  N   UNL     1       0.517  -1.206  24.515  0.00  0.00    -0.187 NA
ATOM     28  H   UNL     1       0.660  -0.914  25.490  0.00  0.00    +0.148 HD
BRANCH   8   1
ATOM      1  S   UNL     1       0.820  -0.077  23.279  0.00  0.00    +0.058 S 
ATOM      5  O   UNL     1       0.102  -0.470  22.081  0.00  0.00    -0.153 OA
ATOM      6  O   UNL     1       2.245   0.186  23.221  0.00  0.00    -0.153 OA
BRANCH   1  19
ATOM     19  C   UNL     1       0.052   1.379  23.922  0.00  0.00    +0.105 A 
ATOM     20  C   UNL     1      -0.952   2.018  23.194  0.00  0.00    +0.029 A 
ATOM     21  C   UNL     1       0.453   1.892  25.155  0.00  0.00    +0.029 A 
ATOM     22  C   UNL     1      -1.556   3.168  23.700  0.00  0.00    +0.005 A 
ATOM     23  C   UNL     1      -0.151   3.044  25.661  0.00  0.00    +0.005 A 
ATOM     24  C   UNL     1      -1.155   3.682  24.933  0.00  0.00    -0.050 A 
ATOM     25  C   UNL     1      -1.801   4.913  25.474  0.00  0.00    +0.044 C 
ENDBRANCH   1  19
ENDBRANCH   8   1
ENDBRANCH  16   8
ENDBRANCH  11  16
TORSDOF 7
ENDMDL
MODEL 6
REMARK VINA RESULT:      -3.3      2.224      5.088
REMARK  Name = 75536700
REMARK  8 active torsions:
REMARK  status: ('A' for Active; 'I' for Inactive)
REMARK    1  A    between atoms: S_1  and  N_8
REMARK    2  A    between atoms: S_1  and  C_19
REMARK    3  A    between atoms: O_3  and  C_10
REMARK    4  A    between atoms: N_7  and  C_9
REMARK    5  A    between atoms: N_7  and  C_12
REMARK    6  A    between atoms: N_8  and  C_16
REMARK    7  A    between atoms: C_11  and  C_16
REMARK    8  A    between atoms: C_24  and  C_25
REMARK                            x       y       z     vdW  Elec       q    Type
REMARK                         _______ _______ _______ _____ _____    ______ ____
ROOT
ATOM      2  O   UNL     1      -2.543   3.197  23.621  0.00  0.00    -0.371 OA
ATOM      9  C   UNL     1      -4.583   2.131  24.205  0.00  0.00    +0.111 C 
ATOM     10  C   UNL     1      -4.116   2.979  25.373  0.00  0.00    +0.164 C 
ATOM     11  C   UNL     1      -3.171   3.947  24.673  0.00  0.00    +0.164 C 
ATOM     13  C   UNL     1      -3.301   1.995  23.400  0.00  0.00    +0.181 C 
ENDROOT
BRANCH  10   3
ATOM      3  O   UNL     1      -5.179   3.653  26.017  0.00  0.00    -0.388 OA
ATOM     27  H   UNL     1      -5.853   3.870  25.352  0.00  0.00    +0.210 HD
ENDBRANCH  10   3
BRANCH   9   7
ATOM      7  N   UNL     1      -5.142   0.848  24.601  0.00  0.00    -0.306 NA
ATOM     26  H   UNL     1      -5.900   0.588  23.970  0.00  0.00    +0.123 HD
BRANCH   7  12
ATOM      4  O   UNL     1      -3.328  -2.871  25.303  0.00  0.00    -0.380 OA
ATOM     12  C   UNL     1      -4.119  -0.194  24.603  0.00  0.00    +0.058 C 
ATOM     14  C   UNL     1      -3.774  -0.598  26.039  0.00  0.00    +0.047 C 
ATOM     15  C   UNL     1      -4.579  -1.419  23.809  0.00  0.00    +0.047 C 
ATOM     17  C   UNL     1      -2.797  -1.769  26.039  0.00  0.00    +0.161 C 
ATOM     18  C   UNL     1      -3.558  -2.546  23.932  0.00  0.00    +0.161 C 
ENDBRANCH   7  12
ENDBRANCH   9   7
BRANCH  11  16
ATOM     16  C   UNL     1      -2.112   4.524  25.595  0.00  0.00    +0.140 C 
BRANCH  16   8
ATOM      8  N   UNL     1      -0.800   3.927  25.276  0.00  0.00    -0.187 NA
ATOM     28  H   UNL     1      -0.445   4.110  24.329  0.00  0.00    +0.148 HD
BRANCH   8   1
ATOM      1  S   UNL     1      -0.289   2.514  26.073  0.00  0.00    +0.058 S 
ATOM      5  O   UNL     1      -1.436   1.861  26.676  0.00  0.00    -0.153 OA
ATOM      6  O   UNL     1       0.880   2.821  26.875  0.00  0.00    -0.153 OA
BRANCH   1  19
ATOM     19  C   UNL     1       0.259   1.515  24.723  0.00  0.00    +0.105 A 
ATOM     20  C   UNL     1       1.388   1.887  23.992  0.00  0.00    +0.029 A 
ATOM     21  C   UNL     1      -0.438   0.355  24.385  0.00  0.00    +0.029 A 
ATOM     22  C   UNL     1       1.819   1.101  22.925  0.00  0.00    +0.005 A 
ATOM     23  C   UNL     1      -0.007  -0.432  23.317  0.00  0.00    +0.005 A 
ATOM     24  C   UNL     1       1.121  -0.059  22.587  0.00  0.00    -0.050 A 
ATOM     25  C   UNL     1       1.583  -0.901  21.445  0.00  0.00    +0.044 C 
ENDBRANCH   1  19
ENDBRANCH   8   1
ENDBRANCH  16   8
ENDBRANCH  11  16
TORSDOF 7
ENDMDL
MODEL 7
REMARK VINA RESULT:      -3.1      1.958      4.393
REMARK  Name = 75536700
REMARK  8 active torsions:
REMARK  status: ('A' for Active; 'I' for Inactive)
REMARK    1  A    between atoms: S_1  and  N_8
REMARK    2  A    between atoms: S_1  and  C_19
REMARK    3  A    between atoms: O_3  and  C_10
REMARK    4  A    between atoms: N_7  and  C_9
REMARK    5  A    between atoms: N_7  and  C_12
REMARK    6  A    between atoms: N_8  and  C_16
REMARK    7  A    between atoms: C_11  and  C_16
REMARK    8  A    between atoms: C_24  and  C_25
REMARK                            x       y       z     vdW  Elec       q    Type
REMARK                         _______ _______ _______ _____ _____    ______ ____
ROOT
ATOM      2  O   UNL     1      -3.468  -2.109  23.579  0.00  0.00    -0.371 OA
ATOM      9  C   UNL     1      -1.674  -2.069  25.135  0.00  0.00    +0.111 C 
ATOM     10  C   UNL     1      -2.719  -1.055  25.559  0.00  0.00    +0.164 C 
ATOM     11  C   UNL     1      -3.948  -1.574  24.824  0.00  0.00    +0.164 C 
ATOM     13  C   UNL     1      -2.045  -2.293  23.677  0.00  0.00    +0.181 C 
ENDROOT
BRANCH  10   3
ATOM      3  O   UNL     1      -2.915  -1.027  26.959  0.00  0.00    -0.388 OA
ATOM     27  H   UNL     1      -3.838  -1.268  27.144  0.00  0.00    +0.210 HD
ENDBRANCH  10   3
BRANCH   9   7
ATOM      7  N   UNL     1      -0.306  -1.606  25.305  0.00  0.00    -0.306 NA
ATOM     26  H   UNL     1       0.341  -2.390  25.223  0.00  0.00    +0.123 HD
BRANCH   7  12
ATOM      4  O   UNL     1       1.768   1.553  23.479  0.00  0.00    -0.380 OA
ATOM     12  C   UNL     1       0.029  -0.581  24.321  0.00  0.00    +0.058 C 
ATOM     14  C   UNL     1      -0.004   0.808  24.966  0.00  0.00    +0.047 C 
ATOM     15  C   UNL     1       1.406  -0.839  23.704  0.00  0.00    +0.047 C 
ATOM     17  C   UNL     1       0.465   1.865  23.972  0.00  0.00    +0.161 C 
ATOM     18  C   UNL     1       1.798   0.309  22.779  0.00  0.00    +0.161 C 
ENDBRANCH   7  12
ENDBRANCH   9   7
BRANCH  11  16
ATOM     16  C   UNL     1      -4.985  -0.499  24.555  0.00  0.00    +0.140 C 
BRANCH  16   8
ATOM      8  N   UNL     1      -5.131   0.358  25.748  0.00  0.00    -0.187 NA
ATOM     28  H   UNL     1      -5.254  -0.137  26.640  0.00  0.00    +0.148 HD
BRANCH   8   1
ATOM      1  S   UNL     1      -5.770   1.927  25.597  0.00  0.00    +0.058 S 
ATOM      5  O   UNL     1      -6.363   2.329  26.859  0.00  0.00    -0.153 OA
ATOM      6  O   UNL     1      -6.541   2.007  24.371  0.00  0.00    -0.153 OA
BRANCH   1  19
ATOM     19  C   UNL     1      -4.309   2.890  25.351  0.00  0.00    +0.105 A 
ATOM     20  C   UNL     1      -3.851   3.735  26.362  0.00  0.00    +0.029 A 
ATOM     21  C   UNL     1      -3.615   2.809  24.143  0.00  0.00    +0.029 A 
ATOM     22  C   UNL     1      -2.700   4.497  26.166  0.00  0.00    +0.005 A 
ATOM     23  C   UNL     1      -2.464   3.572  23.947  0.00  0.00    +0.005 A 
ATOM     24  C   UNL     1      -2.006   4.417  24.958  0.00  0.00    -0.050 A 
ATOM     25  C   UNL     1      -0.775   5.232  24.750  0.00  0.00    +0.044 C 
ENDBRANCH   1  19
ENDBRANCH   8   1
ENDBRANCH  16   8
ENDBRANCH  11  16
TORSDOF 7
ENDMDL
MODEL 8
REMARK VINA RESULT:      -2.8      2.614      5.035
REMARK  Name = 75536700
REMARK  8 active torsions:
REMARK  status: ('A' for Active; 'I' for Inactive)
REMARK    1  A    between atoms: S_1  and  N_8
REMARK    2  A    between atoms: S_1  and  C_19
REMARK    3  A    between atoms: O_3  and  C_10
REMARK    4  A    between atoms: N_7  and  C_9
REMARK    5  A    between atoms: N_7  and  C_12
REMARK    6  A    between atoms: N_8  and  C_16
REMARK    7  A    between atoms: C_11  and  C_16
REMARK    8  A    between atoms: C_24  and  C_25
REMARK                            x       y       z     vdW  Elec       q    Type
REMARK                         _______ _______ _______ _____ _____    ______ ____
ROOT
ATOM      2  O   UNL     1      -0.004   0.074  23.589  0.00  0.00    -0.371 OA
ATOM      9  C   UNL     1      -0.180   1.106  25.721  0.00  0.00    +0.111 C 
ATOM     10  C   UNL     1      -0.959  -0.195  25.736  0.00  0.00    +0.164 C 
ATOM     11  C   UNL     1      -0.322  -0.932  24.565  0.00  0.00    +0.164 C 
ATOM     13  C   UNL     1      -0.048   1.362  24.228  0.00  0.00    +0.181 C 
ENDROOT
BRANCH  10   3
ATOM      3  O   UNL     1      -0.810  -0.907  26.949  0.00  0.00    -0.388 OA
ATOM     27  H   UNL     1      -1.108  -0.337  27.677  0.00  0.00    +0.210 HD
ENDBRANCH  10   3
BRANCH   9   7
ATOM      7  N   UNL     1      -0.842   2.192  26.425  0.00  0.00    -0.306 NA
ATOM     26  H   UNL     1      -0.230   2.561  27.153  0.00  0.00    +0.123 HD
BRANCH   7  12
ATOM      4  O   UNL     1      -1.339   6.077  24.916  0.00  0.00    -0.380 OA
ATOM     12  C   UNL     1      -1.220   3.262  25.507  0.00  0.00    +0.058 C 
ATOM     14  C   UNL     1      -2.236   4.198  26.170  0.00  0.00    +0.047 C 
ATOM     15  C   UNL     1       0.006   4.057  25.051  0.00  0.00    +0.047 C 
ATOM     17  C   UNL     1      -2.538   5.382  25.258  0.00  0.00    +0.161 C 
ATOM     18  C   UNL     1      -0.420   5.250  24.201  0.00  0.00    +0.161 C 
ENDBRANCH   7  12
ENDBRANCH   9   7
BRANCH  11  16
ATOM     16  C   UNL     1      -1.233  -1.977  23.946  0.00  0.00    +0.140 C 
BRANCH  16   8
ATOM      8  N   UNL     1      -2.500  -1.344  23.529  0.00  0.00    -0.187 NA
ATOM     28  H   UNL     1      -2.409  -0.490  22.967  0.00  0.00    +0.148 HD
BRANCH   8   1
ATOM      1  S   UNL     1      -3.904  -1.549  24.468  0.00  0.00    +0.058 S 
ATOM      5  O   UNL     1      -3.540  -2.083  25.767  0.00  0.00    -0.153 OA
ATOM      6  O   UNL     1      -4.916  -2.209  23.666  0.00  0.00    -0.153 OA
BRANCH   1  19
ATOM     19  C   UNL     1      -4.434   0.122  24.695  0.00  0.00    +0.105 A 
ATOM     20  C   UNL     1      -3.897   1.138  23.905  0.00  0.00    +0.029 A 
ATOM     21  C   UNL     1      -5.387   0.425  25.668  0.00  0.00    +0.029 A 
ATOM     22  C   UNL     1      -4.313   2.456  24.086  0.00  0.00    +0.005 A 
ATOM     23  C   UNL     1      -5.803   1.744  25.850  0.00  0.00    +0.005 A 
ATOM     24  C   UNL     1      -5.266   2.760  25.059  0.00  0.00    -0.050 A 
ATOM     25  C   UNL     1      -5.711   4.171  25.252  0.00  0.00    +0.044 C 
ENDBRANCH   1  19
ENDBRANCH   8   1
ENDBRANCH  16   8
ENDBRANCH  11  16
TORSDOF 7
ENDMDL
MODEL 9
REMARK VINA RESULT:      -2.5      1.758      3.817
REMARK  Name = 75536700
REMARK  8 active torsions:
REMARK  status: ('A' for Active; 'I' for Inactive)
REMARK    1  A    between atoms: S_1  and  N_8
REMARK    2  A    between atoms: S_1  and  C_19
REMARK    3  A    between atoms: O_3  and  C_10
REMARK    4  A    between atoms: N_7  and  C_9
REMARK    5  A    between atoms: N_7  and  C_12
REMARK    6  A    between atoms: N_8  and  C_16
REMARK    7  A    between atoms: C_11  and  C_16
REMARK    8  A    between atoms: C_24  and  C_25
REMARK                            x       y       z     vdW  Elec       q    Type
REMARK                         _______ _______ _______ _____ _____    ______ ____
ROOT
ATOM      2  O   UNL     1      -3.102   0.174  23.695  0.00  0.00    -0.371 OA
ATOM      9  C   UNL     1      -0.795   0.321  24.242  0.00  0.00    +0.111 C 
ATOM     10  C   UNL     1      -1.594   0.128  25.517  0.00  0.00    +0.164 C 
ATOM     11  C   UNL     1      -2.887  -0.461  24.966  0.00  0.00    +0.164 C 
ATOM     13  C   UNL     1      -1.873   0.795  23.280  0.00  0.00    +0.181 C 
ENDROOT
BRANCH  10   3
ATOM      3  O   UNL     1      -0.962  -0.750  26.428  0.00  0.00    -0.388 OA
ATOM     27  H   UNL     1      -0.147  -1.083  26.019  0.00  0.00    +0.210 HD
ENDBRANCH  10   3
BRANCH   9   7
ATOM      7  N   UNL     1       0.299   1.269  24.377  0.00  0.00    -0.306 NA
ATOM     26  H   UNL     1       0.781   1.123  25.264  0.00  0.00    +0.123 HD
BRANCH   7  12
ATOM      4  O   UNL     1       3.508  -0.209  22.110  0.00  0.00    -0.380 OA
ATOM     12  C   UNL     1       1.247   1.140  23.272  0.00  0.00    +0.058 C 
ATOM     14  C   UNL     1       2.678   1.358  23.772  0.00  0.00    +0.047 C 
ATOM     15  C   UNL     1       1.129  -0.232  22.602  0.00  0.00    +0.047 C 
ATOM     17  C   UNL     1       3.676   1.103  22.647  0.00  0.00    +0.161 C 
ATOM     18  C   UNL     1       2.212  -0.400  21.542  0.00  0.00    +0.161 C 
ENDBRANCH   7  12
ENDBRANCH   9   7
BRANCH  11  16
ATOM     16  C   UNL     1      -4.085  -0.225  25.868  0.00  0.00    +0.140 C 
BRANCH  16   8
ATOM      8  N   UNL     1      -5.196   0.341  25.076  0.00  0.00    -0.187 NA
ATOM     28  H   UNL     1      -5.252   0.029  24.099  0.00  0.00    +0.148 HD
BRANCH   8   1
ATOM      1  S   UNL     1      -5.840   1.863  25.479  0.00  0.00    +0.058 S 
ATOM      5  O   UNL     1      -6.223   1.869  26.878  0.00  0.00    -0.153 OA
ATOM      6  O   UNL     1      -6.794   2.256  24.460  0.00  0.00    -0.153 OA
BRANCH   1  19
ATOM     19  C   UNL     1      -4.429   2.913  25.296  0.00  0.00    +0.105 A 
ATOM     20  C   UNL     1      -4.040   3.344  24.028  0.00  0.00    +0.029 A 
ATOM     21  C   UNL     1      -3.703   3.306  26.419  0.00  0.00    +0.029 A 
ATOM     22  C   UNL     1      -2.926   4.169  23.883  0.00  0.00    +0.005 A 
ATOM     23  C   UNL     1      -2.587   4.132  26.275  0.00  0.00    +0.005 A 
ATOM     24  C   UNL     1      -2.198   4.563  25.006  0.00  0.00    -0.050 A 
ATOM     25  C   UNL     1      -1.006   5.446  24.851  0.00  0.00    +0.044 C 
ENDBRANCH   1  19
ENDBRANCH   8   1
ENDBRANCH  16   8
ENDBRANCH  11  16
TORSDOF 7
ENDMDL
MODEL 10
REMARK VINA RESULT:      -2.5      2.802      7.123
REMARK  Name = 75536700
REMARK  8 active torsions:
REMARK  status: ('A' for Active; 'I' for Inactive)
REMARK    1  A    between atoms: S_1  and  N_8
REMARK    2  A    between atoms: S_1  and  C_19
REMARK    3  A    between atoms: O_3  and  C_10
REMARK    4  A    between atoms: N_7  and  C_9
REMARK    5  A    between atoms: N_7  and  C_12
REMARK    6  A    between atoms: N_8  and  C_16
REMARK    7  A    between atoms: C_11  and  C_16
REMARK    8  A    between atoms: C_24  and  C_25
REMARK                            x       y       z     vdW  Elec       q    Type
REMARK                         _______ _______ _______ _____ _____    ______ ____
ROOT
ATOM      2  O   UNL     1      -1.528  -0.980  25.859  0.00  0.00    -0.371 OA
ATOM      9  C   UNL     1      -3.840  -0.833  25.336  0.00  0.00    +0.111 C 
ATOM     10  C   UNL     1      -3.125  -1.566  24.217  0.00  0.00    +0.164 C 
ATOM     11  C   UNL     1      -1.858  -2.023  24.928  0.00  0.00    +0.164 C 
ATOM     13  C   UNL     1      -2.680  -0.136  26.029  0.00  0.00    +0.181 C 
ENDROOT
BRANCH  10   3
ATOM      3  O   UNL     1      -3.871  -2.658  23.716  0.00  0.00    -0.388 OA
ATOM     27  H   UNL     1      -4.793  -2.375  23.604  0.00  0.00    +0.210 HD
ENDBRANCH  10   3
BRANCH   9   7
ATOM      7  N   UNL     1      -4.860   0.092  24.871  0.00  0.00    -0.306 NA
ATOM     26  H   UNL     1      -5.748  -0.105  25.333  0.00  0.00    +0.123 HD
BRANCH   7  12
ATOM      4  O   UNL     1      -4.690   4.263  24.432  0.00  0.00    -0.380 OA
ATOM     12  C   UNL     1      -4.469   1.477  25.120  0.00  0.00    +0.058 C 
ATOM     14  C   UNL     1      -3.797   2.071  23.879  0.00  0.00    +0.047 C 
ATOM     15  C   UNL     1      -5.677   2.328  25.520  0.00  0.00    +0.047 C 
ATOM     17  C   UNL     1      -3.499   3.551  24.096  0.00  0.00    +0.161 C 
ATOM     18  C   UNL     1      -5.276   3.793  25.646  0.00  0.00    +0.161 C 
ENDBRANCH   7  12
ENDBRANCH   9   7
BRANCH  11  16
ATOM     16  C   UNL     1      -0.692  -2.256  23.984  0.00  0.00    +0.140 C 
BRANCH  16   8
ATOM      8  N   UNL     1       0.396  -1.307  24.297  0.00  0.00    -0.187 NA
ATOM     28  H   UNL     1       0.569  -1.141  25.296  0.00  0.00    +0.148 HD
BRANCH   8   1
ATOM      1  S   UNL     1       0.803  -0.082  23.189  0.00  0.00    +0.058 S 
ATOM      5  O   UNL     1       0.358   1.199  23.705  0.00  0.00    -0.153 OA
ATOM      6  O   UNL     1       0.418  -0.505  21.856  0.00  0.00    -0.153 OA
BRANCH   1  19
ATOM     19  C   UNL     1       2.569  -0.112  23.250  0.00  0.00    +0.105 A 
ATOM     20  C   UNL     1       3.232  -1.249  23.711  0.00  0.00    +0.029 A 
ATOM     21  C   UNL     1       3.299   1.004  22.841  0.00  0.00    +0.029 A 
ATOM     22  C   UNL     1       4.625  -1.271  23.762  0.00  0.00    +0.005 A 
ATOM     23  C   UNL     1       4.693   0.982  22.892  0.00  0.00    +0.005 A 
ATOM     24  C   UNL     1       5.357  -0.155  23.353  0.00  0.00    -0.050 A 
ATOM     25  C   UNL     1       6.847  -0.180  23.407  0.00  0.00    +0.044 C 
ENDBRANCH   1  19
ENDBRANCH   8   1
ENDBRANCH  16   8
ENDBRANCH  11  16
TORSDOF 7
ENDMDL
