MODEL 1
REMARK VINA RESULT:      -0.1      0.000      0.000
REMARK  Name = 51137781
REMARK  6 active torsions:
REMARK  status: ('A' for Active; 'I' for Inactive)
REMARK    1  A    between atoms: N_7  and  C_20
REMARK    2  A    between atoms: N_7  and  C_26
REMARK    3  A    between atoms: N_7  and  C_27
REMARK    4  A    between atoms: C_8  and  C_12
REMARK    5  A    between atoms: C_13  and  C_14
REMARK    6  A    between atoms: C_15  and  C_16
REMARK                            x       y       z     vdW  Elec       q    Type
REMARK                         _______ _______ _______ _____ _____    ______ ____
ROOT
ATOM      1  O   UNL     1      -5.784 -10.454  16.475  0.00  0.00    -0.420 OA
ATOM      4  N   UNL     1      -5.491 -10.612  18.687  0.00  0.00    -0.112 NA
ATOM      5  N   UNL     1      -4.251 -10.433  18.104  0.00  0.00    -0.107 NA
ATOM     12  C   UNL     1      -6.355 -10.617  17.698  0.00  0.00    +0.222 A 
ATOM     15  C   UNL     1      -4.469 -10.347  16.813  0.00  0.00    +0.248 A 
ENDROOT
BRANCH  12   8
ATOM      2  O   UNL     1      -9.565  -7.357  15.071  0.00  0.00    -0.268 OA
ATOM      3  N   UNL     1      -8.960  -9.245  16.280  0.00  0.00    -0.296 N 
ATOM      8  C   UNL     1      -7.865 -10.777  17.736  0.00  0.00    +0.095 C 
ATOM      9  C   UNL     1      -8.533  -9.666  18.562  0.00  0.00    +0.033 C 
ATOM     10  C   UNL     1      -8.601 -10.660  16.393  0.00  0.00    +0.121 C 
ATOM     11  C   UNL     1      -8.782  -8.557  17.549  0.00  0.00    +0.109 C 
ATOM     13  C   UNL     1      -9.342  -8.565  15.135  0.00  0.00    +0.265 C 
BRANCH  13  14
ATOM      6  N   UNL     1      -8.421  -9.304  13.056  0.00  0.00    -0.250 NA
ATOM     14  C   UNL     1      -9.480  -9.344  13.894  0.00  0.00    +0.126 A 
ATOM     17  C   UNL     1     -10.641 -10.058  13.645  0.00  0.00    +0.033 A 
ATOM     23  C   UNL     1     -10.720 -10.777  12.456  0.00  0.00    +0.004 A 
ATOM     24  C   UNL     1      -8.534 -10.014  11.911  0.00  0.00    +0.111 A 
ATOM     25  C   UNL     1      -9.651 -10.760  11.568  0.00  0.00    +0.020 A 
ENDBRANCH  13  14
ENDBRANCH  12   8
BRANCH  15  16
ATOM     16  C   UNL     1      -3.556 -10.159  15.723  0.00  0.00    +0.039 A 
ATOM     18  C   UNL     1      -2.237  -9.780  15.977  0.00  0.00    +0.015 A 
ATOM     19  C   UNL     1      -3.984 -10.355  14.411  0.00  0.00    +0.015 A 
ATOM     20  C   UNL     1      -1.777  -9.794  13.606  0.00  0.00    +0.029 A 
ATOM     21  C   UNL     1      -1.348  -9.597  14.918  0.00  0.00    +0.024 A 
ATOM     22  C   UNL     1      -3.095 -10.174  13.352  0.00  0.00    +0.024 A 
BRANCH  20   7
ATOM      7  N   UNL     1      -0.878  -9.608  12.535  0.00  0.00    -0.336 N 
ATOM     26  C   UNL     1      -0.910 -10.492  11.387  0.00  0.00    +0.129 C 
ATOM     27  C   UNL     1       0.097  -8.536  12.572  0.00  0.00    +0.129 C 
ENDBRANCH  20   7
ENDBRANCH  15  16
TORSDOF 4
ENDMDL
