MODEL 1
REMARK VINA RESULT:      -7.0      0.000      0.000
REMARK  Name = 56775540
REMARK  7 active torsions:
REMARK  status: ('A' for Active; 'I' for Inactive)
REMARK    1  A    between atoms: O_3  and  C_19
REMARK    2  A    between atoms: O_3  and  C_20
REMARK    3  A    between atoms: N_4  and  C_6
REMARK    4  A    between atoms: N_4  and  C_7
REMARK    5  A    between atoms: C_6  and  C_12
REMARK    6  A    between atoms: C_12  and  C_16
REMARK    7  A    between atoms: C_18  and  C_19
REMARK                            x       y       z     vdW  Elec       q    Type
REMARK                         _______ _______ _______ _____ _____    ______ ____
ROOT
ATOM      1  O   UNL     1      -0.553   5.349  24.722  0.00  0.00    -0.376 OA
ATOM      6  C   UNL     1      -1.120   3.300  24.910  0.00  0.00    +0.072 C 
ATOM      8  C   UNL     1      -1.559   4.642  25.482  0.00  0.00    +0.184 C 
ATOM      9  C   UNL     1      -0.150   4.124  24.069  0.00  0.00    +0.184 C 
ENDROOT
BRANCH   6   4
ATOM      4  N   UNL     1      -2.180   2.787  24.039  0.00  0.00    -0.304 NA
ATOM     21  H   UNL     1      -2.451   3.405  23.273  0.00  0.00    +0.123 HD
BRANCH   4   7
ATOM      7  C   UNL     1      -3.346   2.444  24.849  0.00  0.00    +0.054 C 
ATOM     10  C   UNL     1      -4.335   3.614  24.864  0.00  0.00    +0.019 C 
ATOM     11  C   UNL     1      -4.003   1.172  24.304  0.00  0.00    +0.019 C 
ATOM     13  C   UNL     1      -5.603   3.263  25.640  0.00  0.00    +0.002 C 
ATOM     14  C   UNL     1      -5.272   0.822  25.082  0.00  0.00    +0.002 C 
ATOM     15  C   UNL     1      -6.255   1.990  25.108  0.00  0.00    +0.000 C 
ENDBRANCH   4   7
ENDBRANCH   6   4
BRANCH   6  12
ATOM     12  C   UNL     1      -0.571   2.257  25.836  0.00  0.00    +0.085 C 
BRANCH  12  16
ATOM      2  O   UNL     1      -0.413  -0.728  23.807  0.00  0.00    -0.357 OA
ATOM      5  N   UNL     1      -0.097   0.599  24.070  0.00  0.00    -0.083 NA
ATOM     16  C   UNL     1      -0.700   0.876  25.229  0.00  0.00    +0.086 A 
ATOM     17  C   UNL     1      -1.405  -0.228  25.741  0.00  0.00    +0.073 A 
ATOM     18  C   UNL     1      -1.193  -1.210  24.809  0.00  0.00    +0.163 A 
BRANCH  18  19
ATOM     19  C   UNL     1      -1.621  -2.608  24.691  0.00  0.00    +0.236 C 
BRANCH  19   3
ATOM      3  O   UNL     1      -2.990  -2.742  25.084  0.00  0.00    -0.375 OA
ATOM     20  C   UNL     1      -3.862  -2.493  23.994  0.00  0.00    +0.194 C 
ENDBRANCH  19   3
ENDBRANCH  18  19
ENDBRANCH  12  16
ENDBRANCH   6  12
TORSDOF 6
ENDMDL
MODEL 2
REMARK VINA RESULT:      -6.9      2.317      4.580
REMARK  Name = 56775540
REMARK  7 active torsions:
REMARK  status: ('A' for Active; 'I' for Inactive)
REMARK    1  A    between atoms: O_3  and  C_19
REMARK    2  A    between atoms: O_3  and  C_20
REMARK    3  A    between atoms: N_4  and  C_6
REMARK    4  A    between atoms: N_4  and  C_7
REMARK    5  A    between atoms: C_6  and  C_12
REMARK    6  A    between atoms: C_12  and  C_16
REMARK    7  A    between atoms: C_18  and  C_19
REMARK                            x       y       z     vdW  Elec       q    Type
REMARK                         _______ _______ _______ _____ _____    ______ ____
ROOT
ATOM      1  O   UNL     1      -3.296  -2.873  25.065  0.00  0.00    -0.376 OA
ATOM      6  C   UNL     1      -2.629  -0.847  24.974  0.00  0.00    +0.072 C 
ATOM      8  C   UNL     1      -2.373  -2.148  24.222  0.00  0.00    +0.184 C 
ATOM      9  C   UNL     1      -3.658  -1.657  25.758  0.00  0.00    +0.184 C 
ENDROOT
BRANCH   6   4
ATOM      4  N   UNL     1      -3.336   0.080  24.087  0.00  0.00    -0.304 NA
ATOM     21  H   UNL     1      -2.858   0.295  23.212  0.00  0.00    +0.123 HD
BRANCH   4   7
ATOM      7  C   UNL     1      -3.637   1.310  24.816  0.00  0.00    +0.054 C 
ATOM     10  C   UNL     1      -3.258   2.527  23.965  0.00  0.00    +0.019 C 
ATOM     11  C   UNL     1      -5.121   1.341  25.196  0.00  0.00    +0.019 C 
ATOM     13  C   UNL     1      -3.630   3.833  24.665  0.00  0.00    +0.002 C 
ATOM     14  C   UNL     1      -5.490   2.648  25.895  0.00  0.00    +0.002 C 
ATOM     15  C   UNL     1      -5.105   3.863  25.056  0.00  0.00    +0.000 C 
ENDBRANCH   4   7
ENDBRANCH   6   4
BRANCH   6  12
ATOM     12  C   UNL     1      -1.499  -0.199  25.715  0.00  0.00    +0.085 C 
BRANCH  12  16
ATOM      2  O   UNL     1       1.008   1.482  23.728  0.00  0.00    -0.357 OA
ATOM      5  N   UNL     1      -0.013   1.473  24.670  0.00  0.00    -0.083 NA
ATOM     16  C   UNL     1      -0.388   0.194  24.763  0.00  0.00    +0.086 A 
ATOM     17  C   UNL     1       0.354  -0.643  23.913  0.00  0.00    +0.073 A 
ATOM     18  C   UNL     1       1.218   0.216  23.284  0.00  0.00    +0.163 A 
BRANCH  18  19
ATOM     19  C   UNL     1       2.271   0.041  22.277  0.00  0.00    +0.236 C 
BRANCH  19   3
ATOM      3  O   UNL     1       3.340   0.961  22.513  0.00  0.00    -0.375 OA
ATOM     20  C   UNL     1       4.443   0.317  23.129  0.00  0.00    +0.194 C 
ENDBRANCH  19   3
ENDBRANCH  18  19
ENDBRANCH  12  16
ENDBRANCH   6  12
TORSDOF 6
ENDMDL
MODEL 3
REMARK VINA RESULT:      -6.5      2.139      4.782
REMARK  Name = 56775540
REMARK  7 active torsions:
REMARK  status: ('A' for Active; 'I' for Inactive)
REMARK    1  A    between atoms: O_3  and  C_19
REMARK    2  A    between atoms: O_3  and  C_20
REMARK    3  A    between atoms: N_4  and  C_6
REMARK    4  A    between atoms: N_4  and  C_7
REMARK    5  A    between atoms: C_6  and  C_12
REMARK    6  A    between atoms: C_12  and  C_16
REMARK    7  A    between atoms: C_18  and  C_19
REMARK                            x       y       z     vdW  Elec       q    Type
REMARK                         _______ _______ _______ _____ _____    ______ ____
ROOT
ATOM      1  O   UNL     1       1.571   1.206  23.774  0.00  0.00    -0.376 OA
ATOM      6  C   UNL     1      -0.545   1.383  23.990  0.00  0.00    +0.072 C 
ATOM      8  C   UNL     1       0.435   0.501  23.226  0.00  0.00    +0.184 C 
ATOM      9  C   UNL     1       0.703   2.015  24.600  0.00  0.00    +0.184 C 
ENDROOT
BRANCH   6   4
ATOM      4  N   UNL     1      -1.211   0.574  25.014  0.00  0.00    -0.304 NA
ATOM     21  H   UNL     1      -0.599   0.199  25.739  0.00  0.00    +0.123 HD
BRANCH   4   7
ATOM      7  C   UNL     1      -1.952  -0.506  24.367  0.00  0.00    +0.054 C 
ATOM     10  C   UNL     1      -1.392  -1.862  24.811  0.00  0.00    +0.019 C 
ATOM     11  C   UNL     1      -3.443  -0.388  24.701  0.00  0.00    +0.019 C 
ATOM     13  C   UNL     1      -2.193  -3.018  24.214  0.00  0.00    +0.002 C 
ATOM     14  C   UNL     1      -4.241  -1.545  24.103  0.00  0.00    +0.002 C 
ATOM     15  C   UNL     1      -3.680  -2.898  24.533  0.00  0.00    +0.000 C 
ENDBRANCH   4   7
ENDBRANCH   6   4
BRANCH   6  12
ATOM     12  C   UNL     1      -1.495   2.250  23.222  0.00  0.00    +0.085 C 
BRANCH  12  16
ATOM      2  O   UNL     1      -3.311   3.946  25.846  0.00  0.00    -0.357 OA
ATOM      5  N   UNL     1      -2.135   3.516  25.243  0.00  0.00    -0.083 NA
ATOM     16  C   UNL     1      -2.528   2.866  24.144  0.00  0.00    +0.086 A 
ATOM     17  C   UNL     1      -3.926   2.853  24.002  0.00  0.00    +0.073 A 
ATOM     18  C   UNL     1      -4.371   3.545  25.098  0.00  0.00    +0.163 A 
BRANCH  18  19
ATOM     19  C   UNL     1      -5.701   3.918  25.593  0.00  0.00    +0.236 C 
BRANCH  19   3
ATOM      3  O   UNL     1      -6.171   2.946  26.531  0.00  0.00    -0.375 OA
ATOM     20  C   UNL     1      -6.216   1.653  25.951  0.00  0.00    +0.194 C 
ENDBRANCH  19   3
ENDBRANCH  18  19
ENDBRANCH  12  16
ENDBRANCH   6  12
TORSDOF 6
ENDMDL
MODEL 4
REMARK VINA RESULT:      -6.4      2.529      4.431
REMARK  Name = 56775540
REMARK  7 active torsions:
REMARK  status: ('A' for Active; 'I' for Inactive)
REMARK    1  A    between atoms: O_3  and  C_19
REMARK    2  A    between atoms: O_3  and  C_20
REMARK    3  A    between atoms: N_4  and  C_6
REMARK    4  A    between atoms: N_4  and  C_7
REMARK    5  A    between atoms: C_6  and  C_12
REMARK    6  A    between atoms: C_12  and  C_16
REMARK    7  A    between atoms: C_18  and  C_19
REMARK                            x       y       z     vdW  Elec       q    Type
REMARK                         _______ _______ _______ _____ _____    ______ ____
ROOT
ATOM      1  O   UNL     1      -4.574   3.848  25.441  0.00  0.00    -0.376 OA
ATOM      6  C   UNL     1      -3.272   2.324  24.708  0.00  0.00    +0.072 C 
ATOM      8  C   UNL     1      -3.149   3.613  25.510  0.00  0.00    +0.184 C 
ATOM      9  C   UNL     1      -4.774   2.589  24.760  0.00  0.00    +0.184 C 
ENDROOT
BRANCH   6   4
ATOM      4  N   UNL     1      -2.963   1.190  25.583  0.00  0.00    -0.304 NA
ATOM     21  H   UNL     1      -2.114   1.289  26.139  0.00  0.00    +0.123 HD
BRANCH   4   7
ATOM      7  C   UNL     1      -2.909  -0.033  24.787  0.00  0.00    +0.054 C 
ATOM     10  C   UNL     1      -1.981  -1.051  25.457  0.00  0.00    +0.019 C 
ATOM     11  C   UNL     1      -4.320  -0.603  24.610  0.00  0.00    +0.019 C 
ATOM     13  C   UNL     1      -1.958  -2.374  24.692  0.00  0.00    +0.002 C 
ATOM     14  C   UNL     1      -4.295  -1.926  23.845  0.00  0.00    +0.002 C 
ATOM     15  C   UNL     1      -3.363  -2.939  24.503  0.00  0.00    +0.000 C 
ENDBRANCH   4   7
ENDBRANCH   6   4
BRANCH   6  12
ATOM     12  C   UNL     1      -2.598   2.230  23.373  0.00  0.00    +0.085 C 
BRANCH  12  16
ATOM      2  O   UNL     1       0.891   1.984  24.277  0.00  0.00    -0.357 OA
ATOM      5  N   UNL     1      -0.366   2.568  24.371  0.00  0.00    -0.083 NA
ATOM     16  C   UNL     1      -1.136   1.870  23.532  0.00  0.00    +0.086 A 
ATOM     17  C   UNL     1      -0.427   0.842  22.887  0.00  0.00    +0.073 A 
ATOM     18  C   UNL     1       0.843   0.957  23.390  0.00  0.00    +0.163 A 
BRANCH  18  19
ATOM     19  C   UNL     1       2.094   0.223  23.168  0.00  0.00    +0.236 C 
BRANCH  19   3
ATOM      3  O   UNL     1       3.193   1.134  23.077  0.00  0.00    -0.375 OA
ATOM     20  C   UNL     1       4.427   0.441  22.991  0.00  0.00    +0.194 C 
ENDBRANCH  19   3
ENDBRANCH  18  19
ENDBRANCH  12  16
ENDBRANCH   6  12
TORSDOF 6
ENDMDL
MODEL 5
REMARK VINA RESULT:      -6.1      2.955      4.960
REMARK  Name = 56775540
REMARK  7 active torsions:
REMARK  status: ('A' for Active; 'I' for Inactive)
REMARK    1  A    between atoms: O_3  and  C_19
REMARK    2  A    between atoms: O_3  and  C_20
REMARK    3  A    between atoms: N_4  and  C_6
REMARK    4  A    between atoms: N_4  and  C_7
REMARK    5  A    between atoms: C_6  and  C_12
REMARK    6  A    between atoms: C_12  and  C_16
REMARK    7  A    between atoms: C_18  and  C_19
REMARK                            x       y       z     vdW  Elec       q    Type
REMARK                         _______ _______ _______ _____ _____    ______ ____
ROOT
ATOM      1  O   UNL     1      -1.399  -2.563  25.074  0.00  0.00    -0.376 OA
ATOM      6  C   UNL     1      -1.308  -0.498  24.540  0.00  0.00    +0.072 C 
ATOM      8  C   UNL     1      -2.355  -1.605  24.565  0.00  0.00    +0.184 C 
ATOM      9  C   UNL     1      -0.384  -1.538  25.165  0.00  0.00    +0.184 C 
ENDROOT
BRANCH   6   4
ATOM      4  N   UNL     1      -1.651   0.500  25.556  0.00  0.00    -0.304 NA
ATOM     21  H   UNL     1      -2.192   0.149  26.346  0.00  0.00    +0.123 HD
BRANCH   4   7
ATOM      7  C   UNL     1      -2.348   1.615  24.919  0.00  0.00    +0.054 C 
ATOM     10  C   UNL     1      -3.863   1.399  25.003  0.00  0.00    +0.019 C 
ATOM     11  C   UNL     1      -1.940   2.933  25.586  0.00  0.00    +0.019 C 
ATOM     13  C   UNL     1      -4.628   2.584  24.416  0.00  0.00    +0.002 C 
ATOM     14  C   UNL     1      -2.707   4.116  24.997  0.00  0.00    +0.002 C 
ATOM     15  C   UNL     1      -4.216   3.901  25.068  0.00  0.00    +0.000 C 
ENDBRANCH   4   7
ENDBRANCH   6   4
BRANCH   6  12
ATOM     12  C   UNL     1      -0.928   0.113  23.226  0.00  0.00    +0.085 C 
BRANCH  12  16
ATOM      2  O   UNL     1       2.337   1.579  23.724  0.00  0.00    -0.357 OA
ATOM      5  N   UNL     1       0.971   1.505  23.968  0.00  0.00    -0.083 NA
ATOM     16  C   UNL     1       0.539   0.491  23.213  0.00  0.00    +0.086 A 
ATOM     17  C   UNL     1       1.576  -0.107  22.478  0.00  0.00    +0.073 A 
ATOM     18  C   UNL     1       2.686   0.613  22.834  0.00  0.00    +0.163 A 
BRANCH  18  19
ATOM     19  C   UNL     1       4.104   0.548  22.462  0.00  0.00    +0.236 C 
BRANCH  19   3
ATOM      3  O   UNL     1       4.929   0.747  23.613  0.00  0.00    -0.375 OA
ATOM     20  C   UNL     1       5.386  -0.489  24.136  0.00  0.00    +0.194 C 
ENDBRANCH  19   3
ENDBRANCH  18  19
ENDBRANCH  12  16
ENDBRANCH   6  12
TORSDOF 6
ENDMDL
MODEL 6
REMARK VINA RESULT:      -6.0      2.028      3.047
REMARK  Name = 56775540
REMARK  7 active torsions:
REMARK  status: ('A' for Active; 'I' for Inactive)
REMARK    1  A    between atoms: O_3  and  C_19
REMARK    2  A    between atoms: O_3  and  C_20
REMARK    3  A    between atoms: N_4  and  C_6
REMARK    4  A    between atoms: N_4  and  C_7
REMARK    5  A    between atoms: C_6  and  C_12
REMARK    6  A    between atoms: C_12  and  C_16
REMARK    7  A    between atoms: C_18  and  C_19
REMARK                            x       y       z     vdW  Elec       q    Type
REMARK                         _______ _______ _______ _____ _____    ______ ____
ROOT
ATOM      1  O   UNL     1      -1.125   5.642  25.104  0.00  0.00    -0.376 OA
ATOM      6  C   UNL     1      -1.372   3.524  25.007  0.00  0.00    +0.072 C 
ATOM      8  C   UNL     1      -1.992   4.692  25.764  0.00  0.00    +0.184 C 
ATOM      9  C   UNL     1      -0.560   4.595  24.283  0.00  0.00    +0.184 C 
ENDROOT
BRANCH   6   4
ATOM      4  N   UNL     1      -2.367   2.980  24.080  0.00  0.00    -0.304 NA
ATOM     21  H   UNL     1      -2.755   3.650  23.415  0.00  0.00    +0.123 HD
BRANCH   4   7
ATOM      7  C   UNL     1      -3.438   2.344  24.842  0.00  0.00    +0.054 C 
ATOM     10  C   UNL     1      -4.622   3.307  24.983  0.00  0.00    +0.019 C 
ATOM     11  C   UNL     1      -3.864   1.042  24.156  0.00  0.00    +0.019 C 
ATOM     13  C   UNL     1      -5.793   2.648  25.710  0.00  0.00    +0.002 C 
ATOM     14  C   UNL     1      -5.036   0.385  24.884  0.00  0.00    +0.002 C 
ATOM     15  C   UNL     1      -6.213   1.345  25.036  0.00  0.00    +0.000 C 
ENDBRANCH   4   7
ENDBRANCH   6   4
BRANCH   6  12
ATOM     12  C   UNL     1      -0.647   2.461  25.776  0.00  0.00    +0.085 C 
BRANCH  12  16
ATOM      2  O   UNL     1       0.218  -0.467  23.844  0.00  0.00    -0.357 OA
ATOM      5  N   UNL     1      -0.552   0.201  24.788  0.00  0.00    -0.083 NA
ATOM     16  C   UNL     1      -0.045   1.436  24.838  0.00  0.00    +0.086 A 
ATOM     17  C   UNL     1       1.036   1.605  23.956  0.00  0.00    +0.073 A 
ATOM     18  C   UNL     1       1.161   0.379  23.355  0.00  0.00    +0.163 A 
BRANCH  18  19
ATOM     19  C   UNL     1       2.069  -0.167  22.340  0.00  0.00    +0.236 C 
BRANCH  19   3
ATOM      3  O   UNL     1       3.230   0.659  22.216  0.00  0.00    -0.375 OA
ATOM     20  C   UNL     1       4.273   0.206  23.063  0.00  0.00    +0.194 C 
ENDBRANCH  19   3
ENDBRANCH  18  19
ENDBRANCH  12  16
ENDBRANCH   6  12
TORSDOF 6
ENDMDL
MODEL 7
REMARK VINA RESULT:      -5.7      2.931      4.780
REMARK  Name = 56775540
REMARK  7 active torsions:
REMARK  status: ('A' for Active; 'I' for Inactive)
REMARK    1  A    between atoms: O_3  and  C_19
REMARK    2  A    between atoms: O_3  and  C_20
REMARK    3  A    between atoms: N_4  and  C_6
REMARK    4  A    between atoms: N_4  and  C_7
REMARK    5  A    between atoms: C_6  and  C_12
REMARK    6  A    between atoms: C_12  and  C_16
REMARK    7  A    between atoms: C_18  and  C_19
REMARK                            x       y       z     vdW  Elec       q    Type
REMARK                         _______ _______ _______ _____ _____    ______ ____
ROOT
ATOM      1  O   UNL     1      -0.732   3.442  26.030  0.00  0.00    -0.376 OA
ATOM      6  C   UNL     1      -0.928   1.605  24.961  0.00  0.00    +0.072 C 
ATOM      8  C   UNL     1       0.156   2.339  25.741  0.00  0.00    +0.184 C 
ATOM      9  C   UNL     1      -1.831   2.759  25.387  0.00  0.00    +0.184 C 
ENDROOT
BRANCH   6   4
ATOM      4  N   UNL     1      -1.315   0.404  25.705  0.00  0.00    -0.304 NA
ATOM     21  H   UNL     1      -0.552  -0.077  26.182  0.00  0.00    +0.123 HD
BRANCH   4   7
ATOM      7  C   UNL     1      -2.011  -0.515  24.807  0.00  0.00    +0.054 C 
ATOM     10  C   UNL     1      -1.515  -1.946  25.039  0.00  0.00    +0.019 C 
ATOM     11  C   UNL     1      -3.524  -0.411  25.026  0.00  0.00    +0.019 C 
ATOM     13  C   UNL     1      -2.276  -2.947  24.171  0.00  0.00    +0.002 C 
ATOM     14  C   UNL     1      -4.283  -1.413  24.158  0.00  0.00    +0.002 C 
ATOM     15  C   UNL     1      -3.785  -2.839  24.377  0.00  0.00    +0.000 C 
ENDBRANCH   4   7
ENDBRANCH   6   4
BRANCH   6  12
ATOM     12  C   UNL     1      -0.724   1.346  23.499  0.00  0.00    +0.085 C 
BRANCH  12  16
ATOM      2  O   UNL     1       2.274  -0.529  22.757  0.00  0.00    -0.357 OA
ATOM      5  N   UNL     1       0.901  -0.428  22.944  0.00  0.00    -0.083 NA
ATOM     16  C   UNL     1       0.685   0.859  23.231  0.00  0.00    +0.086 A 
ATOM     17  C   UNL     1       1.873   1.611  23.237  0.00  0.00    +0.073 A 
ATOM     18  C   UNL     1       2.842   0.692  22.934  0.00  0.00    +0.163 A 
BRANCH  18  19
ATOM     19  C   UNL     1       4.299   0.767  22.771  0.00  0.00    +0.236 C 
BRANCH  19   3
ATOM      3  O   UNL     1       4.946   0.650  24.041  0.00  0.00    -0.375 OA
ATOM     20  C   UNL     1       5.441  -0.663  24.245  0.00  0.00    +0.194 C 
ENDBRANCH  19   3
ENDBRANCH  18  19
ENDBRANCH  12  16
ENDBRANCH   6  12
TORSDOF 6
ENDMDL
MODEL 8
REMARK VINA RESULT:      -5.1      2.383      4.705
REMARK  Name = 56775540
REMARK  7 active torsions:
REMARK  status: ('A' for Active; 'I' for Inactive)
REMARK    1  A    between atoms: O_3  and  C_19
REMARK    2  A    between atoms: O_3  and  C_20
REMARK    3  A    between atoms: N_4  and  C_6
REMARK    4  A    between atoms: N_4  and  C_7
REMARK    5  A    between atoms: C_6  and  C_12
REMARK    6  A    between atoms: C_12  and  C_16
REMARK    7  A    between atoms: C_18  and  C_19
REMARK                            x       y       z     vdW  Elec       q    Type
REMARK                         _______ _______ _______ _____ _____    ______ ____
ROOT
ATOM      1  O   UNL     1      -5.658   3.484  25.302  0.00  0.00    -0.376 OA
ATOM      6  C   UNL     1      -3.939   2.257  24.988  0.00  0.00    +0.072 C 
ATOM      8  C   UNL     1      -4.353   3.391  25.918  0.00  0.00    +0.184 C 
ATOM      9  C   UNL     1      -5.365   2.350  24.454  0.00  0.00    +0.184 C 
ENDROOT
BRANCH   6   4
ATOM      4  N   UNL     1      -3.809   1.026  25.772  0.00  0.00    -0.304 NA
ATOM     21  H   UNL     1      -3.194   1.090  26.583  0.00  0.00    +0.123 HD
BRANCH   4   7
ATOM      7  C   UNL     1      -3.380  -0.060  24.895  0.00  0.00    +0.054 C 
ATOM     10  C   UNL     1      -2.308  -0.903  25.594  0.00  0.00    +0.019 C 
ATOM     11  C   UNL     1      -4.586  -0.918  24.499  0.00  0.00    +0.019 C 
ATOM     13  C   UNL     1      -1.889  -2.096  24.737  0.00  0.00    +0.002 C 
ATOM     14  C   UNL     1      -4.165  -2.111  23.642  0.00  0.00    +0.002 C 
ATOM     15  C   UNL     1      -3.089  -2.946  24.330  0.00  0.00    +0.000 C 
ENDBRANCH   4   7
ENDBRANCH   6   4
BRANCH   6  12
ATOM     12  C   UNL     1      -2.796   2.471  24.044  0.00  0.00    +0.085 C 
BRANCH  12  16
ATOM      2  O   UNL     1       0.603   1.896  25.126  0.00  0.00    -0.357 OA
ATOM      5  N   UNL     1      -0.429   1.786  24.203  0.00  0.00    -0.083 NA
ATOM     16  C   UNL     1      -1.472   2.394  24.775  0.00  0.00    +0.086 A 
ATOM     17  C   UNL     1      -1.160   2.904  26.047  0.00  0.00    +0.073 A 
ATOM     18  C   UNL     1       0.156   2.563  26.221  0.00  0.00    +0.163 A 
BRANCH  18  19
ATOM     19  C   UNL     1       1.126   2.770  27.303  0.00  0.00    +0.236 C 
BRANCH  19   3
ATOM      3  O   UNL     1       0.581   2.325  28.548  0.00  0.00    -0.375 OA
ATOM     20  C   UNL     1       1.540   2.416  29.588  0.00  0.00    +0.194 C 
ENDBRANCH  19   3
ENDBRANCH  18  19
ENDBRANCH  12  16
ENDBRANCH   6  12
TORSDOF 6
ENDMDL
MODEL 9
REMARK VINA RESULT:      -4.9      2.152      6.040
REMARK  Name = 56775540
REMARK  7 active torsions:
REMARK  status: ('A' for Active; 'I' for Inactive)
REMARK    1  A    between atoms: O_3  and  C_19
REMARK    2  A    between atoms: O_3  and  C_20
REMARK    3  A    between atoms: N_4  and  C_6
REMARK    4  A    between atoms: N_4  and  C_7
REMARK    5  A    between atoms: C_6  and  C_12
REMARK    6  A    between atoms: C_12  and  C_16
REMARK    7  A    between atoms: C_18  and  C_19
REMARK                            x       y       z     vdW  Elec       q    Type
REMARK                         _______ _______ _______ _____ _____    ______ ____
ROOT
ATOM      1  O   UNL     1      -3.272  -3.372  25.129  0.00  0.00    -0.376 OA
ATOM      6  C   UNL     1      -2.920  -1.315  24.682  0.00  0.00    +0.072 C 
ATOM      8  C   UNL     1      -3.745  -2.121  25.677  0.00  0.00    +0.184 C 
ATOM      9  C   UNL     1      -2.393  -2.671  24.221  0.00  0.00    +0.184 C 
ENDROOT
BRANCH   6   4
ATOM      4  N   UNL     1      -1.855  -0.617  25.406  0.00  0.00    -0.304 NA
ATOM     21  H   UNL     1      -2.170   0.002  26.153  0.00  0.00    +0.123 HD
BRANCH   4   7
ATOM      7  C   UNL     1      -1.027   0.119  24.453  0.00  0.00    +0.054 C 
ATOM     10  C   UNL     1      -0.370   1.316  25.149  0.00  0.00    +0.019 C 
ATOM     11  C   UNL     1       0.027  -0.815  23.848  0.00  0.00    +0.019 C 
ATOM     13  C   UNL     1       0.566   2.066  24.202  0.00  0.00    +0.002 C 
ATOM     14  C   UNL     1       0.961  -0.063  22.902  0.00  0.00    +0.002 C 
ATOM     15  C   UNL     1       1.609   1.137  23.588  0.00  0.00    +0.000 C 
ENDBRANCH   4   7
ENDBRANCH   6   4
BRANCH   6  12
ATOM     12  C   UNL     1      -3.626  -0.438  23.693  0.00  0.00    +0.085 C 
BRANCH  12  16
ATOM      2  O   UNL     1      -4.906   2.328  25.634  0.00  0.00    -0.357 OA
ATOM      5  N   UNL     1      -4.837   0.978  25.313  0.00  0.00    -0.083 NA
ATOM     16  C   UNL     1      -3.959   0.906  24.308  0.00  0.00    +0.086 A 
ATOM     17  C   UNL     1      -3.447   2.166  23.955  0.00  0.00    +0.073 A 
ATOM     18  C   UNL     1      -4.074   3.026  24.818  0.00  0.00    +0.163 A 
BRANCH  18  19
ATOM     19  C   UNL     1      -4.023   4.478  25.021  0.00  0.00    +0.236 C 
BRANCH  19   3
ATOM      3  O   UNL     1      -2.978   4.815  25.938  0.00  0.00    -0.375 OA
ATOM     20  C   UNL     1      -1.717   4.836  25.290  0.00  0.00    +0.194 C 
ENDBRANCH  19   3
ENDBRANCH  18  19
ENDBRANCH  12  16
ENDBRANCH   6  12
TORSDOF 6
ENDMDL
MODEL 10
REMARK VINA RESULT:      -4.9      2.143      3.905
REMARK  Name = 56775540
REMARK  7 active torsions:
REMARK  status: ('A' for Active; 'I' for Inactive)
REMARK    1  A    between atoms: O_3  and  C_19
REMARK    2  A    between atoms: O_3  and  C_20
REMARK    3  A    between atoms: N_4  and  C_6
REMARK    4  A    between atoms: N_4  and  C_7
REMARK    5  A    between atoms: C_6  and  C_12
REMARK    6  A    between atoms: C_12  and  C_16
REMARK    7  A    between atoms: C_18  and  C_19
REMARK                            x       y       z     vdW  Elec       q    Type
REMARK                         _______ _______ _______ _____ _____    ______ ____
ROOT
ATOM      1  O   UNL     1      -5.806   3.307  25.299  0.00  0.00    -0.376 OA
ATOM      6  C   UNL     1      -3.715   2.920  25.112  0.00  0.00    +0.072 C 
ATOM      8  C   UNL     1      -4.882   2.400  25.942  0.00  0.00    +0.184 C 
ATOM      9  C   UNL     1      -4.765   3.778  24.413  0.00  0.00    +0.184 C 
ENDROOT
BRANCH   6   4
ATOM      4  N   UNL     1      -3.281   1.865  24.193  0.00  0.00    -0.304 NA
ATOM     21  H   UNL     1      -3.561   1.992  23.220  0.00  0.00    +0.123 HD
BRANCH   4   7
ATOM      7  C   UNL     1      -3.747   0.572  24.689  0.00  0.00    +0.054 C 
ATOM     10  C   UNL     1      -3.989  -0.381  23.514  0.00  0.00    +0.019 C 
ATOM     11  C   UNL     1      -2.725  -0.009  25.670  0.00  0.00    +0.019 C 
ATOM     13  C   UNL     1      -4.405  -1.770  23.998  0.00  0.00    +0.002 C 
ATOM     14  C   UNL     1      -3.142  -1.397  26.154  0.00  0.00    +0.002 C 
ATOM     15  C   UNL     1      -3.395  -2.347  24.986  0.00  0.00    +0.000 C 
ENDBRANCH   4   7
ENDBRANCH   6   4
BRANCH   6  12
ATOM     12  C   UNL     1      -2.572   3.595  25.806  0.00  0.00    +0.085 C 
BRANCH  12  16
ATOM      2  O   UNL     1       0.693   2.049  25.765  0.00  0.00    -0.357 OA
ATOM      5  N   UNL     1      -0.376   2.647  26.419  0.00  0.00    -0.083 NA
ATOM     16  C   UNL     1      -1.259   2.927  25.456  0.00  0.00    +0.086 A 
ATOM     17  C   UNL     1      -0.806   2.530  24.186  0.00  0.00    +0.073 A 
ATOM     18  C   UNL     1       0.426   1.984  24.435  0.00  0.00    +0.163 A 
BRANCH  18  19
ATOM     19  C   UNL     1       1.458   1.375  23.588  0.00  0.00    +0.236 C 
BRANCH  19   3
ATOM      3  O   UNL     1       0.917   0.265  22.867  0.00  0.00    -0.375 OA
ATOM     20  C   UNL     1       0.257  -0.639  23.737  0.00  0.00    +0.194 C 
ENDBRANCH  19   3
ENDBRANCH  18  19
ENDBRANCH  12  16
ENDBRANCH   6  12
TORSDOF 6
ENDMDL
