MODEL 1
REMARK VINA RESULT:       7.9      0.000      0.000
REMARK  Name = 25044789
REMARK  8 active torsions:
REMARK  status: ('A' for Active; 'I' for Inactive)
REMARK    1  A    between atoms: S_1  and  N_8
REMARK    2  A    between atoms: S_1  and  C_31
REMARK    3  A    between atoms: O_5  and  C_36
REMARK    4  A    between atoms: O_5  and  C_37
REMARK    5  A    between atoms: N_6  and  C_17
REMARK    6  A    between atoms: N_8  and  C_21
REMARK    7  A    between atoms: N_9  and  C_28
REMARK    8  A    between atoms: C_17  and  C_20
REMARK                            x       y       z     vdW  Elec       q    Type
REMARK                         _______ _______ _______ _____ _____    ______ ____
ROOT
ATOM      2  O   UNL     1       0.448   2.355  26.133  0.00  0.00    -0.266 OA
ATOM      6  N   UNL     1      -4.467   1.885  25.231  0.00  0.00    -0.297 NA
ATOM      7  N   UNL     1      -1.516   3.086  25.085  0.00  0.00    -0.310 N 
ATOM     10  C   UNL     1      -3.565   3.927  26.372  0.00  0.00    +0.024 C 
ATOM     11  C   UNL     1      -3.621   3.840  23.924  0.00  0.00    +0.050 C 
ATOM     12  C   UNL     1      -3.821   4.761  25.124  0.00  0.00    +0.017 C 
ATOM     13  C   UNL     1      -4.547   2.737  26.424  0.00  0.00    +0.090 C 
ATOM     14  C   UNL     1      -4.629   2.670  23.998  0.00  0.00    +0.094 C 
ATOM     15  C   UNL     1      -2.097   3.480  26.376  0.00  0.00    +0.130 C 
ATOM     16  C   UNL     1      -2.198   3.313  23.882  0.00  0.00    +0.026 A 
ATOM     18  C   UNL     1      -1.607   3.048  22.703  0.00  0.00    +0.024 A 
ATOM     19  C   UNL     1      -0.206   2.562  25.113  0.00  0.00    +0.274 A 
ATOM     21  C   UNL     1       0.384   2.270  23.782  0.00  0.00    +0.112 A 
ATOM     22  C   UNL     1      -0.274   2.510  22.648  0.00  0.00    +0.031 A 
ENDROOT
BRANCH  21   8
ATOM      8  N   UNL     1       1.682   1.739  23.685  0.00  0.00    -0.211 N 
ATOM     38  H   UNL     1       2.358   2.405  23.284  0.00  0.00    +0.174 HD
BRANCH   8   1
ATOM      1  S   UNL     1       1.826   0.156  23.104  0.00  0.00    +0.073 S 
ATOM      3  O   UNL     1       1.110  -0.753  23.979  0.00  0.00    -0.150 OA
ATOM      4  O   UNL     1       1.583   0.137  21.674  0.00  0.00    -0.150 OA
BRANCH   1  31
ATOM     31  C   UNL     1       3.555  -0.128  23.349  0.00  0.00    +0.109 A 
ATOM     32  C   UNL     1       4.472   0.890  23.091  0.00  0.00    +0.032 A 
ATOM     33  C   UNL     1       4.001  -1.370  23.801  0.00  0.00    +0.032 A 
ATOM     34  C   UNL     1       5.835   0.668  23.286  0.00  0.00    +0.047 A 
ATOM     35  C   UNL     1       5.363  -1.593  23.997  0.00  0.00    +0.047 A 
ATOM     36  C   UNL     1       6.281  -0.575  23.738  0.00  0.00    +0.120 A 
BRANCH  36   5
ATOM      5  O   UNL     1       7.611  -0.792  23.927  0.00  0.00    -0.495 OA
ATOM     37  C   UNL     1       8.508  -0.180  23.002  0.00  0.00    +0.277 C 
ENDBRANCH  36   5
ENDBRANCH   1  31
ENDBRANCH   8   1
ENDBRANCH  21   8
BRANCH   6  17
ATOM     17  C   UNL     1      -5.445   0.801  25.294  0.00  0.00    +0.121 C 
BRANCH  17  20
ATOM      9  N   UNL     1      -4.660  -2.483  23.832  0.00  0.00    -0.349 N 
ATOM     20  C   UNL     1      -4.868  -0.504  24.817  0.00  0.00    -0.008 A 
ATOM     23  C   UNL     1      -3.554  -0.991  25.068  0.00  0.00    +0.004 A 
ATOM     24  C   UNL     1      -5.523  -1.444  24.055  0.00  0.00    +0.091 A 
ATOM     25  C   UNL     1      -3.450  -2.233  24.439  0.00  0.00    +0.049 A 
ATOM     26  C   UNL     1      -2.439  -0.492  25.772  0.00  0.00    +0.010 A 
ATOM     27  C   UNL     1      -2.283  -3.005  24.480  0.00  0.00    +0.026 A 
ATOM     28  C   UNL     1      -4.987  -3.666  23.066  0.00  0.00    +0.149 C 
ATOM     29  C   UNL     1      -1.266  -1.252  25.821  0.00  0.00    +0.001 A 
ATOM     30  C   UNL     1      -1.191  -2.489  25.184  0.00  0.00    +0.002 A 
ENDBRANCH  17  20
ENDBRANCH   6  17
TORSDOF 6
ENDMDL
