MODEL 1
REMARK VINA RESULT:      -1.6      0.000      0.000
REMARK  Name = 40779277
REMARK  8 active torsions:
REMARK  status: ('A' for Active; 'I' for Inactive)
REMARK    1  A    between atoms: O_2  and  C_26
REMARK    2  A    between atoms: O_2  and  C_27
REMARK    3  A    between atoms: N_4  and  C_18
REMARK    4  A    between atoms: N_5  and  C_15
REMARK    5  A    between atoms: C_8  and  C_14
REMARK    6  A    between atoms: C_9  and  C_15
REMARK    7  A    between atoms: C_17  and  C_20
REMARK    8  A    between atoms: C_19  and  C_21
REMARK                            x       y       z     vdW  Elec       q    Type
REMARK                         _______ _______ _______ _____ _____    ______ ____
ROOT
ATOM      3  N   UNL     1      -5.473   2.390  26.457  0.00  0.00    -0.297 NA
ATOM      7  C   UNL     1      -5.082   1.835  23.943  0.00  0.00    +0.002 C 
ATOM      8  C   UNL     1      -4.426   0.756  24.846  0.00  0.00    +0.055 C 
ATOM      9  C   UNL     1      -4.947   3.587  25.748  0.00  0.00    +0.074 C 
ATOM     10  C   UNL     1      -4.515   3.222  24.310  0.00  0.00    +0.024 C 
ATOM     11  C   UNL     1      -6.586   1.853  24.291  0.00  0.00    +0.019 C 
ATOM     12  C   UNL     1      -4.525   1.258  26.315  0.00  0.00    +0.094 C 
ATOM     13  C   UNL     1      -6.752   2.007  25.813  0.00  0.00    +0.085 C 
ENDROOT
BRANCH   8  14
ATOM      4  N   UNL     1      -2.663  -1.038  24.505  0.00  0.00    -0.270 N 
ATOM      6  N   UNL     1      -1.381  -1.252  24.162  0.00  0.00    -0.171 NA
ATOM     14  C   UNL     1      -3.025   0.277  24.493  0.00  0.00    +0.044 A 
ATOM     16  C   UNL     1      -1.901   0.972  24.117  0.00  0.00    +0.053 A 
ATOM     17  C   UNL     1      -0.921  -0.019  23.926  0.00  0.00    +0.093 A 
ATOM     18  C   UNL     1      -3.501  -2.166  24.839  0.00  0.00    +0.172 C 
BRANCH  17  20
ATOM     20  C   UNL     1       0.446   0.187  23.526  0.00  0.00    +0.002 A 
ATOM     22  C   UNL     1       1.102   1.370  23.866  0.00  0.00    +0.013 A 
ATOM     23  C   UNL     1       1.114  -0.796  22.795  0.00  0.00    +0.013 A 
ATOM     24  C   UNL     1       2.427   1.570  23.477  0.00  0.00    +0.046 A 
ATOM     25  C   UNL     1       2.439  -0.596  22.406  0.00  0.00    +0.046 A 
ATOM     26  C   UNL     1       3.095   0.587  22.746  0.00  0.00    +0.120 A 
BRANCH  26   2
ATOM      2  O   UNL     1       4.387   0.781  22.366  0.00  0.00    -0.495 OA
ATOM     27  C   UNL     1       5.400   0.192  23.180  0.00  0.00    +0.277 C 
ENDBRANCH  26   2
ENDBRANCH  17  20
ENDBRANCH   8  14
BRANCH   9  15
ATOM     15  C   UNL     1      -3.823   4.277  26.522  0.00  0.00    +0.123 C 
BRANCH  15   5
ATOM      1  O   UNL     1      -1.165   3.118  26.389  0.00  0.00    -0.276 OA
ATOM      5  N   UNL     1      -2.755   4.651  25.648  0.00  0.00    -0.314 N 
ATOM     19  C   UNL     1      -1.504   4.038  25.651  0.00  0.00    +0.210 C 
ATOM     21  C   UNL     1      -0.574   4.608  24.613  0.00  0.00    +0.109 C 
ATOM     28  H   UNL     1      -2.915   5.427  25.012  0.00  0.00    +0.149 HD
ENDBRANCH  15   5
ENDBRANCH   9  15
TORSDOF 5
ENDMDL
MODEL 2
REMARK VINA RESULT:       1.1      1.950      3.919
REMARK  Name = 40779277
REMARK  8 active torsions:
REMARK  status: ('A' for Active; 'I' for Inactive)
REMARK    1  A    between atoms: O_2  and  C_26
REMARK    2  A    between atoms: O_2  and  C_27
REMARK    3  A    between atoms: N_4  and  C_18
REMARK    4  A    between atoms: N_5  and  C_15
REMARK    5  A    between atoms: C_8  and  C_14
REMARK    6  A    between atoms: C_9  and  C_15
REMARK    7  A    between atoms: C_17  and  C_20
REMARK    8  A    between atoms: C_19  and  C_21
REMARK                            x       y       z     vdW  Elec       q    Type
REMARK                         _______ _______ _______ _____ _____    ______ ____
ROOT
ATOM      3  N   UNL     1      -5.519   1.622  24.005  0.00  0.00    -0.297 NA
ATOM      7  C   UNL     1      -4.011   2.415  25.975  0.00  0.00    +0.002 C 
ATOM      8  C   UNL     1      -3.433   2.900  24.617  0.00  0.00    +0.055 C 
ATOM      9  C   UNL     1      -5.205   0.475  24.899  0.00  0.00    +0.074 C 
ATOM     10  C   UNL     1      -4.149   0.879  25.951  0.00  0.00    +0.024 C 
ATOM     11  C   UNL     1      -5.437   2.997  26.084  0.00  0.00    +0.019 C 
ATOM     12  C   UNL     1      -4.264   2.223  23.491  0.00  0.00    +0.094 C 
ATOM     13  C   UNL     1      -6.227   2.645  24.811  0.00  0.00    +0.085 C 
ENDROOT
BRANCH   8  14
ATOM      4  N   UNL     1      -1.056   3.791  24.600  0.00  0.00    -0.270 N 
ATOM      6  N   UNL     1       0.223   3.472  24.338  0.00  0.00    -0.171 NA
ATOM     14  C   UNL     1      -1.933   2.769  24.387  0.00  0.00    +0.044 A 
ATOM     16  C   UNL     1      -1.176   1.708  23.954  0.00  0.00    +0.053 A 
ATOM     17  C   UNL     1       0.143   2.198  23.943  0.00  0.00    +0.093 A 
ATOM     18  C   UNL     1      -1.371   5.123  25.061  0.00  0.00    +0.172 C 
BRANCH  17  20
ATOM     20  C   UNL     1       1.328   1.475  23.562  0.00  0.00    +0.002 A 
ATOM     22  C   UNL     1       1.297   0.083  23.472  0.00  0.00    +0.013 A 
ATOM     23  C   UNL     1       2.507   2.165  23.284  0.00  0.00    +0.013 A 
ATOM     24  C   UNL     1       2.445  -0.618  23.103  0.00  0.00    +0.046 A 
ATOM     25  C   UNL     1       3.656   1.464  22.916  0.00  0.00    +0.046 A 
ATOM     26  C   UNL     1       3.625   0.073  22.826  0.00  0.00    +0.120 A 
BRANCH  26   2
ATOM      2  O   UNL     1       4.746  -0.610  22.466  0.00  0.00    -0.495 OA
ATOM     27  C   UNL     1       5.910  -0.417  23.269  0.00  0.00    +0.277 C 
ENDBRANCH  26   2
ENDBRANCH  17  20
ENDBRANCH   8  14
BRANCH   9  15
ATOM     15  C   UNL     1      -4.786  -0.773  24.121  0.00  0.00    +0.123 C 
BRANCH  15   5
ATOM      1  O   UNL     1      -3.525  -3.340  24.617  0.00  0.00    -0.276 OA
ATOM      5  N   UNL     1      -3.391  -1.037  24.292  0.00  0.00    -0.314 N 
ATOM     19  C   UNL     1      -2.868  -2.307  24.527  0.00  0.00    +0.210 C 
ATOM     21  C   UNL     1      -1.367  -2.305  24.644  0.00  0.00    +0.109 C 
ATOM     28  H   UNL     1      -2.755  -0.245  24.268  0.00  0.00    +0.149 HD
ENDBRANCH  15   5
ENDBRANCH   9  15
TORSDOF 5
ENDMDL
MODEL 3
REMARK VINA RESULT:       2.1      2.082      3.668
REMARK  Name = 40779277
REMARK  8 active torsions:
REMARK  status: ('A' for Active; 'I' for Inactive)
REMARK    1  A    between atoms: O_2  and  C_26
REMARK    2  A    between atoms: O_2  and  C_27
REMARK    3  A    between atoms: N_4  and  C_18
REMARK    4  A    between atoms: N_5  and  C_15
REMARK    5  A    between atoms: C_8  and  C_14
REMARK    6  A    between atoms: C_9  and  C_15
REMARK    7  A    between atoms: C_17  and  C_20
REMARK    8  A    between atoms: C_19  and  C_21
REMARK                            x       y       z     vdW  Elec       q    Type
REMARK                         _______ _______ _______ _____ _____    ______ ____
ROOT
ATOM      3  N   UNL     1      -4.357   3.226  24.313  0.00  0.00    -0.297 NA
ATOM      7  C   UNL     1      -2.204   3.176  25.777  0.00  0.00    +0.002 C 
ATOM      8  C   UNL     1      -1.837   3.129  24.269  0.00  0.00    +0.055 C 
ATOM      9  C   UNL     1      -4.483   2.184  25.366  0.00  0.00    +0.074 C 
ATOM     10  C   UNL     1      -3.142   1.997  26.110  0.00  0.00    +0.024 C 
ATOM     11  C   UNL     1      -3.009   4.474  25.999  0.00  0.00    +0.019 C 
ATOM     12  C   UNL     1      -3.163   2.958  23.474  0.00  0.00    +0.094 C 
ATOM     13  C   UNL     1      -4.167   4.532  24.986  0.00  0.00    +0.085 C 
ENDROOT
BRANCH   8  14
ATOM      4  N   UNL     1      -1.008   1.121  22.955  0.00  0.00    -0.270 N 
ATOM      6  N   UNL     1       0.072   0.369  22.686  0.00  0.00    -0.171 NA
ATOM     14  C   UNL     1      -0.763   2.147  23.819  0.00  0.00    +0.044 A 
ATOM     16  C   UNL     1       0.570   2.060  24.139  0.00  0.00    +0.053 A 
ATOM     17  C   UNL     1       1.033   0.947  23.412  0.00  0.00    +0.093 A 
ATOM     18  C   UNL     1      -2.271   0.791  22.336  0.00  0.00    +0.172 C 
BRANCH  17  20
ATOM     20  C   UNL     1       2.374   0.425  23.399  0.00  0.00    +0.002 A 
ATOM     22  C   UNL     1       3.439   1.245  23.025  0.00  0.00    +0.013 A 
ATOM     23  C   UNL     1       2.609  -0.902  23.758  0.00  0.00    +0.013 A 
ATOM     24  C   UNL     1       4.739   0.738  23.011  0.00  0.00    +0.046 A 
ATOM     25  C   UNL     1       3.909  -1.409  23.745  0.00  0.00    +0.046 A 
ATOM     26  C   UNL     1       4.973  -0.590  23.371  0.00  0.00    +0.120 A 
BRANCH  26   2
ATOM      2  O   UNL     1       6.241  -1.085  23.358  0.00  0.00    -0.495 OA
ATOM     27  C   UNL     1       7.287  -0.185  22.997  0.00  0.00    +0.277 C 
ENDBRANCH  26   2
ENDBRANCH  17  20
ENDBRANCH   8  14
BRANCH   9  15
ATOM     15  C   UNL     1      -5.018   0.861  24.817  0.00  0.00    +0.123 C 
BRANCH  15   5
ATOM      1  O   UNL     1      -4.346  -1.615  23.458  0.00  0.00    -0.276 OA
ATOM      5  N   UNL     1      -4.280  -0.246  25.342  0.00  0.00    -0.314 N 
ATOM     19  C   UNL     1      -4.001  -1.402  24.617  0.00  0.00    +0.210 C 
ATOM     21  C   UNL     1      -3.188  -2.399  25.400  0.00  0.00    +0.109 C 
ATOM     28  H   UNL     1      -3.972  -0.191  26.309  0.00  0.00    +0.149 HD
ENDBRANCH  15   5
ENDBRANCH   9  15
TORSDOF 5
ENDMDL
