MODEL 1
REMARK VINA RESULT:      15.0      0.000      0.000
REMARK  Name = 45361340
REMARK  12 active torsions:
REMARK  status: ('A' for Active; 'I' for Inactive)
REMARK    1  A    between atoms: O_2  and  C_12
REMARK    2  A    between atoms: N_6  and  C_26
REMARK    3  A    between atoms: N_6  and  C_27
REMARK    4  A    between atoms: N_8  and  C_35
REMARK    5  A    between atoms: C_10  and  C_18
REMARK    6  A    between atoms: C_13  and  C_19
REMARK    7  A    between atoms: C_15  and  C_22
REMARK    8  A    between atoms: C_19  and  C_23
REMARK    9  A    between atoms: C_19  and  C_24
REMARK   10  A    between atoms: C_26  and  C_29
REMARK   11  A    between atoms: C_28  and  C_30
REMARK   12  A    between atoms: C_29  and  C_31
REMARK                            x       y       z     vdW  Elec       q    Type
REMARK                         _______ _______ _______ _____ _____    ______ ____
ROOT
ATOM      1  S   UNL     1       1.447  -2.060  24.310  0.00  0.00    -0.057 S 
ATOM      4  O   UNL     1       4.143   1.452  22.794  0.00  0.00    -0.268 OA
ATOM      5  N   UNL     1       1.428   0.425  23.595  0.00  0.00    -0.229 NA
ATOM      7  N   UNL     1       3.553  -0.709  23.523  0.00  0.00    -0.259 N 
ATOM     10  C   UNL     1      -2.340  -0.720  25.195  0.00  0.00    -0.022 C 
ATOM     11  C   UNL     1      -2.392   0.380  24.063  0.00  0.00    +0.033 C 
ATOM     12  C   UNL     1      -3.563   1.376  24.294  0.00  0.00    +0.123 C 
ATOM     13  C   UNL     1      -4.918   0.666  24.507  0.00  0.00    +0.029 C 
ATOM     14  C   UNL     1      -3.724  -1.397  25.329  0.00  0.00    +0.008 C 
ATOM     15  C   UNL     1      -0.991   1.089  23.861  0.00  0.00    +0.042 C 
ATOM     16  C   UNL     1      -4.851  -0.407  25.593  0.00  0.00    +0.007 C 
ATOM     17  C   UNL     1      -1.314  -1.830  24.805  0.00  0.00    +0.051 C 
ATOM     18  C   UNL     1      -1.936  -0.123  26.568  0.00  0.00    +0.012 C 
ATOM     20  C   UNL     1       0.129   0.078  23.921  0.00  0.00    +0.057 A 
ATOM     21  C   UNL     1      -0.033  -1.221  24.356  0.00  0.00    +0.015 A 
ATOM     22  C   UNL     1      -0.900   1.893  22.555  0.00  0.00    +0.014 C 
ATOM     25  C   UNL     1       2.205  -0.624  23.750  0.00  0.00    +0.165 A 
ATOM     28  C   UNL     1       4.442   0.296  23.069  0.00  0.00    +0.266 C 
ATOM     37  H   UNL     1       3.945  -1.626  23.726  0.00  0.00    +0.157 HD
ENDROOT
BRANCH  28  30
ATOM      8  N   UNL     1       6.906   0.509  23.606  0.00  0.00    -0.346 N 
ATOM     30  C   UNL     1       5.871  -0.099  22.945  0.00  0.00    +0.105 A 
ATOM     32  C   UNL     1       6.398  -1.112  22.176  0.00  0.00    +0.032 A 
ATOM     33  C   UNL     1       8.086  -0.102  23.271  0.00  0.00    +0.086 A 
ATOM     34  C   UNL     1       7.800  -1.114  22.381  0.00  0.00    +0.020 A 
ATOM     35  C   UNL     1       6.790   1.623  24.520  0.00  0.00    +0.149 C 
ENDBRANCH  28  30
BRANCH  12   2
ATOM      2  O   UNL     1      -3.702   2.219  23.152  0.00  0.00    -0.391 OA
ATOM     36  H   UNL     1      -4.506   1.950  22.676  0.00  0.00    +0.210 HD
ENDBRANCH  12   2
BRANCH  13  19
ATOM     19  C   UNL     1      -6.036   1.662  24.839  0.00  0.00    +0.078 C 
ATOM     23  C   UNL     1      -6.233   2.620  23.662  0.00  0.00    +0.017 C 
BRANCH  19  24
ATOM      3  O   UNL     1      -6.267   2.153  27.172  0.00  0.00    -0.275 OA
ATOM      6  N   UNL     1      -4.719   3.436  26.029  0.00  0.00    -0.303 N 
ATOM     24  C   UNL     1      -5.684   2.429  26.118  0.00  0.00    +0.219 C 
ATOM     27  C   UNL     1      -4.375   4.201  27.224  0.00  0.00    +0.132 C 
BRANCH   6  26
ATOM     26  C   UNL     1      -3.960   3.801  24.834  0.00  0.00    +0.122 C 
BRANCH  26  29
ATOM     29  C   UNL     1      -2.966   4.927  25.097  0.00  0.00    +0.137 C 
BRANCH  29  31
ATOM      9  N   UNL     1      -0.505   4.027  25.336  0.00  0.00    -0.197 NA
ATOM     31  C   UNL     1      -1.591   4.423  25.230  0.00  0.00    +0.064 C 
ENDBRANCH  29  31
ENDBRANCH  26  29
ENDBRANCH   6  26
ENDBRANCH  19  24
ENDBRANCH  13  19
TORSDOF 7
ENDMDL
MODEL 2
REMARK VINA RESULT:      15.1      1.623      2.282
REMARK  Name = 45361340
REMARK  12 active torsions:
REMARK  status: ('A' for Active; 'I' for Inactive)
REMARK    1  A    between atoms: O_2  and  C_12
REMARK    2  A    between atoms: N_6  and  C_26
REMARK    3  A    between atoms: N_6  and  C_27
REMARK    4  A    between atoms: N_8  and  C_35
REMARK    5  A    between atoms: C_10  and  C_18
REMARK    6  A    between atoms: C_13  and  C_19
REMARK    7  A    between atoms: C_15  and  C_22
REMARK    8  A    between atoms: C_19  and  C_23
REMARK    9  A    between atoms: C_19  and  C_24
REMARK   10  A    between atoms: C_26  and  C_29
REMARK   11  A    between atoms: C_28  and  C_30
REMARK   12  A    between atoms: C_29  and  C_31
REMARK                            x       y       z     vdW  Elec       q    Type
REMARK                         _______ _______ _______ _____ _____    ______ ____
ROOT
ATOM      1  S   UNL     1       2.507  -0.273  21.752  0.00  0.00    -0.057 S 
ATOM      4  O   UNL     1       5.611   0.967  25.028  0.00  0.00    -0.268 OA
ATOM      5  N   UNL     1       2.746   0.701  24.136  0.00  0.00    -0.229 NA
ATOM      7  N   UNL     1       4.787   0.155  22.974  0.00  0.00    -0.259 N 
ATOM     10  C   UNL     1      -1.327  -0.109  23.233  0.00  0.00    -0.022 C 
ATOM     11  C   UNL     1      -1.079   1.121  24.193  0.00  0.00    +0.033 C 
ATOM     12  C   UNL     1      -2.232   1.277  25.224  0.00  0.00    +0.123 C 
ATOM     13  C   UNL     1      -3.627   1.303  24.561  0.00  0.00    +0.029 C 
ATOM     14  C   UNL     1      -2.732   0.003  22.595  0.00  0.00    +0.008 C 
ATOM     15  C   UNL     1       0.359   1.074  24.856  0.00  0.00    +0.042 C 
ATOM     16  C   UNL     1      -3.849   0.118  23.622  0.00  0.00    +0.007 C 
ATOM     17  C   UNL     1      -0.285  -0.092  22.073  0.00  0.00    +0.051 C 
ATOM     18  C   UNL     1      -1.223  -1.463  23.983  0.00  0.00    +0.012 C 
ATOM     20  C   UNL     1       1.395   0.645  23.846  0.00  0.00    +0.057 A 
ATOM     21  C   UNL     1       1.088   0.117  22.608  0.00  0.00    +0.015 A 
ATOM     22  C   UNL     1       0.774   2.405  25.499  0.00  0.00    +0.014 C 
ATOM     25  C   UNL     1       3.427   0.255  23.102  0.00  0.00    +0.165 A 
ATOM     28  C   UNL     1       5.794   0.503  23.908  0.00  0.00    +0.266 C 
ATOM     37  H   UNL     1       5.087  -0.234  22.084  0.00  0.00    +0.157 HD
ENDROOT
BRANCH  28  30
ATOM      8  N   UNL     1       7.602  -0.828  22.740  0.00  0.00    -0.346 N 
ATOM     30  C   UNL     1       7.197   0.250  23.484  0.00  0.00    +0.105 A 
ATOM     32  C   UNL     1       8.306   1.023  23.746  0.00  0.00    +0.032 A 
ATOM     33  C   UNL     1       8.954  -0.753  22.523  0.00  0.00    +0.086 A 
ATOM     34  C   UNL     1       9.418   0.389  23.139  0.00  0.00    +0.020 A 
ATOM     35  C   UNL     1       6.751  -1.888  22.251  0.00  0.00    +0.149 C 
ENDBRANCH  28  30
BRANCH  12   2
ATOM      2  O   UNL     1      -2.076   2.508  25.928  0.00  0.00    -0.391 OA
ATOM     36  H   UNL     1      -1.738   3.171  25.303  0.00  0.00    +0.210 HD
ENDBRANCH  12   2
BRANCH  13  19
ATOM     19  C   UNL     1      -4.751   1.351  25.603  0.00  0.00    +0.078 C 
ATOM     23  C   UNL     1      -5.527   0.033  25.577  0.00  0.00    +0.017 C 
BRANCH  19  24
ATOM      3  O   UNL     1      -6.784   2.337  24.808  0.00  0.00    -0.275 OA
ATOM      6  N   UNL     1      -5.205   3.818  25.625  0.00  0.00    -0.303 N 
ATOM     24  C   UNL     1      -5.675   2.538  25.315  0.00  0.00    +0.219 C 
ATOM     27  C   UNL     1      -6.051   4.974  25.342  0.00  0.00    +0.132 C 
BRANCH   6  26
ATOM     26  C   UNL     1      -3.926   4.140  26.255  0.00  0.00    +0.122 C 
BRANCH  26  29
ATOM     29  C   UNL     1      -3.310   5.420  25.702  0.00  0.00    +0.137 C 
BRANCH  29  31
ATOM      9  N   UNL     1      -0.833   5.047  24.897  0.00  0.00    -0.197 NA
ATOM     31  C   UNL     1      -1.925   5.211  25.253  0.00  0.00    +0.064 C 
ENDBRANCH  29  31
ENDBRANCH  26  29
ENDBRANCH   6  26
ENDBRANCH  19  24
ENDBRANCH  13  19
TORSDOF 7
ENDMDL
