MODEL 1
REMARK VINA RESULT:      -1.5      0.000      0.000
REMARK  Name = 25338219
REMARK  6 active torsions:
REMARK  status: ('A' for Active; 'I' for Inactive)
REMARK    1  A    between atoms: O_3  and  C_10
REMARK    2  A    between atoms: O_5  and  C_24
REMARK    3  A    between atoms: O_5  and  C_27
REMARK    4  A    between atoms: N_6  and  C_9
REMARK    5  A    between atoms: N_7  and  C_11
REMARK    6  A    between atoms: N_8  and  C_21
REMARK                            x       y       z     vdW  Elec       q    Type
REMARK                         _______ _______ _______ _____ _____    ______ ____
ROOT
ATOM      1  O   UNL     1      -3.867   2.812  26.498  0.00  0.00    -0.342 OA
ATOM      2  O   UNL     1      -5.827   3.558  25.504  0.00  0.00    -0.347 OA
ATOM      9  C   UNL     1      -4.607   1.747  24.465  0.00  0.00    +0.143 C 
ATOM     10  C   UNL     1      -3.791   2.751  23.619  0.00  0.00    +0.159 C 
ATOM     11  C   UNL     1      -2.932   3.714  24.468  0.00  0.00    +0.136 C 
ATOM     12  C   UNL     1      -5.044   2.389  25.794  0.00  0.00    +0.270 C 
ATOM     13  C   UNL     1      -3.561   4.044  25.837  0.00  0.00    +0.170 C 
ATOM     14  C   UNL     1      -4.943   4.663  25.752  0.00  0.00    +0.196 C 
ENDROOT
BRANCH  11   7
ATOM      4  O   UNL     1      -1.483   2.069  22.624  0.00  0.00    -0.252 OA
ATOM      7  N   UNL     1      -1.607   3.164  24.657  0.00  0.00    -0.291 N 
ATOM      8  N   UNL     1       0.292   1.982  24.157  0.00  0.00    -0.269 N 
ATOM     20  C   UNL     1      -0.972   2.367  23.701  0.00  0.00    +0.304 C 
ATOM     28  H   UNL     1      -1.152   3.299  25.555  0.00  0.00    +0.151 HD
ATOM     30  H   UNL     1       0.567   2.317  25.077  0.00  0.00    +0.156 HD
BRANCH   8  21
ATOM     21  C   UNL     1       1.247   1.178  23.493  0.00  0.00    +0.038 A 
ATOM     22  C   UNL     1       2.608   1.451  23.634  0.00  0.00    +0.069 A 
ATOM     23  C   UNL     1       0.829   0.111  22.697  0.00  0.00    +0.023 A 
ATOM     24  C   UNL     1       3.550   0.658  22.980  0.00  0.00    +0.122 A 
ATOM     25  C   UNL     1       1.772  -0.683  22.043  0.00  0.00    +0.005 A 
ATOM     26  C   UNL     1       3.132  -0.408  22.184  0.00  0.00    +0.046 A 
BRANCH  24   5
ATOM      5  O   UNL     1       4.878   0.926  23.116  0.00  0.00    -0.495 OA
ATOM     27  C   UNL     1       5.668  -0.047  23.798  0.00  0.00    +0.277 C 
ENDBRANCH  24   5
ENDBRANCH   8  21
ENDBRANCH  11   7
BRANCH   9   6
ATOM      6  N   UNL     1      -3.809   0.550  24.732  0.00  0.00    -0.293 NA
ATOM     15  C   UNL     1      -3.734  -0.296  23.532  0.00  0.00    +0.085 C 
ATOM     16  C   UNL     1      -4.363  -0.193  25.872  0.00  0.00    +0.085 C 
ATOM     17  C   UNL     1      -2.862  -1.529  23.780  0.00  0.00    +0.015 C 
ATOM     18  C   UNL     1      -3.512  -1.422  26.196  0.00  0.00    +0.015 C 
ATOM     19  C   UNL     1      -3.360  -2.327  24.978  0.00  0.00    +0.002 C 
ENDBRANCH   9   6
BRANCH  10   3
ATOM      3  O   UNL     1      -4.719   3.524  22.845  0.00  0.00    -0.388 OA
ATOM     29  H   UNL     1      -4.465   3.436  21.910  0.00  0.00    +0.210 HD
ENDBRANCH  10   3
TORSDOF 5
ENDMDL
MODEL 2
REMARK VINA RESULT:       0.1      1.542      2.020
REMARK  Name = 25338219
REMARK  6 active torsions:
REMARK  status: ('A' for Active; 'I' for Inactive)
REMARK    1  A    between atoms: O_3  and  C_10
REMARK    2  A    between atoms: O_5  and  C_24
REMARK    3  A    between atoms: O_5  and  C_27
REMARK    4  A    between atoms: N_6  and  C_9
REMARK    5  A    between atoms: N_7  and  C_11
REMARK    6  A    between atoms: N_8  and  C_21
REMARK                            x       y       z     vdW  Elec       q    Type
REMARK                         _______ _______ _______ _____ _____    ______ ____
ROOT
ATOM      1  O   UNL     1      -1.668   1.845  25.642  0.00  0.00    -0.342 OA
ATOM      2  O   UNL     1      -3.446   3.331  25.751  0.00  0.00    -0.347 OA
ATOM      9  C   UNL     1      -3.614   1.416  24.283  0.00  0.00    +0.143 C 
ATOM     10  C   UNL     1      -3.003   2.227  23.118  0.00  0.00    +0.159 C 
ATOM     11  C   UNL     1      -1.563   2.712  23.395  0.00  0.00    +0.136 C 
ATOM     12  C   UNL     1      -3.099   1.941  25.636  0.00  0.00    +0.270 C 
ATOM     13  C   UNL     1      -1.296   3.001  24.886  0.00  0.00    +0.170 C 
ATOM     14  C   UNL     1      -2.222   4.038  25.493  0.00  0.00    +0.196 C 
ENDROOT
BRANCH  11   7
ATOM      4  O   UNL     1       0.927   1.996  24.616  0.00  0.00    -0.252 OA
ATOM      7  N   UNL     1      -0.608   1.741  22.905  0.00  0.00    -0.291 N 
ATOM      8  N   UNL     1       1.305   0.480  22.864  0.00  0.00    -0.269 N 
ATOM     20  C   UNL     1       0.588   1.453  23.567  0.00  0.00    +0.304 C 
ATOM     28  H   UNL     1      -0.779   1.309  22.002  0.00  0.00    +0.151 HD
ATOM     30  H   UNL     1       0.881   0.131  22.008  0.00  0.00    +0.156 HD
BRANCH   8  21
ATOM     21  C   UNL     1       2.559  -0.084  23.196  0.00  0.00    +0.038 A 
ATOM     22  C   UNL     1       3.717   0.689  23.111  0.00  0.00    +0.069 A 
ATOM     23  C   UNL     1       2.637  -1.415  23.608  0.00  0.00    +0.023 A 
ATOM     24  C   UNL     1       4.953   0.133  23.439  0.00  0.00    +0.122 A 
ATOM     25  C   UNL     1       3.874  -1.971  23.936  0.00  0.00    +0.005 A 
ATOM     26  C   UNL     1       5.031  -1.198  23.851  0.00  0.00    +0.046 A 
BRANCH  24   5
ATOM      5  O   UNL     1       6.082   0.887  23.356  0.00  0.00    -0.495 OA
ATOM     27  C   UNL     1       7.329   0.194  23.391  0.00  0.00    +0.277 C 
ENDBRANCH  24   5
ENDBRANCH   8  21
ENDBRANCH  11   7
BRANCH   9   6
ATOM      6  N   UNL     1      -3.277  -0.001  24.142  0.00  0.00    -0.293 NA
ATOM     15  C   UNL     1      -4.497  -0.811  24.025  0.00  0.00    +0.085 C 
ATOM     16  C   UNL     1      -2.448  -0.448  25.270  0.00  0.00    +0.085 C 
ATOM     17  C   UNL     1      -4.161  -2.290  23.827  0.00  0.00    +0.015 C 
ATOM     18  C   UNL     1      -2.045  -1.914  25.113  0.00  0.00    +0.015 C 
ATOM     19  C   UNL     1      -3.268  -2.810  24.947  0.00  0.00    +0.002 C 
ENDBRANCH   9   6
BRANCH  10   3
ATOM      3  O   UNL     1      -3.840   3.370  22.897  0.00  0.00    -0.388 OA
ATOM     29  H   UNL     1      -4.578   3.321  23.528  0.00  0.00    +0.210 HD
ENDBRANCH  10   3
TORSDOF 5
ENDMDL
MODEL 3
REMARK VINA RESULT:       0.4      2.140      4.078
REMARK  Name = 25338219
REMARK  6 active torsions:
REMARK  status: ('A' for Active; 'I' for Inactive)
REMARK    1  A    between atoms: O_3  and  C_10
REMARK    2  A    between atoms: O_5  and  C_24
REMARK    3  A    between atoms: O_5  and  C_27
REMARK    4  A    between atoms: N_6  and  C_9
REMARK    5  A    between atoms: N_7  and  C_11
REMARK    6  A    between atoms: N_8  and  C_21
REMARK                            x       y       z     vdW  Elec       q    Type
REMARK                         _______ _______ _______ _____ _____    ______ ____
ROOT
ATOM      1  O   UNL     1      -3.935   0.447  23.222  0.00  0.00    -0.342 OA
ATOM      2  O   UNL     1      -5.211  -0.305  25.007  0.00  0.00    -0.347 OA
ATOM      9  C   UNL     1      -3.241   1.024  25.458  0.00  0.00    +0.143 C 
ATOM     10  C   UNL     1      -2.372  -0.252  25.538  0.00  0.00    +0.159 C 
ATOM     11  C   UNL     1      -2.331  -1.052  24.218  0.00  0.00    +0.136 C 
ATOM     12  C   UNL     1      -4.439   0.804  24.517  0.00  0.00    +0.270 C 
ATOM     13  C   UNL     1      -3.633  -0.940  23.399  0.00  0.00    +0.170 C 
ATOM     14  C   UNL     1      -4.874  -1.400  24.141  0.00  0.00    +0.196 C 
ENDROOT
BRANCH  11   7
ATOM      4  O   UNL     1       0.411  -0.920  25.036  0.00  0.00    -0.252 OA
ATOM      7  N   UNL     1      -1.208  -0.625  23.411  0.00  0.00    -0.291 N 
ATOM      8  N   UNL     1       0.972  -0.139  22.895  0.00  0.00    -0.269 N 
ATOM     20  C   UNL     1       0.104  -0.591  23.893  0.00  0.00    +0.304 C 
ATOM     28  H   UNL     1      -1.392  -0.262  22.481  0.00  0.00    +0.151 HD
ATOM     30  H   UNL     1       0.554   0.093  21.997  0.00  0.00    +0.156 HD
BRANCH   8  21
ATOM     21  C   UNL     1       2.373   0.039  22.977  0.00  0.00    +0.038 A 
ATOM     22  C   UNL     1       3.178  -0.988  23.471  0.00  0.00    +0.069 A 
ATOM     23  C   UNL     1       2.949   1.240  22.565  0.00  0.00    +0.023 A 
ATOM     24  C   UNL     1       4.559  -0.814  23.552  0.00  0.00    +0.122 A 
ATOM     25  C   UNL     1       4.331   1.415  22.646  0.00  0.00    +0.005 A 
ATOM     26  C   UNL     1       5.135   0.388  23.140  0.00  0.00    +0.046 A 
BRANCH  24   5
ATOM      5  O   UNL     1       5.345  -1.815  24.034  0.00  0.00    -0.495 OA
ATOM     27  C   UNL     1       6.543  -1.432  24.706  0.00  0.00    +0.277 C 
ENDBRANCH  24   5
ENDBRANCH   8  21
ENDBRANCH  11   7
BRANCH   9   6
ATOM      6  N   UNL     1      -2.438   2.151  24.983  0.00  0.00    -0.293 NA
ATOM     15  C   UNL     1      -1.171   2.227  25.723  0.00  0.00    +0.085 C 
ATOM     16  C   UNL     1      -3.195   3.405  25.094  0.00  0.00    +0.085 C 
ATOM     17  C   UNL     1      -0.297   3.372  25.204  0.00  0.00    +0.015 C 
ATOM     18  C   UNL     1      -2.389   4.587  24.555  0.00  0.00    +0.015 C 
ATOM     19  C   UNL     1      -1.039   4.702  25.255  0.00  0.00    +0.002 C 
ENDBRANCH   9   6
BRANCH  10   3
ATOM      3  O   UNL     1      -2.918  -1.088  26.566  0.00  0.00    -0.388 OA
ATOM     29  H   UNL     1      -3.039  -1.977  26.189  0.00  0.00    +0.210 HD
ENDBRANCH  10   3
TORSDOF 5
ENDMDL
