MODEL 1
REMARK VINA RESULT:       8.6      0.000      0.000
REMARK  Name = 7143816
REMARK  5 active torsions:
REMARK  status: ('A' for Active; 'I' for Inactive)
REMARK    1  A    between atoms: S_1  and  N_7
REMARK    2  A    between atoms: S_1  and  C_21
REMARK    3  A    between atoms: N_9  and  C_28
REMARK    4  A    between atoms: C_19  and  C_22
REMARK    5  A    between atoms: C_31  and  C_32
REMARK                            x       y       z     vdW  Elec       q    Type
REMARK                         _______ _______ _______ _____ _____    ______ ____
ROOT
ATOM      4  O   UNL     1       0.204   1.947  26.056  0.00  0.00    -0.267 OA
ATOM      7  N   UNL     1      -4.674   2.918  25.730  0.00  0.00    -0.176 NA
ATOM      8  N   UNL     1      -1.564   3.270  25.306  0.00  0.00    -0.311 N 
ATOM     10  C   UNL     1      -3.142   4.501  26.905  0.00  0.00    +0.025 C 
ATOM     11  C   UNL     1      -3.468   4.695  24.478  0.00  0.00    +0.052 C 
ATOM     12  C   UNL     1      -3.291   5.499  25.764  0.00  0.00    +0.017 C 
ATOM     13  C   UNL     1      -4.395   3.617  27.017  0.00  0.00    +0.114 C 
ATOM     14  C   UNL     1      -4.754   3.855  24.570  0.00  0.00    +0.119 C 
ATOM     15  C   UNL     1      -1.864   3.681  26.685  0.00  0.00    +0.130 C 
ATOM     16  C   UNL     1      -2.270   3.801  24.224  0.00  0.00    +0.026 A 
ATOM     17  C   UNL     1      -1.902   3.501  22.968  0.00  0.00    +0.022 A 
ATOM     18  C   UNL     1      -0.465   2.405  25.130  0.00  0.00    +0.262 A 
ATOM     19  C   UNL     1      -0.099   2.059  23.711  0.00  0.00    +0.082 A 
ATOM     20  C   UNL     1      -0.803   2.612  22.712  0.00  0.00    +0.018 A 
ENDROOT
BRANCH  19  22
ATOM      5  O   UNL     1       2.313   1.505  23.449  0.00  0.00    -0.463 OA
ATOM     22  C   UNL     1       1.002   1.128  23.413  0.00  0.00    +0.140 A 
ATOM     27  C   UNL     1       0.908  -0.208  23.068  0.00  0.00    +0.050 A 
ATOM     29  C   UNL     1       2.233  -0.669  22.885  0.00  0.00    +0.042 A 
ATOM     30  C   UNL     1       3.051   0.410  23.128  0.00  0.00    +0.196 A 
ENDBRANCH  19  22
BRANCH   7   1
ATOM      1  S   UNL     1      -5.886   1.712  25.792  0.00  0.00    +0.061 S 
ATOM      2  O   UNL     1      -6.888   1.996  24.787  0.00  0.00    -0.153 OA
ATOM      3  O   UNL     1      -6.260   1.489  27.173  0.00  0.00    -0.153 OA
BRANCH   1  21
ATOM     21  C   UNL     1      -4.959   0.312  25.247  0.00  0.00    +0.106 A 
ATOM     23  C   UNL     1      -5.103  -0.132  23.943  0.00  0.00    +0.030 A 
ATOM     24  C   UNL     1      -4.102  -0.319  26.135  0.00  0.00    +0.030 A 
ATOM     25  C   UNL     1      -4.369  -1.238  23.513  0.00  0.00    +0.025 A 
ATOM     26  C   UNL     1      -3.369  -1.425  25.704  0.00  0.00    +0.025 A 
ATOM     28  C   UNL     1      -3.503  -1.885  24.394  0.00  0.00    +0.033 A 
BRANCH  28   9
ATOM      6  O   UNL     1      -0.541  -2.422  24.490  0.00  0.00    -0.276 OA
ATOM      9  N   UNL     1      -2.768  -2.990  23.964  0.00  0.00    -0.286 N 
ATOM     31  C   UNL     1      -1.383  -3.188  24.032  0.00  0.00    +0.214 C 
ATOM     32  C   UNL     1      -0.981  -4.522  23.455  0.00  0.00    +0.109 C 
ATOM     33  H   UNL     1      -3.317  -3.740  23.549  0.00  0.00    +0.155 HD
ENDBRANCH  28   9
ENDBRANCH   1  21
ENDBRANCH   7   1
TORSDOF 4
ENDMDL
MODEL 2
REMARK VINA RESULT:      10.2      2.204      5.049
REMARK  Name = 7143816
REMARK  5 active torsions:
REMARK  status: ('A' for Active; 'I' for Inactive)
REMARK    1  A    between atoms: S_1  and  N_7
REMARK    2  A    between atoms: S_1  and  C_21
REMARK    3  A    between atoms: N_9  and  C_28
REMARK    4  A    between atoms: C_19  and  C_22
REMARK    5  A    between atoms: C_31  and  C_32
REMARK                            x       y       z     vdW  Elec       q    Type
REMARK                         _______ _______ _______ _____ _____    ______ ____
ROOT
ATOM      4  O   UNL     1      -3.552  -0.207  22.598  0.00  0.00    -0.267 OA
ATOM      7  N   UNL     1      -3.949   3.579  25.816  0.00  0.00    -0.176 NA
ATOM      8  N   UNL     1      -4.607   0.833  24.399  0.00  0.00    -0.311 N 
ATOM     10  C   UNL     1      -5.781   3.100  24.189  0.00  0.00    +0.025 C 
ATOM     11  C   UNL     1      -5.742   1.943  26.355  0.00  0.00    +0.052 C 
ATOM     12  C   UNL     1      -6.661   2.591  25.322  0.00  0.00    +0.017 C 
ATOM     13  C   UNL     1      -4.775   4.141  24.710  0.00  0.00    +0.114 C 
ATOM     14  C   UNL     1      -4.775   2.999  26.918  0.00  0.00    +0.119 C 
ATOM     15  C   UNL     1      -5.092   1.905  23.518  0.00  0.00    +0.130 C 
ATOM     16  C   UNL     1      -4.968   0.788  25.748  0.00  0.00    +0.026 A 
ATOM     17  C   UNL     1      -4.610  -0.261  26.506  0.00  0.00    +0.022 A 
ATOM     18  C   UNL     1      -3.857  -0.194  23.791  0.00  0.00    +0.262 A 
ATOM     19  C   UNL     1      -3.441  -1.339  24.675  0.00  0.00    +0.082 A 
ATOM     20  C   UNL     1      -3.831  -1.336  25.959  0.00  0.00    +0.018 A 
ENDROOT
BRANCH  19  22
ATOM      5  O   UNL     1      -3.152  -3.517  23.506  0.00  0.00    -0.463 OA
ATOM     22  C   UNL     1      -2.616  -2.443  24.155  0.00  0.00    +0.140 A 
ATOM     27  C   UNL     1      -1.242  -2.575  24.226  0.00  0.00    +0.050 A 
ATOM     29  C   UNL     1      -0.923  -3.796  23.586  0.00  0.00    +0.042 A 
ATOM     30  C   UNL     1      -2.119  -4.331  23.165  0.00  0.00    +0.196 A 
ENDBRANCH  19  22
BRANCH   7   1
ATOM      1  S   UNL     1      -2.625   4.542  26.313  0.00  0.00    +0.061 S 
ATOM      2  O   UNL     1      -2.461   4.419  27.746  0.00  0.00    -0.153 OA
ATOM      3  O   UNL     1      -2.727   5.843  25.685  0.00  0.00    -0.153 OA
BRANCH   1  21
ATOM     21  C   UNL     1      -1.299   3.669  25.541  0.00  0.00    +0.106 A 
ATOM     23  C   UNL     1      -0.725   4.187  24.392  0.00  0.00    +0.030 A 
ATOM     24  C   UNL     1      -0.855   2.481  26.099  0.00  0.00    +0.030 A 
ATOM     25  C   UNL     1       0.324   3.497  23.783  0.00  0.00    +0.025 A 
ATOM     26  C   UNL     1       0.193   1.792  25.489  0.00  0.00    +0.025 A 
ATOM     28  C   UNL     1       0.783   2.299  24.331  0.00  0.00    +0.033 A 
BRANCH  28   9
ATOM      6  O   UNL     1       0.780  -0.256  22.737  0.00  0.00    -0.276 OA
ATOM      9  N   UNL     1       1.832   1.610  23.723  0.00  0.00    -0.286 N 
ATOM     31  C   UNL     1       1.774   0.418  22.990  0.00  0.00    +0.214 C 
ATOM     32  C   UNL     1       3.136  -0.002  22.496  0.00  0.00    +0.109 C 
ATOM     33  H   UNL     1       2.750   2.035  23.831  0.00  0.00    +0.155 HD
ENDBRANCH  28   9
ENDBRANCH   1  21
ENDBRANCH   7   1
TORSDOF 4
ENDMDL
MODEL 3
REMARK VINA RESULT:      10.9      2.699      4.095
REMARK  Name = 7143816
REMARK  5 active torsions:
REMARK  status: ('A' for Active; 'I' for Inactive)
REMARK    1  A    between atoms: S_1  and  N_7
REMARK    2  A    between atoms: S_1  and  C_21
REMARK    3  A    between atoms: N_9  and  C_28
REMARK    4  A    between atoms: C_19  and  C_22
REMARK    5  A    between atoms: C_31  and  C_32
REMARK                            x       y       z     vdW  Elec       q    Type
REMARK                         _______ _______ _______ _____ _____    ______ ____
ROOT
ATOM      4  O   UNL     1      -1.647   3.024  28.449  0.00  0.00    -0.267 OA
ATOM      7  N   UNL     1      -3.675   1.080  24.332  0.00  0.00    -0.176 NA
ATOM      8  N   UNL     1      -2.243   3.186  26.201  0.00  0.00    -0.311 N 
ATOM     10  C   UNL     1      -4.677   3.099  25.408  0.00  0.00    +0.025 C 
ATOM     11  C   UNL     1      -2.868   3.364  23.767  0.00  0.00    +0.052 C 
ATOM     12  C   UNL     1      -4.184   3.963  24.255  0.00  0.00    +0.017 C 
ATOM     13  C   UNL     1      -4.911   1.653  24.938  0.00  0.00    +0.114 C 
ATOM     14  C   UNL     1      -3.115   1.938  23.244  0.00  0.00    +0.119 C 
ATOM     15  C   UNL     1      -3.668   3.184  26.560  0.00  0.00    +0.130 C 
ATOM     16  C   UNL     1      -1.832   3.347  24.875  0.00  0.00    +0.026 A 
ATOM     17  C   UNL     1      -0.526   3.464  24.584  0.00  0.00    +0.022 A 
ATOM     18  C   UNL     1      -1.322   3.128  27.266  0.00  0.00    +0.262 A 
ATOM     19  C   UNL     1       0.136   3.225  26.904  0.00  0.00    +0.082 A 
ATOM     20  C   UNL     1       0.469   3.395  25.616  0.00  0.00    +0.018 A 
ENDROOT
BRANCH  19  22
ATOM      5  O   UNL     1       2.367   3.803  27.842  0.00  0.00    -0.463 OA
ATOM     22  C   UNL     1       1.185   3.129  27.934  0.00  0.00    +0.140 A 
ATOM     27  C   UNL     1       1.157   2.388  29.101  0.00  0.00    +0.050 A 
ATOM     29  C   UNL     1       2.389   2.624  29.756  0.00  0.00    +0.042 A 
ATOM     30  C   UNL     1       3.090   3.491  28.950  0.00  0.00    +0.196 A 
ENDBRANCH  19  22
BRANCH   7   1
ATOM      1  S   UNL     1      -3.723  -0.597  24.000  0.00  0.00    +0.061 S 
ATOM      2  O   UNL     1      -4.171  -0.799  22.639  0.00  0.00    -0.153 OA
ATOM      3  O   UNL     1      -4.369  -1.277  25.104  0.00  0.00    -0.153 OA
BRANCH   1  21
ATOM     21  C   UNL     1      -2.000  -0.975  24.063  0.00  0.00    +0.106 A 
ATOM     23  C   UNL     1      -1.586  -2.154  24.661  0.00  0.00    +0.030 A 
ATOM     24  C   UNL     1      -1.091  -0.085  23.514  0.00  0.00    +0.030 A 
ATOM     25  C   UNL     1      -0.224  -2.453  24.710  0.00  0.00    +0.025 A 
ATOM     26  C   UNL     1       0.270  -0.385  23.563  0.00  0.00    +0.025 A 
ATOM     28  C   UNL     1       0.704  -1.568  24.161  0.00  0.00    +0.033 A 
BRANCH  28   9
ATOM      6  O   UNL     1       3.054  -0.197  22.869  0.00  0.00    -0.276 OA
ATOM      9  N   UNL     1       2.066  -1.867  24.209  0.00  0.00    -0.286 N 
ATOM     31  C   UNL     1       3.123  -1.192  23.584  0.00  0.00    +0.214 C 
ATOM     32  C   UNL     1       4.453  -1.836  23.886  0.00  0.00    +0.109 C 
ATOM     33  H   UNL     1       2.312  -2.680  24.770  0.00  0.00    +0.155 HD
ENDBRANCH  28   9
ENDBRANCH   1  21
ENDBRANCH   7   1
TORSDOF 4
ENDMDL
MODEL 4
REMARK VINA RESULT:      10.9      1.853      5.348
REMARK  Name = 7143816
REMARK  5 active torsions:
REMARK  status: ('A' for Active; 'I' for Inactive)
REMARK    1  A    between atoms: S_1  and  N_7
REMARK    2  A    between atoms: S_1  and  C_21
REMARK    3  A    between atoms: N_9  and  C_28
REMARK    4  A    between atoms: C_19  and  C_22
REMARK    5  A    between atoms: C_31  and  C_32
REMARK                            x       y       z     vdW  Elec       q    Type
REMARK                         _______ _______ _______ _____ _____    ______ ____
ROOT
ATOM      4  O   UNL     1      -0.696  -0.604  22.068  0.00  0.00    -0.267 OA
ATOM      7  N   UNL     1      -4.643  -0.205  25.086  0.00  0.00    -0.176 NA
ATOM      8  N   UNL     1      -1.891  -1.269  23.957  0.00  0.00    -0.311 N 
ATOM     10  C   UNL     1      -4.225  -2.315  23.817  0.00  0.00    +0.025 C 
ATOM     11  C   UNL     1      -3.167  -1.981  26.008  0.00  0.00    +0.052 C 
ATOM     12  C   UNL     1      -3.833  -3.019  25.109  0.00  0.00    +0.017 C 
ATOM     13  C   UNL     1      -5.212  -1.171  24.103  0.00  0.00    +0.114 C 
ATOM     14  C   UNL     1      -4.176  -0.867  26.341  0.00  0.00    +0.119 C 
ATOM     15  C   UNL     1      -2.954  -1.828  23.110  0.00  0.00    +0.130 C 
ATOM     16  C   UNL     1      -1.933  -1.397  25.347  0.00  0.00    +0.026 A 
ATOM     17  C   UNL     1      -0.896  -0.983  26.093  0.00  0.00    +0.022 A 
ATOM     18  C   UNL     1      -0.786  -0.701  23.292  0.00  0.00    +0.262 A 
ATOM     19  C   UNL     1       0.345  -0.214  24.158  0.00  0.00    +0.082 A 
ATOM     20  C   UNL     1       0.255  -0.378  25.486  0.00  0.00    +0.018 A 
ENDROOT
BRANCH  19  22
ATOM      5  O   UNL     1       1.754   1.780  23.675  0.00  0.00    -0.463 OA
ATOM     22  C   UNL     1       1.528   0.439  23.571  0.00  0.00    +0.140 A 
ATOM     27  C   UNL     1       2.554  -0.156  22.859  0.00  0.00    +0.050 A 
ATOM     29  C   UNL     1       3.453   0.879  22.511  0.00  0.00    +0.042 A 
ATOM     30  C   UNL     1       2.922   2.038  23.030  0.00  0.00    +0.196 A 
ENDBRANCH  19  22
BRANCH   7   1
ATOM      1  S   UNL     1      -5.530   1.242  25.299  0.00  0.00    +0.061 S 
ATOM      2  O   UNL     1      -6.104   1.254  26.628  0.00  0.00    -0.153 OA
ATOM      3  O   UNL     1      -6.355   1.466  24.130  0.00  0.00    -0.153 OA
BRANCH   1  21
ATOM     21  C   UNL     1      -4.215   2.419  25.269  0.00  0.00    +0.106 A 
ATOM     23  C   UNL     1      -4.385   3.642  25.896  0.00  0.00    +0.030 A 
ATOM     24  C   UNL     1      -3.035   2.099  24.617  0.00  0.00    +0.030 A 
ATOM     25  C   UNL     1      -3.344   4.571  25.873  0.00  0.00    +0.025 A 
ATOM     26  C   UNL     1      -1.995   3.029  24.593  0.00  0.00    +0.025 A 
ATOM     28  C   UNL     1      -2.150   4.265  25.221  0.00  0.00    +0.033 A 
BRANCH  28   9
ATOM      6  O   UNL     1       0.094   4.641  23.247  0.00  0.00    -0.276 OA
ATOM      9  N   UNL     1      -1.109   5.194  25.198  0.00  0.00    -0.286 N 
ATOM     31  C   UNL     1      -0.086   5.324  24.251  0.00  0.00    +0.214 C 
ATOM     32  C   UNL     1       0.847   6.460  24.588  0.00  0.00    +0.109 C 
ATOM     33  H   UNL     1      -1.102   5.856  25.972  0.00  0.00    +0.155 HD
ENDBRANCH  28   9
ENDBRANCH   1  21
ENDBRANCH   7   1
TORSDOF 4
ENDMDL
MODEL 5
REMARK VINA RESULT:      11.4      2.544      4.562
REMARK  Name = 7143816
REMARK  5 active torsions:
REMARK  status: ('A' for Active; 'I' for Inactive)
REMARK    1  A    between atoms: S_1  and  N_7
REMARK    2  A    between atoms: S_1  and  C_21
REMARK    3  A    between atoms: N_9  and  C_28
REMARK    4  A    between atoms: C_19  and  C_22
REMARK    5  A    between atoms: C_31  and  C_32
REMARK                            x       y       z     vdW  Elec       q    Type
REMARK                         _______ _______ _______ _____ _____    ______ ____
ROOT
ATOM      4  O   UNL     1      -3.024   4.274  26.738  0.00  0.00    -0.267 OA
ATOM      7  N   UNL     1      -4.525  -0.308  25.473  0.00  0.00    -0.176 NA
ATOM      8  N   UNL     1      -4.298   2.842  25.409  0.00  0.00    -0.311 N 
ATOM     10  C   UNL     1      -6.156   1.360  26.364  0.00  0.00    +0.025 C 
ATOM     11  C   UNL     1      -5.664   1.302  23.959  0.00  0.00    +0.052 C 
ATOM     12  C   UNL     1      -6.780   1.494  24.982  0.00  0.00    +0.017 C 
ATOM     13  C   UNL     1      -5.528  -0.033  26.541  0.00  0.00    +0.114 C 
ATOM     14  C   UNL     1      -5.077  -0.114  24.099  0.00  0.00    +0.119 C 
ATOM     15  C   UNL     1      -5.137   2.489  26.563  0.00  0.00    +0.130 C 
ATOM     16  C   UNL     1      -4.576   2.344  24.134  0.00  0.00    +0.026 A 
ATOM     17  C   UNL     1      -3.869   2.771  23.075  0.00  0.00    +0.022 A 
ATOM     18  C   UNL     1      -3.275   3.785  25.636  0.00  0.00    +0.262 A 
ATOM     19  C   UNL     1      -2.477   4.216  24.436  0.00  0.00    +0.082 A 
ATOM     20  C   UNL     1      -2.800   3.716  23.233  0.00  0.00    +0.018 A 
ENDROOT
BRANCH  19  22
ATOM      5  O   UNL     1      -1.525   6.452  24.975  0.00  0.00    -0.463 OA
ATOM     22  C   UNL     1      -1.354   5.162  24.566  0.00  0.00    +0.140 A 
ATOM     27  C   UNL     1      -0.016   4.923  24.315  0.00  0.00    +0.050 A 
ATOM     29  C   UNL     1       0.665   6.133  24.586  0.00  0.00    +0.042 A 
ATOM     30  C   UNL     1      -0.297   7.033  24.984  0.00  0.00    +0.196 A 
ENDBRANCH  19  22
BRANCH   7   1
ATOM      1  S   UNL     1      -3.573  -1.712  25.697  0.00  0.00    +0.061 S 
ATOM      2  O   UNL     1      -4.038  -2.747  24.799  0.00  0.00    -0.153 OA
ATOM      3  O   UNL     1      -3.432  -1.965  27.116  0.00  0.00    -0.153 OA
BRANCH   1  21
ATOM     21  C   UNL     1      -2.019  -1.132  25.092  0.00  0.00    +0.106 A 
ATOM     23  C   UNL     1      -1.767   0.229  25.065  0.00  0.00    +0.030 A 
ATOM     24  C   UNL     1      -1.078  -2.051  24.655  0.00  0.00    +0.030 A 
ATOM     25  C   UNL     1      -0.538   0.686  24.588  0.00  0.00    +0.025 A 
ATOM     26  C   UNL     1       0.150  -1.593  24.177  0.00  0.00    +0.025 A 
ATOM     28  C   UNL     1       0.420  -0.225  24.144  0.00  0.00    +0.033 A 
BRANCH  28   9
ATOM      6  O   UNL     1       1.645  -0.408  21.398  0.00  0.00    -0.276 OA
ATOM      9  N   UNL     1       1.650   0.233  23.667  0.00  0.00    -0.286 N 
ATOM     31  C   UNL     1       2.172   0.119  22.373  0.00  0.00    +0.214 C 
ATOM     32  C   UNL     1       3.540   0.746  22.265  0.00  0.00    +0.109 C 
ATOM     33  H   UNL     1       2.231   0.707  24.355  0.00  0.00    +0.155 HD
ENDBRANCH  28   9
ENDBRANCH   1  21
ENDBRANCH   7   1
TORSDOF 4
ENDMDL
MODEL 6
REMARK VINA RESULT:      12.1      2.326      5.847
REMARK  Name = 7143816
REMARK  5 active torsions:
REMARK  status: ('A' for Active; 'I' for Inactive)
REMARK    1  A    between atoms: S_1  and  N_7
REMARK    2  A    between atoms: S_1  and  C_21
REMARK    3  A    between atoms: N_9  and  C_28
REMARK    4  A    between atoms: C_19  and  C_22
REMARK    5  A    between atoms: C_31  and  C_32
REMARK                            x       y       z     vdW  Elec       q    Type
REMARK                         _______ _______ _______ _____ _____    ______ ____
ROOT
ATOM      4  O   UNL     1      -0.318   2.472  22.865  0.00  0.00    -0.267 OA
ATOM      7  N   UNL     1      -2.142  -1.890  24.442  0.00  0.00    -0.176 NA
ATOM      8  N   UNL     1      -0.225   0.615  24.273  0.00  0.00    -0.311 N 
ATOM     10  C   UNL     1       0.122  -1.766  23.395  0.00  0.00    +0.025 C 
ATOM     11  C   UNL     1      -0.127  -1.379  25.808  0.00  0.00    +0.052 C 
ATOM     12  C   UNL     1       0.767  -2.021  24.751  0.00  0.00    +0.017 C 
ATOM     13  C   UNL     1      -1.279  -2.397  23.337  0.00  0.00    +0.114 C 
ATOM     14  C   UNL     1      -1.511  -2.053  25.787  0.00  0.00    +0.119 C 
ATOM     15  C   UNL     1       0.094  -0.255  23.132  0.00  0.00    +0.130 C 
ATOM     16  C   UNL     1      -0.263   0.113  25.576  0.00  0.00    +0.026 A 
ATOM     17  C   UNL     1      -0.441   0.947  26.613  0.00  0.00    +0.022 A 
ATOM     18  C   UNL     1      -0.381   1.988  23.996  0.00  0.00    +0.262 A 
ATOM     19  C   UNL     1      -0.615   2.892  25.176  0.00  0.00    +0.082 A 
ATOM     20  C   UNL     1      -0.625   2.356  26.406  0.00  0.00    +0.018 A 
ENDROOT
BRANCH  19  22
ATOM      5  O   UNL     1       0.040   5.138  24.327  0.00  0.00    -0.463 OA
ATOM     22  C   UNL     1      -0.838   4.338  24.997  0.00  0.00    +0.140 A 
ATOM     27  C   UNL     1      -1.908   5.089  25.446  0.00  0.00    +0.050 A 
ATOM     29  C   UNL     1      -1.669   6.418  25.027  0.00  0.00    +0.042 A 
ATOM     30  C   UNL     1      -0.471   6.397  24.350  0.00  0.00    +0.196 A 
ENDBRANCH  19  22
BRANCH   7   1
ATOM      1  S   UNL     1      -3.796  -2.316  24.345  0.00  0.00    +0.061 S 
ATOM      2  O   UNL     1      -4.129  -3.180  25.457  0.00  0.00    -0.153 OA
ATOM      3  O   UNL     1      -4.103  -2.704  22.984  0.00  0.00    -0.153 OA
BRANCH   1  21
ATOM     21  C   UNL     1      -4.539  -0.743  24.642  0.00  0.00    +0.106 A 
ATOM     23  C   UNL     1      -5.861  -0.539  24.284  0.00  0.00    +0.030 A 
ATOM     24  C   UNL     1      -3.786   0.261  25.229  0.00  0.00    +0.030 A 
ATOM     25  C   UNL     1      -6.449   0.704  24.521  0.00  0.00    +0.025 A 
ATOM     26  C   UNL     1      -4.374   1.504  25.465  0.00  0.00    +0.025 A 
ATOM     28  C   UNL     1      -5.705   1.726  25.111  0.00  0.00    +0.033 A 
BRANCH  28   9
ATOM      6  O   UNL     1      -4.502   4.486  25.129  0.00  0.00    -0.276 OA
ATOM      9  N   UNL     1      -6.293   2.969  25.348  0.00  0.00    -0.286 N 
ATOM     31  C   UNL     1      -5.682   4.229  25.345  0.00  0.00    +0.214 C 
ATOM     32  C   UNL     1      -6.668   5.329  25.650  0.00  0.00    +0.109 C 
ATOM     33  H   UNL     1      -7.290   2.945  25.548  0.00  0.00    +0.155 HD
ENDBRANCH  28   9
ENDBRANCH   1  21
ENDBRANCH   7   1
TORSDOF 4
ENDMDL
MODEL 7
REMARK VINA RESULT:      12.2      1.993      2.979
REMARK  Name = 7143816
REMARK  5 active torsions:
REMARK  status: ('A' for Active; 'I' for Inactive)
REMARK    1  A    between atoms: S_1  and  N_7
REMARK    2  A    between atoms: S_1  and  C_21
REMARK    3  A    between atoms: N_9  and  C_28
REMARK    4  A    between atoms: C_19  and  C_22
REMARK    5  A    between atoms: C_31  and  C_32
REMARK                            x       y       z     vdW  Elec       q    Type
REMARK                         _______ _______ _______ _____ _____    ______ ____
ROOT
ATOM      4  O   UNL     1      -1.691   4.232  28.105  0.00  0.00    -0.267 OA
ATOM      7  N   UNL     1      -4.952   2.423  24.798  0.00  0.00    -0.176 NA
ATOM      8  N   UNL     1      -2.421   3.953  25.908  0.00  0.00    -0.311 N 
ATOM     10  C   UNL     1      -4.652   4.888  25.065  0.00  0.00    +0.025 C 
ATOM     11  C   UNL     1      -3.193   3.641  23.531  0.00  0.00    +0.052 C 
ATOM     12  C   UNL     1      -3.952   4.953  23.714  0.00  0.00    +0.017 C 
ATOM     13  C   UNL     1      -5.640   3.710  25.106  0.00  0.00    +0.114 C 
ATOM     14  C   UNL     1      -4.190   2.469  23.514  0.00  0.00    +0.119 C 
ATOM     15  C   UNL     1      -3.592   4.801  26.170  0.00  0.00    +0.130 C 
ATOM     16  C   UNL     1      -2.167   3.446  24.631  0.00  0.00    +0.026 A 
ATOM     17  C   UNL     1      -1.032   2.772  24.387  0.00  0.00    +0.022 A 
ATOM     18  C   UNL     1      -1.520   3.770  26.976  0.00  0.00    +0.262 A 
ATOM     19  C   UNL     1      -0.274   2.980  26.681  0.00  0.00    +0.082 A 
ATOM     20  C   UNL     1      -0.077   2.532  25.432  0.00  0.00    +0.018 A 
ENDROOT
BRANCH  19  22
ATOM      5  O   UNL     1       2.010   3.107  27.663  0.00  0.00    -0.463 OA
ATOM     22  C   UNL     1       0.713   2.689  27.736  0.00  0.00    +0.140 A 
ATOM     27  C   UNL     1       0.511   1.990  28.912  0.00  0.00    +0.050 A 
ATOM     29  C   UNL     1       1.752   1.981  29.591  0.00  0.00    +0.042 A 
ATOM     30  C   UNL     1       2.632   2.673  28.790  0.00  0.00    +0.196 A 
ENDBRANCH  19  22
BRANCH   7   1
ATOM      1  S   UNL     1      -5.879   1.009  25.058  0.00  0.00    +0.061 S 
ATOM      2  O   UNL     1      -6.696   0.756  23.890  0.00  0.00    -0.153 OA
ATOM      3  O   UNL     1      -6.469   1.068  26.380  0.00  0.00    -0.153 OA
BRANCH   1  21
ATOM     21  C   UNL     1      -4.595  -0.202  25.091  0.00  0.00    +0.106 A 
ATOM     23  C   UNL     1      -3.596  -0.105  26.045  0.00  0.00    +0.030 A 
ATOM     24  C   UNL     1      -4.609  -1.228  24.160  0.00  0.00    +0.030 A 
ATOM     25  C   UNL     1      -2.582  -1.063  26.070  0.00  0.00    +0.025 A 
ATOM     26  C   UNL     1      -3.595  -2.185  24.186  0.00  0.00    +0.025 A 
ATOM     28  C   UNL     1      -2.581  -2.103  25.141  0.00  0.00    +0.033 A 
BRANCH  28   9
ATOM      6  O   UNL     1       0.406  -1.784  25.346  0.00  0.00    -0.276 OA
ATOM      9  N   UNL     1      -1.567  -3.062  25.167  0.00  0.00    -0.286 N 
ATOM     31  C   UNL     1      -0.185  -2.856  25.263  0.00  0.00    +0.214 C 
ATOM     32  C   UNL     1       0.575  -4.158  25.260  0.00  0.00    +0.109 C 
ATOM     33  H   UNL     1      -1.882  -4.027  25.109  0.00  0.00    +0.155 HD
ENDBRANCH  28   9
ENDBRANCH   1  21
ENDBRANCH   7   1
TORSDOF 4
ENDMDL
