MODEL 1
REMARK VINA RESULT:       3.9      0.000      0.000
REMARK  Name = 11941501
REMARK  5 active torsions:
REMARK  status: ('A' for Active; 'I' for Inactive)
REMARK    1  A    between atoms: S_1  and  C_21
REMARK    2  A    between atoms: S_1  and  C_27
REMARK    3  A    between atoms: N_7  and  C_9
REMARK    4  A    between atoms: C_17  and  C_21
REMARK    5  A    between atoms: C_20  and  C_23
REMARK                            x       y       z     vdW  Elec       q    Type
REMARK                         _______ _______ _______ _____ _____    ______ ____
ROOT
ATOM      3  O   UNL     1      -4.957  -0.449  25.449  0.00  0.00    -0.273 OA
ATOM      4  O   UNL     1      -1.838   1.613  21.737  0.00  0.00    -0.270 OA
ATOM      6  N   UNL     1      -3.253   1.636  23.549  0.00  0.00    -0.284 N 
ATOM      8  N   UNL     1      -2.790  -0.921  24.930  0.00  0.00    -0.283 N 
ATOM      9  C   UNL     1      -4.712   2.353  25.269  0.00  0.00    +0.104 C 
ATOM     10  C   UNL     1      -3.526   1.428  24.959  0.00  0.00    +0.183 C 
ATOM     11  C   UNL     1      -5.423   2.482  23.919  0.00  0.00    +0.043 C 
ATOM     12  C   UNL     1      -4.281   2.450  22.916  0.00  0.00    +0.111 C 
ATOM     13  C   UNL     1      -3.845  -0.049  25.101  0.00  0.00    +0.240 C 
ATOM     14  C   UNL     1      -2.098   1.274  22.891  0.00  0.00    +0.249 C 
ATOM     15  C   UNL     1      -1.125   0.410  23.610  0.00  0.00    +0.059 A 
ATOM     16  C   UNL     1      -1.485  -0.643  24.468  0.00  0.00    +0.046 A 
ATOM     18  C   UNL     1       0.224   0.578  23.250  0.00  0.00    +0.023 A 
ATOM     19  C   UNL     1      -0.491  -1.542  24.893  0.00  0.00    +0.024 A 
ATOM     20  C   UNL     1       1.204  -0.295  23.720  0.00  0.00    -0.017 A 
ATOM     22  C   UNL     1       0.845  -1.363  24.532  0.00  0.00    +0.010 A 
ATOM     29  H   UNL     1      -2.953  -1.870  25.256  0.00  0.00    +0.155 HD
ENDROOT
BRANCH  20  23
ATOM      2  S   UNL     1       5.096  -0.580  23.135  0.00  0.00    -0.104 S 
ATOM     23  C   UNL     1       2.577  -0.105  23.346  0.00  0.00    -0.011 A 
ATOM     24  C   UNL     1       3.127   0.985  22.608  0.00  0.00    +0.016 A 
ATOM     25  C   UNL     1       3.542  -1.027  23.694  0.00  0.00    +0.053 A 
ATOM     26  C   UNL     1       4.486   0.854  22.422  0.00  0.00    +0.046 A 
ENDBRANCH  20  23
BRANCH   9   7
ATOM      5  O   UNL     1      -2.022   3.073  26.056  0.00  0.00    -0.275 OA
ATOM      7  N   UNL     1      -4.255   3.638  25.744  0.00  0.00    -0.309 N 
ATOM     17  C   UNL     1      -2.940   3.890  26.100  0.00  0.00    +0.223 C 
ATOM     28  H   UNL     1      -4.922   4.405  25.763  0.00  0.00    +0.149 HD
BRANCH  17  21
ATOM     21  C   UNL     1      -2.721   5.305  26.583  0.00  0.00    +0.164 C 
BRANCH  21   1
ATOM      1  S   UNL     1      -1.978   6.272  25.247  0.00  0.00    -0.155 S 
ATOM     27  C   UNL     1      -0.720   5.083  24.722  0.00  0.00    +0.085 C 
ENDBRANCH  21   1
ENDBRANCH  17  21
ENDBRANCH   9   7
TORSDOF 4
ENDMDL
