MODEL 1
REMARK VINA RESULT:      -4.7      0.000      0.000
REMARK  Name = 75536777
REMARK  7 active torsions:
REMARK  status: ('A' for Active; 'I' for Inactive)
REMARK    1  A    between atoms: O_2  and  C_9
REMARK    2  A    between atoms: N_4  and  C_8
REMARK    3  A    between atoms: N_4  and  C_13
REMARK    4  A    between atoms: N_5  and  C_12
REMARK    5  A    between atoms: N_6  and  C_19
REMARK    6  A    between atoms: C_10  and  C_12
REMARK    7  A    between atoms: C_13  and  C_14
REMARK                            x       y       z     vdW  Elec       q    Type
REMARK                         _______ _______ _______ _____ _____    ______ ____
ROOT
ATOM      1  O   UNL     1      -4.682   0.052  25.161  0.00  0.00    -0.371 OA
ATOM      8  C   UNL     1      -4.754   2.255  24.275  0.00  0.00    +0.111 C 
ATOM      9  C   UNL     1      -3.422   1.623  23.919  0.00  0.00    +0.164 C 
ATOM     10  C   UNL     1      -3.750   0.143  24.070  0.00  0.00    +0.165 C 
ATOM     11  C   UNL     1      -5.216   1.363  25.416  0.00  0.00    +0.181 C 
ENDROOT
BRANCH   9   2
ATOM      2  O   UNL     1      -3.001   1.938  22.607  0.00  0.00    -0.388 OA
ATOM     27  H   UNL     1      -2.857   2.898  22.553  0.00  0.00    +0.210 HD
ENDBRANCH   9   2
BRANCH   8   4
ATOM      4  N   UNL     1      -4.653   3.655  24.656  0.00  0.00    -0.305 NA
ATOM     26  H   UNL     1      -5.592   4.033  24.785  0.00  0.00    +0.123 HD
BRANCH   4  13
ATOM     13  C   UNL     1      -3.909   3.807  25.901  0.00  0.00    +0.118 C 
BRANCH  13  14
ATOM      7  N   UNL     1      -0.330   2.577  25.983  0.00  0.00    -0.263 NA
ATOM     14  C   UNL     1      -2.422   3.750  25.676  0.00  0.00    -0.015 A 
ATOM     16  C   UNL     1      -1.761   4.760  24.985  0.00  0.00    +0.008 A 
ATOM     17  C   UNL     1      -1.667   2.689  26.151  0.00  0.00    +0.115 A 
ATOM     18  C   UNL     1      -0.387   4.680  24.793  0.00  0.00    +0.020 A 
ATOM     20  C   UNL     1       0.276   3.578  25.307  0.00  0.00    +0.111 A 
ENDBRANCH  13  14
ENDBRANCH   4  13
ENDBRANCH   8   4
BRANCH  10  12
ATOM     12  C   UNL     1      -2.531  -0.714  24.363  0.00  0.00    +0.140 C 
BRANCH  12   5
ATOM      3  O   UNL     1       0.206  -1.279  24.991  0.00  0.00    -0.253 OA
ATOM      5  N   UNL     1      -1.374  -0.231  23.666  0.00  0.00    -0.297 N 
ATOM      6  N   UNL     1       0.859   0.061  23.177  0.00  0.00    -0.269 N 
ATOM     15  C   UNL     1      -0.059  -0.553  24.036  0.00  0.00    +0.304 C 
ATOM     28  H   UNL     1      -1.516   0.387  22.872  0.00  0.00    +0.150 HD
ATOM     29  H   UNL     1       0.472   0.634  22.432  0.00  0.00    +0.156 HD
BRANCH   6  19
ATOM     19  C   UNL     1       2.270  -0.017  23.217  0.00  0.00    +0.035 A 
ATOM     21  C   UNL     1       3.040   1.083  22.836  0.00  0.00    +0.023 A 
ATOM     22  C   UNL     1       2.893  -1.192  23.636  0.00  0.00    +0.023 A 
ATOM     23  C   UNL     1       4.432   1.007  22.874  0.00  0.00    +0.002 A 
ATOM     24  C   UNL     1       4.285  -1.268  23.675  0.00  0.00    +0.002 A 
ATOM     25  C   UNL     1       5.055  -0.169  23.294  0.00  0.00    +0.000 A 
ENDBRANCH   6  19
ENDBRANCH  12   5
ENDBRANCH  10  12
TORSDOF 7
ENDMDL
MODEL 2
REMARK VINA RESULT:      -4.3      1.960      4.010
REMARK  Name = 75536777
REMARK  7 active torsions:
REMARK  status: ('A' for Active; 'I' for Inactive)
REMARK    1  A    between atoms: O_2  and  C_9
REMARK    2  A    between atoms: N_4  and  C_8
REMARK    3  A    between atoms: N_4  and  C_13
REMARK    4  A    between atoms: N_5  and  C_12
REMARK    5  A    between atoms: N_6  and  C_19
REMARK    6  A    between atoms: C_10  and  C_12
REMARK    7  A    between atoms: C_13  and  C_14
REMARK                            x       y       z     vdW  Elec       q    Type
REMARK                         _______ _______ _______ _____ _____    ______ ____
ROOT
ATOM      1  O   UNL     1      -3.003   3.711  23.684  0.00  0.00    -0.371 OA
ATOM      8  C   UNL     1      -4.958   2.611  24.468  0.00  0.00    +0.111 C 
ATOM      9  C   UNL     1      -4.081   2.967  25.654  0.00  0.00    +0.164 C 
ATOM     10  C   UNL     1      -3.216   4.071  25.060  0.00  0.00    +0.165 C 
ATOM     11  C   UNL     1      -3.965   2.704  23.321  0.00  0.00    +0.181 C 
ENDROOT
BRANCH   9   2
ATOM      2  O   UNL     1      -4.826   3.423  26.766  0.00  0.00    -0.388 OA
ATOM     27  H   UNL     1      -4.683   4.380  26.859  0.00  0.00    +0.210 HD
ENDBRANCH   9   2
BRANCH   8   4
ATOM      4  N   UNL     1      -5.580   1.301  24.574  0.00  0.00    -0.305 NA
ATOM     26  H   UNL     1      -5.427   0.790  23.704  0.00  0.00    +0.123 HD
BRANCH   4  13
ATOM     13  C   UNL     1      -5.008   0.536  25.676  0.00  0.00    +0.118 C 
BRANCH  13  14
ATOM      7  N   UNL     1      -1.626  -1.073  25.123  0.00  0.00    -0.263 NA
ATOM     14  C   UNL     1      -3.956  -0.430  25.200  0.00  0.00    -0.015 A 
ATOM     16  C   UNL     1      -4.293  -1.535  24.427  0.00  0.00    +0.008 A 
ATOM     17  C   UNL     1      -2.620  -0.245  25.517  0.00  0.00    +0.115 A 
ATOM     18  C   UNL     1      -3.300  -2.409  24.002  0.00  0.00    +0.020 A 
ATOM     20  C   UNL     1      -1.994  -2.136  24.373  0.00  0.00    +0.111 A 
ENDBRANCH  13  14
ENDBRANCH   4  13
ENDBRANCH   8   4
BRANCH  10  12
ATOM     12  C   UNL     1      -1.880   4.229  25.762  0.00  0.00    +0.140 C 
BRANCH  12   5
ATOM      3  O   UNL     1      -0.224   3.612  23.508  0.00  0.00    -0.253 OA
ATOM      5  N   UNL     1      -1.060   3.064  25.593  0.00  0.00    -0.297 N 
ATOM      6  N   UNL     1       0.414   1.618  24.570  0.00  0.00    -0.269 N 
ATOM     15  C   UNL     1      -0.273   2.831  24.455  0.00  0.00    +0.304 C 
ATOM     28  H   UNL     1      -1.062   2.366  26.331  0.00  0.00    +0.150 HD
ATOM     29  H   UNL     1       0.261   1.087  25.423  0.00  0.00    +0.156 HD
BRANCH   6  19
ATOM     19  C   UNL     1       1.303   1.032  23.640  0.00  0.00    +0.035 A 
ATOM     21  C   UNL     1       0.853   0.026  22.784  0.00  0.00    +0.023 A 
ATOM     22  C   UNL     1       2.629   1.460  23.576  0.00  0.00    +0.023 A 
ATOM     23  C   UNL     1       1.730  -0.552  21.865  0.00  0.00    +0.002 A 
ATOM     24  C   UNL     1       3.505   0.882  22.658  0.00  0.00    +0.002 A 
ATOM     25  C   UNL     1       3.056  -0.123  21.802  0.00  0.00    +0.000 A 
ENDBRANCH   6  19
ENDBRANCH  12   5
ENDBRANCH  10  12
TORSDOF 7
ENDMDL
MODEL 3
REMARK VINA RESULT:      -4.1      2.321      5.495
REMARK  Name = 75536777
REMARK  7 active torsions:
REMARK  status: ('A' for Active; 'I' for Inactive)
REMARK    1  A    between atoms: O_2  and  C_9
REMARK    2  A    between atoms: N_4  and  C_8
REMARK    3  A    between atoms: N_4  and  C_13
REMARK    4  A    between atoms: N_5  and  C_12
REMARK    5  A    between atoms: N_6  and  C_19
REMARK    6  A    between atoms: C_10  and  C_12
REMARK    7  A    between atoms: C_13  and  C_14
REMARK                            x       y       z     vdW  Elec       q    Type
REMARK                         _______ _______ _______ _____ _____    ______ ____
ROOT
ATOM      1  O   UNL     1      -3.738   4.289  26.836  0.00  0.00    -0.371 OA
ATOM      8  C   UNL     1      -2.020   4.585  25.221  0.00  0.00    +0.111 C 
ATOM      9  C   UNL     1      -3.301   4.185  24.514  0.00  0.00    +0.164 C 
ATOM     10  C   UNL     1      -4.344   4.556  25.560  0.00  0.00    +0.165 C 
ATOM     11  C   UNL     1      -2.318   4.154  26.649  0.00  0.00    +0.181 C 
ENDROOT
BRANCH   9   2
ATOM      2  O   UNL     1      -3.498   4.886  23.302  0.00  0.00    -0.388 OA
ATOM     27  H   UNL     1      -3.462   5.839  23.491  0.00  0.00    +0.210 HD
ENDBRANCH   9   2
BRANCH   8   4
ATOM      4  N   UNL     1      -0.830   3.953  24.676  0.00  0.00    -0.305 NA
ATOM     26  H   UNL     1      -0.094   4.654  24.585  0.00  0.00    +0.123 HD
BRANCH   4  13
ATOM     13  C   UNL     1      -0.357   2.884  25.548  0.00  0.00    +0.118 C 
BRANCH  13  14
ATOM      7  N   UNL     1       1.340   0.534  23.113  0.00  0.00    -0.263 NA
ATOM     14  C   UNL     1      -0.029   1.635  24.774  0.00  0.00    -0.015 A 
ATOM     16  C   UNL     1      -0.745   0.459  24.973  0.00  0.00    +0.008 A 
ATOM     17  C   UNL     1       0.995   1.620  23.840  0.00  0.00    +0.115 A 
ATOM     18  C   UNL     1      -0.420  -0.678  24.243  0.00  0.00    +0.020 A 
ATOM     20  C   UNL     1       0.621  -0.589  23.334  0.00  0.00    +0.111 A 
ENDBRANCH  13  14
ENDBRANCH   4  13
ENDBRANCH   8   4
BRANCH  10  12
ATOM     12  C   UNL     1      -5.633   3.766  25.429  0.00  0.00    +0.140 C 
BRANCH  12   5
ATOM      3  O   UNL     1      -4.296   1.719  23.937  0.00  0.00    -0.253 OA
ATOM      5  N   UNL     1      -5.449   2.398  25.823  0.00  0.00    -0.297 N 
ATOM      6  N   UNL     1      -4.757   0.206  25.672  0.00  0.00    -0.269 N 
ATOM     15  C   UNL     1      -4.780   1.450  25.034  0.00  0.00    +0.304 C 
ATOM     28  H   UNL     1      -5.836   2.100  26.713  0.00  0.00    +0.150 HD
ATOM     29  H   UNL     1      -5.207   0.152  26.582  0.00  0.00    +0.156 HD
BRANCH   6  19
ATOM     19  C   UNL     1      -4.179  -0.998  25.205  0.00  0.00    +0.035 A 
ATOM     21  C   UNL     1      -4.470  -1.457  23.920  0.00  0.00    +0.023 A 
ATOM     22  C   UNL     1      -3.320  -1.725  26.028  0.00  0.00    +0.023 A 
ATOM     23  C   UNL     1      -3.901  -2.645  23.459  0.00  0.00    +0.002 A 
ATOM     24  C   UNL     1      -2.751  -2.912  25.567  0.00  0.00    +0.002 A 
ATOM     25  C   UNL     1      -3.041  -3.372  24.283  0.00  0.00    +0.000 A 
ENDBRANCH   6  19
ENDBRANCH  12   5
ENDBRANCH  10  12
TORSDOF 7
ENDMDL
MODEL 4
REMARK VINA RESULT:      -2.9      2.519      6.023
REMARK  Name = 75536777
REMARK  7 active torsions:
REMARK  status: ('A' for Active; 'I' for Inactive)
REMARK    1  A    between atoms: O_2  and  C_9
REMARK    2  A    between atoms: N_4  and  C_8
REMARK    3  A    between atoms: N_4  and  C_13
REMARK    4  A    between atoms: N_5  and  C_12
REMARK    5  A    between atoms: N_6  and  C_19
REMARK    6  A    between atoms: C_10  and  C_12
REMARK    7  A    between atoms: C_13  and  C_14
REMARK                            x       y       z     vdW  Elec       q    Type
REMARK                         _______ _______ _______ _____ _____    ______ ____
ROOT
ATOM      1  O   UNL     1      -1.369  -2.431  23.449  0.00  0.00    -0.371 OA
ATOM      8  C   UNL     1      -0.369  -1.076  25.126  0.00  0.00    +0.111 C 
ATOM      9  C   UNL     1      -1.850  -1.219  25.423  0.00  0.00    +0.164 C 
ATOM     10  C   UNL     1      -2.190  -2.473  24.628  0.00  0.00    +0.165 C 
ATOM     11  C   UNL     1      -0.317  -1.472  23.659  0.00  0.00    +0.181 C 
ENDROOT
BRANCH   9   2
ATOM      2  O   UNL     1      -2.118  -1.380  26.802  0.00  0.00    -0.388 OA
ATOM     27  H   UNL     1      -2.906  -1.941  26.897  0.00  0.00    +0.210 HD
ENDBRANCH   9   2
BRANCH   8   4
ATOM      4  N   UNL     1       0.150   0.260  25.370  0.00  0.00    -0.305 NA
ATOM     26  H   UNL     1       1.156   0.201  25.532  0.00  0.00    +0.123 HD
BRANCH   4  13
ATOM     13  C   UNL     1      -0.094   1.135  24.229  0.00  0.00    +0.118 C 
BRANCH  13  14
ATOM      7  N   UNL     1      -0.654   4.878  24.308  0.00  0.00    -0.263 NA
ATOM     14  C   UNL     1      -0.600   2.486  24.659  0.00  0.00    -0.015 A 
ATOM     16  C   UNL     1      -1.446   2.621  25.754  0.00  0.00    +0.008 A 
ATOM     17  C   UNL     1      -0.237   3.636  23.976  0.00  0.00    +0.115 A 
ATOM     18  C   UNL     1      -1.896   3.882  26.127  0.00  0.00    +0.020 A 
ATOM     20  C   UNL     1      -1.475   4.968  25.379  0.00  0.00    +0.111 A 
ENDBRANCH  13  14
ENDBRANCH   4  13
ENDBRANCH   8   4
BRANCH  10  12
ATOM     12  C   UNL     1      -3.653  -2.554  24.232  0.00  0.00    +0.140 C 
BRANCH  12   5
ATOM      3  O   UNL     1      -3.240   0.201  23.567  0.00  0.00    -0.253 OA
ATOM      5  N   UNL     1      -4.392  -1.431  24.733  0.00  0.00    -0.297 N 
ATOM      6  N   UNL     1      -5.005   0.773  25.005  0.00  0.00    -0.269 N 
ATOM     15  C   UNL     1      -4.129  -0.104  24.358  0.00  0.00    +0.304 C 
ATOM     28  H   UNL     1      -5.135  -1.606  25.403  0.00  0.00    +0.150 HD
ATOM     29  H   UNL     1      -5.687   0.356  25.633  0.00  0.00    +0.156 HD
BRANCH   6  19
ATOM     19  C   UNL     1      -5.062   2.182  24.893  0.00  0.00    +0.035 A 
ATOM     21  C   UNL     1      -5.813   2.924  25.806  0.00  0.00    +0.023 A 
ATOM     22  C   UNL     1      -4.370   2.830  23.871  0.00  0.00    +0.023 A 
ATOM     23  C   UNL     1      -5.869   4.314  25.696  0.00  0.00    +0.002 A 
ATOM     24  C   UNL     1      -4.426   4.219  23.761  0.00  0.00    +0.002 A 
ATOM     25  C   UNL     1      -5.176   4.961  24.674  0.00  0.00    +0.000 A 
ENDBRANCH   6  19
ENDBRANCH  12   5
ENDBRANCH  10  12
TORSDOF 7
ENDMDL
MODEL 5
REMARK VINA RESULT:      -2.8      2.652      4.897
REMARK  Name = 75536777
REMARK  7 active torsions:
REMARK  status: ('A' for Active; 'I' for Inactive)
REMARK    1  A    between atoms: O_2  and  C_9
REMARK    2  A    between atoms: N_4  and  C_8
REMARK    3  A    between atoms: N_4  and  C_13
REMARK    4  A    between atoms: N_5  and  C_12
REMARK    5  A    between atoms: N_6  and  C_19
REMARK    6  A    between atoms: C_10  and  C_12
REMARK    7  A    between atoms: C_13  and  C_14
REMARK                            x       y       z     vdW  Elec       q    Type
REMARK                         _______ _______ _______ _____ _____    ______ ____
ROOT
ATOM      1  O   UNL     1      -1.850  -1.665  26.471  0.00  0.00    -0.371 OA
ATOM      8  C   UNL     1      -3.717  -2.133  25.077  0.00  0.00    +0.111 C 
ATOM      9  C   UNL     1      -2.450  -2.201  24.246  0.00  0.00    +0.164 C 
ATOM     10  C   UNL     1      -1.399  -2.412  25.328  0.00  0.00    +0.165 C 
ATOM     11  C   UNL     1      -3.241  -1.345  26.288  0.00  0.00    +0.181 C 
ENDROOT
BRANCH   9   2
ATOM      2  O   UNL     1      -2.465  -3.262  23.312  0.00  0.00    -0.388 OA
ATOM     27  H   UNL     1      -3.311  -3.734  23.399  0.00  0.00    +0.210 HD
ENDBRANCH   9   2
BRANCH   8   4
ATOM      4  N   UNL     1      -4.832  -1.499  24.393  0.00  0.00    -0.305 NA
ATOM     26  H   UNL     1      -5.521  -1.202  25.084  0.00  0.00    +0.123 HD
BRANCH   4  13
ATOM     13  C   UNL     1      -4.389  -0.332  23.638  0.00  0.00    +0.118 C 
BRANCH  13  14
ATOM      7  N   UNL     1      -5.999   2.084  26.067  0.00  0.00    -0.263 NA
ATOM     14  C   UNL     1      -4.751   0.954  24.331  0.00  0.00    -0.015 A 
ATOM     16  C   UNL     1      -4.214   2.168  23.919  0.00  0.00    +0.008 A 
ATOM     17  C   UNL     1      -5.632   0.966  25.401  0.00  0.00    +0.115 A 
ATOM     18  C   UNL     1      -4.567   3.339  24.578  0.00  0.00    +0.020 A 
ATOM     20  C   UNL     1      -5.455   3.245  25.636  0.00  0.00    +0.111 A 
ENDBRANCH  13  14
ENDBRANCH   4  13
ENDBRANCH   8   4
BRANCH  10  12
ATOM     12  C   UNL     1      -0.015  -1.940  24.920  0.00  0.00    +0.140 C 
BRANCH  12   5
ATOM      3  O   UNL     1      -1.349   0.421  23.998  0.00  0.00    -0.253 OA
ATOM      5  N   UNL     1       0.226  -0.593  25.354  0.00  0.00    -0.297 N 
ATOM      6  N   UNL     1      -0.024   1.695  25.458  0.00  0.00    -0.269 N 
ATOM     15  C   UNL     1      -0.472   0.517  24.853  0.00  0.00    +0.304 C 
ATOM     28  H   UNL     1       0.949  -0.436  26.050  0.00  0.00    +0.150 HD
ATOM     29  H   UNL     1       0.715   1.599  26.150  0.00  0.00    +0.156 HD
BRANCH   6  19
ATOM     19  C   UNL     1      -0.474   3.016  25.226  0.00  0.00    +0.035 A 
ATOM     21  C   UNL     1       0.095   3.776  24.205  0.00  0.00    +0.023 A 
ATOM     22  C   UNL     1      -1.487   3.557  26.017  0.00  0.00    +0.023 A 
ATOM     23  C   UNL     1      -0.349   5.079  23.975  0.00  0.00    +0.002 A 
ATOM     24  C   UNL     1      -1.931   4.859  25.787  0.00  0.00    +0.002 A 
ATOM     25  C   UNL     1      -1.362   5.620  24.766  0.00  0.00    +0.000 A 
ENDBRANCH   6  19
ENDBRANCH  12   5
ENDBRANCH  10  12
TORSDOF 7
ENDMDL
MODEL 6
REMARK VINA RESULT:      -2.8      2.257      5.459
REMARK  Name = 75536777
REMARK  7 active torsions:
REMARK  status: ('A' for Active; 'I' for Inactive)
REMARK    1  A    between atoms: O_2  and  C_9
REMARK    2  A    between atoms: N_4  and  C_8
REMARK    3  A    between atoms: N_4  and  C_13
REMARK    4  A    between atoms: N_5  and  C_12
REMARK    5  A    between atoms: N_6  and  C_19
REMARK    6  A    between atoms: C_10  and  C_12
REMARK    7  A    between atoms: C_13  and  C_14
REMARK                            x       y       z     vdW  Elec       q    Type
REMARK                         _______ _______ _______ _____ _____    ______ ____
ROOT
ATOM      1  O   UNL     1       0.085   3.873  23.604  0.00  0.00    -0.371 OA
ATOM      8  C   UNL     1      -0.866   3.961  25.779  0.00  0.00    +0.111 C 
ATOM      9  C   UNL     1      -0.065   2.680  25.641  0.00  0.00    +0.164 C 
ATOM     10  C   UNL     1       0.855   3.032  24.480  0.00  0.00    +0.165 C 
ATOM     11  C   UNL     1      -1.066   4.350  24.323  0.00  0.00    +0.181 C 
ENDROOT
BRANCH   9   2
ATOM      2  O   UNL     1       0.662   2.361  26.811  0.00  0.00    -0.388 OA
ATOM     27  H   UNL     1       0.185   2.725  27.576  0.00  0.00    +0.210 HD
ENDBRANCH   9   2
BRANCH   8   4
ATOM      4  N   UNL     1      -2.119   3.792  26.497  0.00  0.00    -0.305 NA
ATOM     26  H   UNL     1      -2.043   4.243  27.409  0.00  0.00    +0.123 HD
BRANCH   4  13
ATOM     13  C   UNL     1      -3.228   4.393  25.766  0.00  0.00    +0.118 C 
BRANCH  13  14
ATOM      7  N   UNL     1      -6.344   2.309  26.295  0.00  0.00    -0.263 NA
ATOM     14  C   UNL     1      -4.334   3.404  25.514  0.00  0.00    -0.015 A 
ATOM     16  C   UNL     1      -4.395   2.682  24.327  0.00  0.00    +0.008 A 
ATOM     17  C   UNL     1      -5.325   3.182  26.457  0.00  0.00    +0.115 A 
ATOM     18  C   UNL     1      -5.427   1.774  24.123  0.00  0.00    +0.020 A 
ATOM     20  C   UNL     1      -6.368   1.626  25.129  0.00  0.00    +0.111 A 
ENDBRANCH  13  14
ENDBRANCH   4  13
ENDBRANCH   8   4
BRANCH  10  12
ATOM     12  C   UNL     1       1.353   1.817  23.718  0.00  0.00    +0.140 C 
BRANCH  12   5
ATOM      3  O   UNL     1      -1.305   0.963  23.077  0.00  0.00    -0.253 OA
ATOM      5  N   UNL     1       0.704   0.618  24.168  0.00  0.00    -0.297 N 
ATOM      6  N   UNL     1      -0.969  -0.949  24.397  0.00  0.00    -0.269 N 
ATOM     15  C   UNL     1      -0.606   0.267  23.810  0.00  0.00    +0.304 C 
ATOM     28  H   UNL     1       1.218  -0.000  24.790  0.00  0.00    +0.150 HD
ATOM     29  H   UNL     1      -0.269  -1.400  24.981  0.00  0.00    +0.156 HD
BRANCH   6  19
ATOM     19  C   UNL     1      -2.199  -1.637  24.279  0.00  0.00    +0.035 A 
ATOM     21  C   UNL     1      -2.232  -3.028  24.385  0.00  0.00    +0.023 A 
ATOM     22  C   UNL     1      -3.378  -0.927  24.057  0.00  0.00    +0.023 A 
ATOM     23  C   UNL     1      -3.445  -3.708  24.269  0.00  0.00    +0.002 A 
ATOM     24  C   UNL     1      -4.590  -1.606  23.941  0.00  0.00    +0.002 A 
ATOM     25  C   UNL     1      -4.624  -2.996  24.047  0.00  0.00    +0.000 A 
ENDBRANCH   6  19
ENDBRANCH  12   5
ENDBRANCH  10  12
TORSDOF 7
ENDMDL
MODEL 7
REMARK VINA RESULT:      -2.4      2.868      5.443
REMARK  Name = 75536777
REMARK  7 active torsions:
REMARK  status: ('A' for Active; 'I' for Inactive)
REMARK    1  A    between atoms: O_2  and  C_9
REMARK    2  A    between atoms: N_4  and  C_8
REMARK    3  A    between atoms: N_4  and  C_13
REMARK    4  A    between atoms: N_5  and  C_12
REMARK    5  A    between atoms: N_6  and  C_19
REMARK    6  A    between atoms: C_10  and  C_12
REMARK    7  A    between atoms: C_13  and  C_14
REMARK                            x       y       z     vdW  Elec       q    Type
REMARK                         _______ _______ _______ _____ _____    ______ ____
ROOT
ATOM      1  O   UNL     1       0.253   4.641  24.599  0.00  0.00    -0.371 OA
ATOM      8  C   UNL     1      -2.016   5.035  25.184  0.00  0.00    +0.111 C 
ATOM      9  C   UNL     1      -1.587   3.692  25.744  0.00  0.00    +0.164 C 
ATOM     10  C   UNL     1      -0.072   3.848  25.754  0.00  0.00    +0.165 C 
ATOM     11  C   UNL     1      -0.949   5.275  24.127  0.00  0.00    +0.181 C 
ENDROOT
BRANCH   9   2
ATOM      2  O   UNL     1      -2.100   3.452  27.040  0.00  0.00    -0.388 OA
ATOM     27  H   UNL     1      -2.438   4.291  27.396  0.00  0.00    +0.210 HD
ENDBRANCH   9   2
BRANCH   8   4
ATOM      4  N   UNL     1      -3.363   5.036  24.638  0.00  0.00    -0.305 NA
ATOM     26  H   UNL     1      -3.440   5.781  23.944  0.00  0.00    +0.123 HD
BRANCH   4  13
ATOM     13  C   UNL     1      -3.672   3.763  23.998  0.00  0.00    +0.118 C 
BRANCH  13  14
ATOM      7  N   UNL     1      -6.050   2.736  26.758  0.00  0.00    -0.263 NA
ATOM     14  C   UNL     1      -4.726   2.998  24.752  0.00  0.00    -0.015 A 
ATOM     16  C   UNL     1      -5.345   1.886  24.191  0.00  0.00    +0.008 A 
ATOM     17  C   UNL     1      -5.111   3.378  26.027  0.00  0.00    +0.115 A 
ATOM     18  C   UNL     1      -6.315   1.199  24.912  0.00  0.00    +0.020 A 
ATOM     20  C   UNL     1      -6.628   1.660  26.179  0.00  0.00    +0.111 A 
ENDBRANCH  13  14
ENDBRANCH   4  13
ENDBRANCH   8   4
BRANCH  10  12
ATOM     12  C   UNL     1       0.668   2.524  25.692  0.00  0.00    +0.140 C 
BRANCH  12   5
ATOM      3  O   UNL     1      -0.756   0.900  23.810  0.00  0.00    -0.253 OA
ATOM      5  N   UNL     1      -0.204   1.425  25.994  0.00  0.00    -0.297 N 
ATOM      6  N   UNL     1      -1.647  -0.328  25.603  0.00  0.00    -0.269 N 
ATOM     15  C   UNL     1      -0.869   0.673  25.013  0.00  0.00    +0.304 C 
ATOM     28  H   UNL     1      -0.356   1.189  26.970  0.00  0.00    +0.150 HD
ATOM     29  H   UNL     1      -1.630  -0.380  26.618  0.00  0.00    +0.156 HD
BRANCH   6  19
ATOM     19  C   UNL     1      -2.460  -1.288  24.957  0.00  0.00    +0.035 A 
ATOM     21  C   UNL     1      -3.742  -0.940  24.530  0.00  0.00    +0.023 A 
ATOM     22  C   UNL     1      -1.983  -2.581  24.747  0.00  0.00    +0.023 A 
ATOM     23  C   UNL     1      -4.546  -1.886  23.892  0.00  0.00    +0.002 A 
ATOM     24  C   UNL     1      -2.785  -3.526  24.109  0.00  0.00    +0.002 A 
ATOM     25  C   UNL     1      -4.067  -3.179  23.682  0.00  0.00    +0.000 A 
ENDBRANCH   6  19
ENDBRANCH  12   5
ENDBRANCH  10  12
TORSDOF 7
ENDMDL
MODEL 8
REMARK VINA RESULT:      -2.1      1.950      6.858
REMARK  Name = 75536777
REMARK  7 active torsions:
REMARK  status: ('A' for Active; 'I' for Inactive)
REMARK    1  A    between atoms: O_2  and  C_9
REMARK    2  A    between atoms: N_4  and  C_8
REMARK    3  A    between atoms: N_4  and  C_13
REMARK    4  A    between atoms: N_5  and  C_12
REMARK    5  A    between atoms: N_6  and  C_19
REMARK    6  A    between atoms: C_10  and  C_12
REMARK    7  A    between atoms: C_13  and  C_14
REMARK                            x       y       z     vdW  Elec       q    Type
REMARK                         _______ _______ _______ _____ _____    ______ ____
ROOT
ATOM      1  O   UNL     1      -1.608  -2.846  23.629  0.00  0.00    -0.371 OA
ATOM      8  C   UNL     1       0.017  -1.260  24.329  0.00  0.00    +0.111 C 
ATOM      9  C   UNL     1      -1.219  -1.120  25.199  0.00  0.00    +0.164 C 
ATOM     10  C   UNL     1      -1.880  -2.476  24.991  0.00  0.00    +0.165 C 
ATOM     11  C   UNL     1      -0.540  -2.018  23.135  0.00  0.00    +0.181 C 
ENDROOT
BRANCH   9   2
ATOM      2  O   UNL     1      -0.907  -0.888  26.558  0.00  0.00    -0.388 OA
ATOM     27  H   UNL     1      -0.311  -0.121  26.609  0.00  0.00    +0.210 HD
ENDBRANCH   9   2
BRANCH   8   4
ATOM      4  N   UNL     1       0.620   0.010  23.962  0.00  0.00    -0.305 NA
ATOM     26  H   UNL     1       1.214   0.330  24.728  0.00  0.00    +0.123 HD
BRANCH   4  13
ATOM     13  C   UNL     1       1.435  -0.124  22.760  0.00  0.00    +0.118 C 
BRANCH  13  14
ATOM      7  N   UNL     1       4.821  -1.387  23.889  0.00  0.00    -0.263 NA
ATOM     14  C   UNL     1       2.906  -0.151  23.081  0.00  0.00    -0.015 A 
ATOM     16  C   UNL     1       3.704   0.971  22.886  0.00  0.00    +0.008 A 
ATOM     17  C   UNL     1       3.508  -1.295  23.581  0.00  0.00    +0.115 A 
ATOM     18  C   UNL     1       5.058   0.916  23.192  0.00  0.00    +0.020 A 
ATOM     20  C   UNL     1       5.563  -0.275  23.687  0.00  0.00    +0.111 A 
ENDBRANCH  13  14
ENDBRANCH   4  13
ENDBRANCH   8   4
BRANCH  10  12
ATOM     12  C   UNL     1      -3.380  -2.454  25.228  0.00  0.00    +0.140 C 
BRANCH  12   5
ATOM      3  O   UNL     1      -3.677   0.015  23.807  0.00  0.00    -0.253 OA
ATOM      5  N   UNL     1      -3.804  -1.196  25.773  0.00  0.00    -0.297 N 
ATOM      6  N   UNL     1      -4.356   1.040  25.807  0.00  0.00    -0.269 N 
ATOM     15  C   UNL     1      -3.926  -0.024  25.009  0.00  0.00    +0.304 C 
ATOM     28  H   UNL     1      -4.013  -1.150  26.766  0.00  0.00    +0.150 HD
ATOM     29  H   UNL     1      -4.516   0.838  26.790  0.00  0.00    +0.156 HD
BRANCH   6  19
ATOM     19  C   UNL     1      -4.597   2.377  25.413  0.00  0.00    +0.035 A 
ATOM     21  C   UNL     1      -3.657   3.055  24.637  0.00  0.00    +0.023 A 
ATOM     22  C   UNL     1      -5.775   3.017  25.798  0.00  0.00    +0.023 A 
ATOM     23  C   UNL     1      -3.895   4.374  24.247  0.00  0.00    +0.002 A 
ATOM     24  C   UNL     1      -6.012   4.335  25.409  0.00  0.00    +0.002 A 
ATOM     25  C   UNL     1      -5.073   5.013  24.633  0.00  0.00    +0.000 A 
ENDBRANCH   6  19
ENDBRANCH  12   5
ENDBRANCH  10  12
TORSDOF 7
ENDMDL
MODEL 9
REMARK VINA RESULT:      -1.4      1.767      2.377
REMARK  Name = 75536777
REMARK  7 active torsions:
REMARK  status: ('A' for Active; 'I' for Inactive)
REMARK    1  A    between atoms: O_2  and  C_9
REMARK    2  A    between atoms: N_4  and  C_8
REMARK    3  A    between atoms: N_4  and  C_13
REMARK    4  A    between atoms: N_5  and  C_12
REMARK    5  A    between atoms: N_6  and  C_19
REMARK    6  A    between atoms: C_10  and  C_12
REMARK    7  A    between atoms: C_13  and  C_14
REMARK                            x       y       z     vdW  Elec       q    Type
REMARK                         _______ _______ _______ _____ _____    ______ ____
ROOT
ATOM      1  O   UNL     1      -3.017  -1.115  26.348  0.00  0.00    -0.371 OA
ATOM      8  C   UNL     1      -4.586   0.040  24.989  0.00  0.00    +0.111 C 
ATOM      9  C   UNL     1      -4.011  -1.123  24.202  0.00  0.00    +0.164 C 
ATOM     10  C   UNL     1      -3.488  -2.008  25.325  0.00  0.00    +0.165 C 
ATOM     11  C   UNL     1      -3.554   0.195  26.095  0.00  0.00    +0.181 C 
ENDROOT
BRANCH   9   2
ATOM      2  O   UNL     1      -4.983  -1.785  23.418  0.00  0.00    -0.388 OA
ATOM     27  H   UNL     1      -5.297  -1.169  22.735  0.00  0.00    +0.210 HD
ENDBRANCH   9   2
BRANCH   8   4
ATOM      4  N   UNL     1      -4.759   1.250  24.202  0.00  0.00    -0.305 NA
ATOM     26  H   UNL     1      -4.999   2.021  24.826  0.00  0.00    +0.123 HD
BRANCH   4  13
ATOM     13  C   UNL     1      -3.536   1.588  23.484  0.00  0.00    +0.118 C 
BRANCH  13  14
ATOM      7  N   UNL     1      -2.870   4.742  25.469  0.00  0.00    -0.263 NA
ATOM     14  C   UNL     1      -2.796   2.723  24.141  0.00  0.00    -0.015 A 
ATOM     16  C   UNL     1      -1.413   2.825  24.051  0.00  0.00    +0.008 A 
ATOM     17  C   UNL     1      -3.472   3.699  24.856  0.00  0.00    +0.115 A 
ATOM     18  C   UNL     1      -0.757   3.884  24.668  0.00  0.00    +0.020 A 
ATOM     20  C   UNL     1      -1.524   4.807  25.358  0.00  0.00    +0.111 A 
ENDBRANCH  13  14
ENDBRANCH   4  13
ENDBRANCH   8   4
BRANCH  10  12
ATOM     12  C   UNL     1      -2.362  -2.928  24.889  0.00  0.00    +0.140 C 
BRANCH  12   5
ATOM      3  O   UNL     1      -0.069  -1.285  25.387  0.00  0.00    -0.253 OA
ATOM      5  N   UNL     1      -1.527  -2.300  23.905  0.00  0.00    -0.297 N 
ATOM      6  N   UNL     1       0.203  -1.029  23.069  0.00  0.00    -0.269 N 
ATOM     15  C   UNL     1      -0.415  -1.506  24.229  0.00  0.00    +0.304 C 
ATOM     28  H   UNL     1      -1.761  -2.427  22.925  0.00  0.00    +0.150 HD
ATOM     29  H   UNL     1      -0.213  -1.306  22.184  0.00  0.00    +0.156 HD
BRANCH   6  19
ATOM     19  C   UNL     1       1.346  -0.201  22.973  0.00  0.00    +0.035 A 
ATOM     21  C   UNL     1       2.496  -0.673  22.339  0.00  0.00    +0.023 A 
ATOM     22  C   UNL     1       1.325   1.084  23.511  0.00  0.00    +0.023 A 
ATOM     23  C   UNL     1       3.624   0.142  22.244  0.00  0.00    +0.002 A 
ATOM     24  C   UNL     1       2.452   1.900  23.416  0.00  0.00    +0.002 A 
ATOM     25  C   UNL     1       3.602   1.429  22.782  0.00  0.00    +0.000 A 
ENDBRANCH   6  19
ENDBRANCH  12   5
ENDBRANCH  10  12
TORSDOF 7
ENDMDL
MODEL 10
REMARK VINA RESULT:      -1.0      1.668      2.139
REMARK  Name = 75536777
REMARK  7 active torsions:
REMARK  status: ('A' for Active; 'I' for Inactive)
REMARK    1  A    between atoms: O_2  and  C_9
REMARK    2  A    between atoms: N_4  and  C_8
REMARK    3  A    between atoms: N_4  and  C_13
REMARK    4  A    between atoms: N_5  and  C_12
REMARK    5  A    between atoms: N_6  and  C_19
REMARK    6  A    between atoms: C_10  and  C_12
REMARK    7  A    between atoms: C_13  and  C_14
REMARK                            x       y       z     vdW  Elec       q    Type
REMARK                         _______ _______ _______ _____ _____    ______ ____
ROOT
ATOM      1  O   UNL     1      -2.069  -0.241  25.602  0.00  0.00    -0.371 OA
ATOM      8  C   UNL     1      -4.276   0.417  25.016  0.00  0.00    +0.111 C 
ATOM      9  C   UNL     1      -3.912  -0.838  24.245  0.00  0.00    +0.164 C 
ATOM     10  C   UNL     1      -2.775  -1.387  25.096  0.00  0.00    +0.165 C 
ATOM     11  C   UNL     1      -2.904   0.919  25.438  0.00  0.00    +0.181 C 
ENDROOT
BRANCH   9   2
ATOM      2  O   UNL     1      -4.988  -1.752  24.151  0.00  0.00    -0.388 OA
ATOM     27  H   UNL     1      -5.818  -1.261  24.269  0.00  0.00    +0.210 HD
ENDBRANCH   9   2
BRANCH   8   4
ATOM      4  N   UNL     1      -5.018   1.390  24.232  0.00  0.00    -0.305 NA
ATOM     26  H   UNL     1      -5.882   0.960  23.900  0.00  0.00    +0.123 HD
BRANCH   4  13
ATOM     13  C   UNL     1      -5.353   2.563  25.031  0.00  0.00    +0.118 C 
BRANCH  13  14
ATOM      7  N   UNL     1      -2.413   4.801  24.207  0.00  0.00    -0.263 NA
ATOM     14  C   UNL     1      -4.169   3.475  25.210  0.00  0.00    -0.015 A 
ATOM     16  C   UNL     1      -3.729   3.839  26.478  0.00  0.00    +0.008 A 
ATOM     17  C   UNL     1      -3.483   3.979  24.117  0.00  0.00    +0.115 A 
ATOM     18  C   UNL     1      -2.632   4.682  26.612  0.00  0.00    +0.020 A 
ATOM     20  C   UNL     1      -2.015   5.131  25.456  0.00  0.00    +0.111 A 
ENDBRANCH  13  14
ENDBRANCH   4  13
ENDBRANCH   8   4
BRANCH  10  12
ATOM     12  C   UNL     1      -1.820  -2.275  24.319  0.00  0.00    +0.140 C 
BRANCH  12   5
ATOM      3  O   UNL     1       0.947  -2.014  25.012  0.00  0.00    -0.253 OA
ATOM      5  N   UNL     1      -0.831  -1.499  23.626  0.00  0.00    -0.297 N 
ATOM      6  N   UNL     1       1.236  -0.591  23.166  0.00  0.00    -0.269 N 
ATOM     15  C   UNL     1       0.511  -1.420  24.029  0.00  0.00    +0.304 C 
ATOM     28  H   UNL     1      -1.123  -0.969  22.810  0.00  0.00    +0.150 HD
ATOM     29  H   UNL     1       0.721  -0.173  22.396  0.00  0.00    +0.156 HD
BRANCH   6  19
ATOM     19  C   UNL     1       2.609  -0.260  23.232  0.00  0.00    +0.035 A 
ATOM     21  C   UNL     1       3.050   0.979  22.768  0.00  0.00    +0.023 A 
ATOM     22  C   UNL     1       3.523  -1.171  23.762  0.00  0.00    +0.023 A 
ATOM     23  C   UNL     1       4.405   1.307  22.832  0.00  0.00    +0.002 A 
ATOM     24  C   UNL     1       4.877  -0.843  23.827  0.00  0.00    +0.002 A 
ATOM     25  C   UNL     1       5.318   0.396  23.363  0.00  0.00    +0.000 A 
ENDBRANCH   6  19
ENDBRANCH  12   5
ENDBRANCH  10  12
TORSDOF 7
ENDMDL
