MODEL 1
REMARK VINA RESULT:       5.5      0.000      0.000
REMARK  Name = 7144103
REMARK  4 active torsions:
REMARK  status: ('A' for Active; 'I' for Inactive)
REMARK    1  A    between atoms: O_3  and  C_27
REMARK    2  A    between atoms: O_3  and  C_30
REMARK    3  A    between atoms: C_15  and  C_20
REMARK    4  A    between atoms: C_17  and  C_21
REMARK                            x       y       z     vdW  Elec       q    Type
REMARK                         _______ _______ _______ _____ _____    ______ ____
ROOT
ATOM      1  O   UNL     1      -3.124   4.123  27.673  0.00  0.00    -0.268 OA
ATOM      2  O   UNL     1      -5.803   0.596  25.197  0.00  0.00    -0.268 OA
ATOM      4  N   UNL     1      -2.623   3.433  25.491  0.00  0.00    -0.311 N 
ATOM      5  N   UNL     1      -4.255   1.441  23.664  0.00  0.00    -0.295 N 
ATOM      8  C   UNL     1      -4.208   3.919  23.533  0.00  0.00    +0.027 C 
ATOM      9  C   UNL     1      -2.139   2.644  23.155  0.00  0.00    +0.054 C 
ATOM     10  C   UNL     1      -2.946   3.853  22.687  0.00  0.00    +0.018 C 
ATOM     11  C   UNL     1      -3.803   4.154  24.990  0.00  0.00    +0.130 C 
ATOM     12  C   UNL     1      -5.040   2.637  23.366  0.00  0.00    +0.113 C 
ATOM     13  C   UNL     1      -2.970   1.358  22.953  0.00  0.00    +0.117 C 
ATOM     14  C   UNL     1      -1.729   2.774  24.624  0.00  0.00    +0.034 A 
ATOM     15  C   UNL     1      -0.571   2.257  25.111  0.00  0.00    +0.002 A 
ATOM     16  C   UNL     1      -2.385   3.549  26.872  0.00  0.00    +0.252 A 
ATOM     17  C   UNL     1      -4.728   0.523  24.604  0.00  0.00    +0.266 C 
ATOM     18  C   UNL     1      -0.294   2.354  26.531  0.00  0.00    +0.015 A 
ATOM     19  C   UNL     1      -1.135   2.941  27.381  0.00  0.00    +0.071 A 
ENDROOT
BRANCH  17  21
ATOM      6  N   UNL     1      -2.889  -0.394  25.822  0.00  0.00    -0.247 NA
ATOM      7  N   UNL     1      -3.324  -2.921  24.686  0.00  0.00    -0.259 NA
ATOM     21  C   UNL     1      -3.879  -0.624  24.944  0.00  0.00    +0.144 A 
ATOM     24  C   UNL     1      -4.097  -1.859  24.383  0.00  0.00    +0.143 A 
ATOM     28  C   UNL     1      -2.115  -1.456  26.126  0.00  0.00    +0.131 A 
ATOM     29  C   UNL     1      -2.329  -2.696  25.567  0.00  0.00    +0.130 A 
ENDBRANCH  17  21
BRANCH  15  20
ATOM     20  C   UNL     1       0.410   1.580  24.233  0.00  0.00    -0.016 A 
ATOM     22  C   UNL     1       0.127   0.313  23.731  0.00  0.00    +0.012 A 
ATOM     23  C   UNL     1       1.606   2.214  23.916  0.00  0.00    +0.012 A 
ATOM     25  C   UNL     1       1.051  -0.325  22.904  0.00  0.00    +0.046 A 
ATOM     26  C   UNL     1       2.530   1.575  23.088  0.00  0.00    +0.046 A 
ATOM     27  C   UNL     1       2.253   0.306  22.583  0.00  0.00    +0.120 A 
BRANCH  27   3
ATOM      3  O   UNL     1       3.154  -0.318  21.776  0.00  0.00    -0.495 OA
ATOM     30  C   UNL     1       4.531   0.010  21.965  0.00  0.00    +0.277 C 
ENDBRANCH  27   3
ENDBRANCH  15  20
TORSDOF 3
ENDMDL
