MODEL 1
REMARK VINA RESULT:       1.4      0.000      0.000
REMARK  Name = 25313359
REMARK  12 active torsions:
REMARK  status: ('A' for Active; 'I' for Inactive)
REMARK    1  A    between atoms: O_3  and  C_23
REMARK    2  A    between atoms: N_6  and  C_15
REMARK    3  A    between atoms: N_7  and  C_27
REMARK    4  A    between atoms: C_8  and  C_12
REMARK    5  A    between atoms: C_9  and  C_14
REMARK    6  A    between atoms: C_12  and  C_15
REMARK    7  A    between atoms: C_14  and  C_23
REMARK    8  A    between atoms: C_16  and  C_19
REMARK    9  A    between atoms: C_19  and  C_20
REMARK   10  A    between atoms: C_20  and  C_24
REMARK   11  A    between atoms: C_20  and  C_25
REMARK   12  A    between atoms: C_20  and  C_26
REMARK                            x       y       z     vdW  Elec       q    Type
REMARK                         _______ _______ _______ _____ _____    ______ ____
ROOT
ATOM      2  O   UNL     1      -5.476   4.230  24.908  0.00  0.00    -0.276 OA
ATOM      5  N   UNL     1      -4.333   2.241  25.267  0.00  0.00    -0.301 N 
ATOM      8  C   UNL     1      -3.253   0.162  24.439  0.00  0.00    +0.011 C 
ATOM      9  C   UNL     1      -4.496  -0.630  24.917  0.00  0.00    +0.006 C 
ATOM     10  C   UNL     1      -3.099   1.446  25.274  0.00  0.00    +0.111 C 
ATOM     11  C   UNL     1      -5.756   0.254  24.942  0.00  0.00    +0.023 C 
ATOM     13  C   UNL     1      -5.520   1.532  25.744  0.00  0.00    +0.108 C 
ATOM     16  C   UNL     1      -4.432   3.577  24.880  0.00  0.00    +0.216 C 
ENDROOT
BRANCH   8  12
ATOM     12  C   UNL     1      -3.266   0.499  22.943  0.00  0.00    +0.020 C 
BRANCH  12  15
ATOM     15  C   UNL     1      -2.150   1.473  22.596  0.00  0.00    +0.085 C 
BRANCH  15   6
ATOM      6  N   UNL     1      -0.883   0.997  23.152  0.00  0.00    -0.299 NA
ATOM      7  N   UNL     1       1.930   0.508  23.184  0.00  0.00    -0.327 N 
ATOM     17  C   UNL     1       0.063   2.109  23.305  0.00  0.00    +0.103 C 
ATOM     18  C   UNL     1      -0.301  -0.041  22.293  0.00  0.00    +0.103 C 
ATOM     21  C   UNL     1       1.373   1.635  23.939  0.00  0.00    +0.120 C 
ATOM     22  C   UNL     1       0.996  -0.587  22.894  0.00  0.00    +0.120 C 
BRANCH   7  27
ATOM      1  F   UNL     1       7.300  -0.720  23.659  0.00  0.00    -0.205 F 
ATOM     27  C   UNL     1       3.290   0.197  23.304  0.00  0.00    +0.030 A 
ATOM     28  C   UNL     1       3.681  -1.092  23.666  0.00  0.00    +0.026 A 
ATOM     29  C   UNL     1       4.254   1.176  23.062  0.00  0.00    +0.026 A 
ATOM     30  C   UNL     1       5.036  -1.403  23.785  0.00  0.00    +0.040 A 
ATOM     31  C   UNL     1       5.608   0.865  23.182  0.00  0.00    +0.040 A 
ATOM     32  C   UNL     1       5.999  -0.424  23.544  0.00  0.00    +0.124 A 
ENDBRANCH   7  27
ENDBRANCH  15   6
ENDBRANCH  12  15
ENDBRANCH   8  12
BRANCH   9  14
ATOM     14  C   UNL     1      -4.748  -1.901  24.106  0.00  0.00    +0.124 C 
BRANCH  14  23
ATOM      4  O   UNL     1      -3.127  -3.605  23.465  0.00  0.00    -0.251 OA
ATOM     23  C   UNL     1      -3.666  -2.922  24.323  0.00  0.00    +0.305 C 
BRANCH  23   3
ATOM      3  O   UNL     1      -3.354  -2.985  25.644  0.00  0.00    -0.481 OA
ATOM     33  H   UNL     1      -2.465  -2.614  25.828  0.00  0.00    +0.295 HD
ENDBRANCH  23   3
ENDBRANCH  14  23
ENDBRANCH   9  14
BRANCH  16  19
ATOM     19  C   UNL     1      -3.163   4.236  24.398  0.00  0.00    +0.102 C 
BRANCH  19  20
ATOM     20  C   UNL     1      -2.201   4.590  25.546  0.00  0.00    -0.029 C 
ATOM     24  C   UNL     1      -1.236   3.430  25.841  0.00  0.00    +0.011 C 
ATOM     25  C   UNL     1      -2.973   4.949  26.828  0.00  0.00    +0.011 C 
ATOM     26  C   UNL     1      -1.377   5.816  25.111  0.00  0.00    +0.011 C 
ENDBRANCH  19  20
ENDBRANCH  16  19
TORSDOF 9
ENDMDL
MODEL 2
REMARK VINA RESULT:       2.3      1.468      4.588
REMARK  Name = 25313359
REMARK  12 active torsions:
REMARK  status: ('A' for Active; 'I' for Inactive)
REMARK    1  A    between atoms: O_3  and  C_23
REMARK    2  A    between atoms: N_6  and  C_15
REMARK    3  A    between atoms: N_7  and  C_27
REMARK    4  A    between atoms: C_8  and  C_12
REMARK    5  A    between atoms: C_9  and  C_14
REMARK    6  A    between atoms: C_12  and  C_15
REMARK    7  A    between atoms: C_14  and  C_23
REMARK    8  A    between atoms: C_16  and  C_19
REMARK    9  A    between atoms: C_19  and  C_20
REMARK   10  A    between atoms: C_20  and  C_24
REMARK   11  A    between atoms: C_20  and  C_25
REMARK   12  A    between atoms: C_20  and  C_26
REMARK                            x       y       z     vdW  Elec       q    Type
REMARK                         _______ _______ _______ _____ _____    ______ ____
ROOT
ATOM      2  O   UNL     1      -4.337  -0.608  26.407  0.00  0.00    -0.276 OA
ATOM      5  N   UNL     1      -4.735   1.199  25.004  0.00  0.00    -0.301 N 
ATOM      8  C   UNL     1      -3.941   3.072  23.576  0.00  0.00    +0.011 C 
ATOM      9  C   UNL     1      -4.324   4.052  24.714  0.00  0.00    +0.006 C 
ATOM     10  C   UNL     1      -4.807   1.803  23.667  0.00  0.00    +0.111 C 
ATOM     11  C   UNL     1      -4.283   3.365  26.091  0.00  0.00    +0.023 C 
ATOM     13  C   UNL     1      -5.121   2.089  26.098  0.00  0.00    +0.108 C 
ATOM     16  C   UNL     1      -4.365  -0.118  25.277  0.00  0.00    +0.216 C 
ENDROOT
BRANCH   8  12
ATOM     12  C   UNL     1      -2.454   2.701  23.548  0.00  0.00    +0.020 C 
BRANCH  12  15
ATOM     15  C   UNL     1      -2.232   1.408  22.777  0.00  0.00    +0.085 C 
BRANCH  15   6
ATOM      6  N   UNL     1      -0.967   0.796  23.184  0.00  0.00    -0.299 NA
ATOM      7  N   UNL     1       1.865   0.431  23.204  0.00  0.00    -0.327 N 
ATOM     17  C   UNL     1      -0.094   1.791  23.819  0.00  0.00    +0.103 C 
ATOM     18  C   UNL     1      -0.287   0.200  22.027  0.00  0.00    +0.103 C 
ATOM     21  C   UNL     1       1.210   1.152  24.300  0.00  0.00    +0.120 C 
ATOM     22  C   UNL     1       1.010  -0.494  22.450  0.00  0.00    +0.120 C 
BRANCH   7  27
ATOM      1  F   UNL     1       7.269  -0.695  23.508  0.00  0.00    -0.205 F 
ATOM     27  C   UNL     1       3.234   0.146  23.281  0.00  0.00    +0.030 A 
ATOM     28  C   UNL     1       4.170   1.125  22.948  0.00  0.00    +0.026 A 
ATOM     29  C   UNL     1       3.661  -1.117  23.691  0.00  0.00    +0.026 A 
ATOM     30  C   UNL     1       5.533   0.842  23.025  0.00  0.00    +0.040 A 
ATOM     31  C   UNL     1       5.025  -1.400  23.767  0.00  0.00    +0.040 A 
ATOM     32  C   UNL     1       5.961  -0.421  23.434  0.00  0.00    +0.124 A 
ENDBRANCH   7  27
ENDBRANCH  15   6
ENDBRANCH  12  15
ENDBRANCH   8  12
BRANCH   9  14
ATOM     14  C   UNL     1      -3.477   5.324  24.723  0.00  0.00    +0.124 C 
BRANCH  14  23
ATOM      4  O   UNL     1      -1.818   4.182  26.096  0.00  0.00    -0.251 OA
ATOM     23  C   UNL     1      -2.123   5.086  25.332  0.00  0.00    +0.305 C 
BRANCH  23   3
ATOM      3  O   UNL     1      -1.256   6.041  24.907  0.00  0.00    -0.481 OA
ATOM     33  H   UNL     1      -0.504   5.655  24.408  0.00  0.00    +0.295 HD
ENDBRANCH  23   3
ENDBRANCH  14  23
ENDBRANCH   9  14
BRANCH  16  19
ATOM     19  C   UNL     1      -3.978  -0.970  24.094  0.00  0.00    +0.102 C 
BRANCH  19  20
ATOM     20  C   UNL     1      -3.276  -2.277  24.503  0.00  0.00    -0.029 C 
ATOM     24  C   UNL     1      -3.309  -2.472  26.029  0.00  0.00    +0.011 C 
ATOM     25  C   UNL     1      -1.817  -2.300  24.018  0.00  0.00    +0.011 C 
ATOM     26  C   UNL     1      -4.031  -3.446  23.842  0.00  0.00    +0.011 C 
ENDBRANCH  19  20
ENDBRANCH  16  19
TORSDOF 9
ENDMDL
MODEL 3
REMARK VINA RESULT:       2.7      0.769      1.370
REMARK  Name = 25313359
REMARK  12 active torsions:
REMARK  status: ('A' for Active; 'I' for Inactive)
REMARK    1  A    between atoms: O_3  and  C_23
REMARK    2  A    between atoms: N_6  and  C_15
REMARK    3  A    between atoms: N_7  and  C_27
REMARK    4  A    between atoms: C_8  and  C_12
REMARK    5  A    between atoms: C_9  and  C_14
REMARK    6  A    between atoms: C_12  and  C_15
REMARK    7  A    between atoms: C_14  and  C_23
REMARK    8  A    between atoms: C_16  and  C_19
REMARK    9  A    between atoms: C_19  and  C_20
REMARK   10  A    between atoms: C_20  and  C_24
REMARK   11  A    between atoms: C_20  and  C_25
REMARK   12  A    between atoms: C_20  and  C_26
REMARK                            x       y       z     vdW  Elec       q    Type
REMARK                         _______ _______ _______ _____ _____    ______ ____
ROOT
ATOM      2  O   UNL     1      -5.700   4.714  25.528  0.00  0.00    -0.276 OA
ATOM      5  N   UNL     1      -4.853   2.587  25.921  0.00  0.00    -0.301 N 
ATOM      8  C   UNL     1      -3.440   0.646  25.280  0.00  0.00    +0.011 C 
ATOM      9  C   UNL     1      -4.728  -0.101  24.849  0.00  0.00    +0.006 C 
ATOM     10  C   UNL     1      -3.778   1.688  26.361  0.00  0.00    +0.111 C 
ATOM     11  C   UNL     1      -5.842   0.880  24.444  0.00  0.00    +0.023 C 
ATOM     13  C   UNL     1      -6.093   1.915  25.538  0.00  0.00    +0.108 C 
ATOM     16  C   UNL     1      -4.774   3.979  25.877  0.00  0.00    +0.216 C 
ENDROOT
BRANCH   8  12
ATOM     12  C   UNL     1      -2.685   1.307  24.121  0.00  0.00    +0.020 C 
BRANCH  12  15
ATOM     15  C   UNL     1      -2.181   0.264  23.135  0.00  0.00    +0.085 C 
BRANCH  15   6
ATOM      6  N   UNL     1      -0.757   0.473  22.874  0.00  0.00    -0.299 NA
ATOM      7  N   UNL     1       2.047   0.059  23.224  0.00  0.00    -0.327 N 
ATOM     17  C   UNL     1      -0.127  -0.773  22.420  0.00  0.00    +0.103 C 
ATOM     18  C   UNL     1      -0.079   0.966  24.079  0.00  0.00    +0.103 C 
ATOM     21  C   UNL     1       1.351  -0.554  22.088  0.00  0.00    +0.120 C 
ATOM     22  C   UNL     1       1.400   1.244  23.801  0.00  0.00    +0.120 C 
BRANCH   7  27
ATOM      1  F   UNL     1       7.548  -0.342  23.606  0.00  0.00    -0.205 F 
ATOM     27  C   UNL     1       3.440  -0.042  23.320  0.00  0.00    +0.030 A 
ATOM     28  C   UNL     1       4.024  -1.236  23.744  0.00  0.00    +0.026 A 
ATOM     29  C   UNL     1       4.244   1.050  22.994  0.00  0.00    +0.026 A 
ATOM     30  C   UNL     1       5.412  -1.338  23.840  0.00  0.00    +0.040 A 
ATOM     31  C   UNL     1       5.631   0.948  23.090  0.00  0.00    +0.040 A 
ATOM     32  C   UNL     1       6.215  -0.246  23.514  0.00  0.00    +0.124 A 
ENDBRANCH   7  27
ENDBRANCH  15   6
ENDBRANCH  12  15
ENDBRANCH   8  12
BRANCH   9  14
ATOM     14  C   UNL     1      -4.486  -1.126  23.741  0.00  0.00    +0.124 C 
BRANCH  14  23
ATOM      4  O   UNL     1      -3.845  -3.477  23.694  0.00  0.00    -0.251 OA
ATOM     23  C   UNL     1      -3.930  -2.412  24.287  0.00  0.00    +0.305 C 
BRANCH  23   3
ATOM      3  O   UNL     1      -3.520  -2.226  25.569  0.00  0.00    -0.481 OA
ATOM     33  H   UNL     1      -3.041  -3.009  25.916  0.00  0.00    +0.295 HD
ENDBRANCH  23   3
ENDBRANCH  14  23
ENDBRANCH   9  14
BRANCH  16  19
ATOM     19  C   UNL     1      -3.459   4.595  26.286  0.00  0.00    +0.102 C 
BRANCH  19  20
ATOM     20  C   UNL     1      -2.466   4.714  25.116  0.00  0.00    -0.029 C 
ATOM     24  C   UNL     1      -3.107   4.257  23.794  0.00  0.00    +0.011 C 
ATOM     25  C   UNL     1      -1.195   3.888  25.379  0.00  0.00    +0.011 C 
ATOM     26  C   UNL     1      -2.069   6.196  24.983  0.00  0.00    +0.011 C 
ENDBRANCH  19  20
ENDBRANCH  16  19
TORSDOF 9
ENDMDL
MODEL 4
REMARK VINA RESULT:       5.1      1.765      4.512
REMARK  Name = 25313359
REMARK  12 active torsions:
REMARK  status: ('A' for Active; 'I' for Inactive)
REMARK    1  A    between atoms: O_3  and  C_23
REMARK    2  A    between atoms: N_6  and  C_15
REMARK    3  A    between atoms: N_7  and  C_27
REMARK    4  A    between atoms: C_8  and  C_12
REMARK    5  A    between atoms: C_9  and  C_14
REMARK    6  A    between atoms: C_12  and  C_15
REMARK    7  A    between atoms: C_14  and  C_23
REMARK    8  A    between atoms: C_16  and  C_19
REMARK    9  A    between atoms: C_19  and  C_20
REMARK   10  A    between atoms: C_20  and  C_24
REMARK   11  A    between atoms: C_20  and  C_25
REMARK   12  A    between atoms: C_20  and  C_26
REMARK                            x       y       z     vdW  Elec       q    Type
REMARK                         _______ _______ _______ _____ _____    ______ ____
ROOT
ATOM      2  O   UNL     1      -2.915  -1.105  27.126  0.00  0.00    -0.276 OA
ATOM      5  N   UNL     1      -4.178  -0.198  25.401  0.00  0.00    -0.301 N 
ATOM      8  C   UNL     1      -4.682   1.623  23.787  0.00  0.00    +0.011 C 
ATOM      9  C   UNL     1      -5.871   2.042  24.688  0.00  0.00    +0.006 C 
ATOM     10  C   UNL     1      -4.380   0.127  23.983  0.00  0.00    +0.111 C 
ATOM     11  C   UNL     1      -5.640   1.638  26.155  0.00  0.00    +0.023 C 
ATOM     13  C   UNL     1      -5.297   0.155  26.274  0.00  0.00    +0.108 C 
ATOM     16  C   UNL     1      -3.050  -0.820  25.934  0.00  0.00    +0.216 C 
ENDROOT
BRANCH   8  12
ATOM     12  C   UNL     1      -3.412   2.455  24.004  0.00  0.00    +0.020 C 
BRANCH  12  15
ATOM     15  C   UNL     1      -2.445   2.283  22.842  0.00  0.00    +0.085 C 
BRANCH  15   6
ATOM      6  N   UNL     1      -1.252   1.565  23.290  0.00  0.00    -0.299 NA
ATOM      7  N   UNL     1       1.505   0.819  23.268  0.00  0.00    -0.327 N 
ATOM     17  C   UNL     1      -0.223   2.507  23.746  0.00  0.00    +0.103 C 
ATOM     18  C   UNL     1      -0.719   0.726  22.209  0.00  0.00    +0.103 C 
ATOM     21  C   UNL     1       1.009   1.766  24.271  0.00  0.00    +0.120 C 
ATOM     22  C   UNL     1       0.496  -0.074  22.684  0.00  0.00    +0.120 C 
BRANCH   7  27
ATOM      1  F   UNL     1       6.722  -0.990  23.548  0.00  0.00    -0.205 F 
ATOM     27  C   UNL     1       2.826   0.360  23.339  0.00  0.00    +0.030 A 
ATOM     28  C   UNL     1       3.881   1.233  23.073  0.00  0.00    +0.026 A 
ATOM     29  C   UNL     1       3.086  -0.968  23.675  0.00  0.00    +0.026 A 
ATOM     30  C   UNL     1       5.198   0.777  23.144  0.00  0.00    +0.040 A 
ATOM     31  C   UNL     1       4.403  -1.423  23.746  0.00  0.00    +0.040 A 
ATOM     32  C   UNL     1       5.458  -0.551  23.480  0.00  0.00    +0.124 A 
ENDBRANCH   7  27
ENDBRANCH  15   6
ENDBRANCH  12  15
ENDBRANCH   8  12
BRANCH   9  14
ATOM     14  C   UNL     1      -6.208   3.529  24.587  0.00  0.00    +0.124 C 
BRANCH  14  23
ATOM      4  O   UNL     1      -4.596   4.116  26.318  0.00  0.00    -0.251 OA
ATOM     23  C   UNL     1      -5.665   4.303  25.755  0.00  0.00    +0.305 C 
BRANCH  23   3
ATOM      3  O   UNL     1      -6.547   5.271  26.114  0.00  0.00    -0.481 OA
ATOM     33  H   UNL     1      -6.102   6.030  26.547  0.00  0.00    +0.295 HD
ENDBRANCH  23   3
ENDBRANCH  14  23
ENDBRANCH   9  14
BRANCH  16  19
ATOM     19  C   UNL     1      -1.939  -1.149  24.968  0.00  0.00    +0.102 C 
BRANCH  19  20
ATOM     20  C   UNL     1      -1.809  -2.659  24.701  0.00  0.00    -0.029 C 
ATOM     24  C   UNL     1      -1.521  -2.938  23.216  0.00  0.00    +0.011 C 
ATOM     25  C   UNL     1      -3.083  -3.411  25.123  0.00  0.00    +0.011 C 
ATOM     26  C   UNL     1      -0.628  -3.187  25.538  0.00  0.00    +0.011 C 
ENDBRANCH  19  20
ENDBRANCH  16  19
TORSDOF 9
ENDMDL
