MODEL 1
REMARK VINA RESULT:      -2.2      0.000      0.000
REMARK  Name = 38026946
REMARK  10 active torsions:
REMARK  status: ('A' for Active; 'I' for Inactive)
REMARK    1  A    between atoms: N_4  and  C_14
REMARK    2  A    between atoms: C_7  and  C_11
REMARK    3  A    between atoms: C_8  and  C_14
REMARK    4  A    between atoms: C_10  and  C_16
REMARK    5  A    between atoms: C_11  and  C_19
REMARK    6  A    between atoms: C_11  and  C_20
REMARK    7  A    between atoms: C_12  and  C_22
REMARK    8  A    between atoms: C_15  and  C_21
REMARK    9  A    between atoms: C_16  and  C_23
REMARK   10  A    between atoms: C_28  and  C_29
REMARK                            x       y       z     vdW  Elec       q    Type
REMARK                         _______ _______ _______ _____ _____    ______ ____
ROOT
ATOM      7  C   UNL     1      13.411  -8.189  31.296  0.00  0.00    +0.000 C 
ATOM      8  C   UNL     1      13.149  -7.352  32.572  0.00  0.00    +0.032 C 
ATOM      9  C   UNL     1      14.920  -8.288  31.019  0.00  0.00    +0.012 C 
ATOM     10  C   UNL     1      15.569  -6.904  30.837  0.00  0.00    +0.023 C 
ATOM     12  C   UNL     1      15.142  -5.933  31.920  0.00  0.00    -0.073 C 
ATOM     13  C   UNL     1      14.065  -6.157  32.694  0.00  0.00    -0.022 C 
ATOM     22  C   UNL     1      16.007  -4.721  32.123  0.00  0.00    +0.039 C 
ENDROOT
BRANCH   7  11
ATOM     11  C   UNL     1      12.812  -9.595  31.404  0.00  0.00    -0.013 C 
ATOM     19  C   UNL     1      13.473 -10.535  30.402  0.00  0.00    +0.007 C 
ATOM     20  C   UNL     1      12.959 -10.129  32.825  0.00  0.00    +0.007 C 
ENDBRANCH   7  11
BRANCH   8  14
ATOM     14  C   UNL     1      11.690  -6.886  32.638  0.00  0.00    +0.112 C 
BRANCH  14   4
ATOM      1  O   UNL     1       8.792  -6.839  32.873  0.00  0.00    -0.276 OA
ATOM      4  N   UNL     1      10.801  -8.004  32.681  0.00  0.00    -0.315 N 
ATOM     21  C   UNL     1       9.421  -7.887  32.796  0.00  0.00    +0.216 C 
ATOM     30  H   UNL     1      11.197  -8.934  32.570  0.00  0.00    +0.149 HD
BRANCH  21  15
ATOM     15  C   UNL     1       8.688  -9.188  32.819  0.00  0.00    +0.075 C 
ATOM     17  C   UNL     1       7.339  -9.277  32.168  0.00  0.00    +0.013 C 
ATOM     18  C   UNL     1       8.521  -9.954  31.538  0.00  0.00    +0.013 C 
ENDBRANCH  21  15
ENDBRANCH  14   4
ENDBRANCH   8  14
BRANCH  10  16
ATOM     16  C   UNL     1      15.277  -6.335  29.445  0.00  0.00    +0.103 C 
BRANCH  16  23
ATOM      2  O   UNL     1      15.659  -8.564  28.734  0.00  0.00    -0.276 OA
ATOM      3  O   UNL     1      16.881  -4.415  23.042  0.00  0.00    -0.276 OA
ATOM      5  N   UNL     1      15.674  -6.931  27.081  0.00  0.00    -0.298 N 
ATOM      6  N   UNL     1      16.930  -6.038  24.704  0.00  0.00    -0.299 N 
ATOM     23  C   UNL     1      15.553  -7.382  28.395  0.00  0.00    +0.216 C 
ATOM     24  C   UNL     1      15.946  -7.885  26.003  0.00  0.00    +0.126 C 
ATOM     25  C   UNL     1      15.480  -5.546  26.635  0.00  0.00    +0.126 C 
ATOM     26  C   UNL     1      17.125  -7.424  25.150  0.00  0.00    +0.126 C 
ATOM     27  C   UNL     1      16.659  -5.084  25.782  0.00  0.00    +0.126 C 
ATOM     28  C   UNL     1      17.050  -5.587  23.390  0.00  0.00    +0.213 C 
ATOM     29  C   UNL     1      17.405  -6.621  22.352  0.00  0.00    +0.109 C 
ENDBRANCH  16  23
ENDBRANCH  10  16
TORSDOF 6
ENDMDL
MODEL 2
REMARK VINA RESULT:      -0.8     16.440     19.923
REMARK  Name = 38026946
REMARK  10 active torsions:
REMARK  status: ('A' for Active; 'I' for Inactive)
REMARK    1  A    between atoms: N_4  and  C_14
REMARK    2  A    between atoms: C_7  and  C_11
REMARK    3  A    between atoms: C_8  and  C_14
REMARK    4  A    between atoms: C_10  and  C_16
REMARK    5  A    between atoms: C_11  and  C_19
REMARK    6  A    between atoms: C_11  and  C_20
REMARK    7  A    between atoms: C_12  and  C_22
REMARK    8  A    between atoms: C_15  and  C_21
REMARK    9  A    between atoms: C_16  and  C_23
REMARK   10  A    between atoms: C_28  and  C_29
REMARK                            x       y       z     vdW  Elec       q    Type
REMARK                         _______ _______ _______ _____ _____    ______ ____
ROOT
ATOM      7  C   UNL     1      -1.111   1.258  25.022  0.00  0.00    +0.000 C 
ATOM      8  C   UNL     1       0.251   0.629  24.639  0.00  0.00    +0.032 C 
ATOM      9  C   UNL     1      -1.931   0.282  25.880  0.00  0.00    +0.012 C 
ATOM     10  C   UNL     1      -2.196  -1.049  25.154  0.00  0.00    +0.023 C 
ATOM     12  C   UNL     1      -0.939  -1.603  24.514  0.00  0.00    -0.073 C 
ATOM     13  C   UNL     1       0.149  -0.841  24.304  0.00  0.00    -0.022 C 
ATOM     22  C   UNL     1      -0.944  -3.064  24.162  0.00  0.00    +0.039 C 
ENDROOT
BRANCH   7  11
ATOM     11  C   UNL     1      -0.934   2.583  25.770  0.00  0.00    -0.013 C 
ATOM     19  C   UNL     1       0.270   2.511  26.704  0.00  0.00    +0.007 C 
ATOM     20  C   UNL     1      -0.785   3.736  24.783  0.00  0.00    +0.007 C 
ENDBRANCH   7  11
BRANCH   8  14
ATOM     14  C   UNL     1       0.896   1.376  23.466  0.00  0.00    +0.112 C 
BRANCH  14   4
ATOM      1  O   UNL     1       2.485  -0.160  21.576  0.00  0.00    -0.276 OA
ATOM      4  N   UNL     1       2.314   1.192  23.466  0.00  0.00    -0.315 N 
ATOM     21  C   UNL     1       2.993   0.436  22.517  0.00  0.00    +0.216 C 
ATOM     30  H   UNL     1       2.859   1.684  24.169  0.00  0.00    +0.149 HD
BRANCH  21  15
ATOM     15  C   UNL     1       4.473   0.384  22.710  0.00  0.00    +0.075 C 
ATOM     17  C   UNL     1       5.043   0.688  24.064  0.00  0.00    +0.013 C 
ATOM     18  C   UNL     1       5.062  -0.718  23.542  0.00  0.00    +0.013 C 
ENDBRANCH  21  15
ENDBRANCH  14   4
ENDBRANCH   8  14
BRANCH  10  16
ATOM     16  C   UNL     1      -3.318  -0.901  24.119  0.00  0.00    +0.103 C 
BRANCH  16  23
ATOM      2  O   UNL     1      -2.356   0.643  22.600  0.00  0.00    -0.276 OA
ATOM      3  O   UNL     1      -7.050   4.352  26.512  0.00  0.00    -0.276 OA
ATOM      5  N   UNL     1      -4.150   1.410  23.860  0.00  0.00    -0.298 N 
ATOM      6  N   UNL     1      -5.214   3.605  25.300  0.00  0.00    -0.299 N 
ATOM     23  C   UNL     1      -3.224   0.449  23.453  0.00  0.00    +0.216 C 
ATOM     24  C   UNL     1      -4.125   2.748  23.264  0.00  0.00    +0.126 C 
ATOM     25  C   UNL     1      -5.242   1.189  24.816  0.00  0.00    +0.126 C 
ATOM     26  C   UNL     1      -4.121   3.827  24.344  0.00  0.00    +0.126 C 
ATOM     27  C   UNL     1      -5.239   2.268  25.897  0.00  0.00    +0.126 C 
ATOM     28  C   UNL     1      -6.140   4.565  25.705  0.00  0.00    +0.213 C 
ATOM     29  C   UNL     1      -5.998   5.938  25.099  0.00  0.00    +0.109 C 
ENDBRANCH  16  23
ENDBRANCH  10  16
TORSDOF 6
ENDMDL
MODEL 3
REMARK VINA RESULT:      -0.1     15.935     19.234
REMARK  Name = 38026946
REMARK  10 active torsions:
REMARK  status: ('A' for Active; 'I' for Inactive)
REMARK    1  A    between atoms: N_4  and  C_14
REMARK    2  A    between atoms: C_7  and  C_11
REMARK    3  A    between atoms: C_8  and  C_14
REMARK    4  A    between atoms: C_10  and  C_16
REMARK    5  A    between atoms: C_11  and  C_19
REMARK    6  A    between atoms: C_11  and  C_20
REMARK    7  A    between atoms: C_12  and  C_22
REMARK    8  A    between atoms: C_15  and  C_21
REMARK    9  A    between atoms: C_16  and  C_23
REMARK   10  A    between atoms: C_28  and  C_29
REMARK                            x       y       z     vdW  Elec       q    Type
REMARK                         _______ _______ _______ _____ _____    ______ ____
ROOT
ATOM      7  C   UNL     1      -0.993   0.298  25.102  0.00  0.00    +0.000 C 
ATOM      8  C   UNL     1      -0.240  -0.800  24.313  0.00  0.00    +0.032 C 
ATOM      9  C   UNL     1      -1.866  -0.332  26.199  0.00  0.00    +0.012 C 
ATOM     10  C   UNL     1      -2.902  -1.315  25.624  0.00  0.00    +0.023 C 
ATOM     12  C   UNL     1      -2.279  -2.269  24.624  0.00  0.00    -0.073 C 
ATOM     13  C   UNL     1      -1.083  -2.028  24.058  0.00  0.00    -0.022 C 
ATOM     22  C   UNL     1      -3.043  -3.528  24.322  0.00  0.00    +0.039 C 
ENDROOT
BRANCH   7  11
ATOM     11  C   UNL     1      -0.028   1.311  25.726  0.00  0.00    -0.013 C 
ATOM     19  C   UNL     1       0.280   2.432  24.738  0.00  0.00    +0.007 C 
ATOM     20  C   UNL     1      -0.610   1.875  27.018  0.00  0.00    +0.007 C 
ENDBRANCH   7  11
BRANCH   8  14
ATOM     14  C   UNL     1       0.289  -0.260  22.979  0.00  0.00    +0.112 C 
BRANCH  14   4
ATOM      1  O   UNL     1       2.539   1.565  23.236  0.00  0.00    -0.276 OA
ATOM      4  N   UNL     1       1.678  -0.562  22.825  0.00  0.00    -0.315 N 
ATOM     21  C   UNL     1       2.691   0.379  22.967  0.00  0.00    +0.216 C 
ATOM     30  H   UNL     1       1.940  -1.529  22.653  0.00  0.00    +0.149 HD
BRANCH  21  15
ATOM     15  C   UNL     1       4.070  -0.158  22.766  0.00  0.00    +0.075 C 
ATOM     17  C   UNL     1       5.210   0.454  23.525  0.00  0.00    +0.013 C 
ATOM     18  C   UNL     1       4.725  -0.922  23.880  0.00  0.00    +0.013 C 
ENDBRANCH  21  15
ENDBRANCH  14   4
ENDBRANCH   8  14
BRANCH  10  16
ATOM     16  C   UNL     1      -4.088  -0.569  25.005  0.00  0.00    +0.103 C 
BRANCH  16  23
ATOM      2  O   UNL     1      -3.247  -0.138  22.832  0.00  0.00    -0.276 OA
ATOM      3  O   UNL     1      -2.967   6.077  26.352  0.00  0.00    -0.276 OA
ATOM      5  N   UNL     1      -3.588   1.710  24.197  0.00  0.00    -0.298 N 
ATOM      6  N   UNL     1      -2.565   4.224  25.010  0.00  0.00    -0.299 N 
ATOM     23  C   UNL     1      -3.603   0.346  23.909  0.00  0.00    +0.216 C 
ATOM     24  C   UNL     1      -3.126   2.666  23.187  0.00  0.00    +0.126 C 
ATOM     25  C   UNL     1      -4.074   2.323  25.439  0.00  0.00    +0.126 C 
ATOM     26  C   UNL     1      -2.077   3.611  23.768  0.00  0.00    +0.126 C 
ATOM     27  C   UNL     1      -3.025   3.268  26.021  0.00  0.00    +0.126 C 
ATOM     28  C   UNL     1      -2.551   5.587  25.298  0.00  0.00    +0.213 C 
ATOM     29  C   UNL     1      -1.990   6.496  24.233  0.00  0.00    +0.109 C 
ENDBRANCH  16  23
ENDBRANCH  10  16
TORSDOF 6
ENDMDL
MODEL 4
REMARK VINA RESULT:       0.3      1.840      2.321
REMARK  Name = 38026946
REMARK  10 active torsions:
REMARK  status: ('A' for Active; 'I' for Inactive)
REMARK    1  A    between atoms: N_4  and  C_14
REMARK    2  A    between atoms: C_7  and  C_11
REMARK    3  A    between atoms: C_8  and  C_14
REMARK    4  A    between atoms: C_10  and  C_16
REMARK    5  A    between atoms: C_11  and  C_19
REMARK    6  A    between atoms: C_11  and  C_20
REMARK    7  A    between atoms: C_12  and  C_22
REMARK    8  A    between atoms: C_15  and  C_21
REMARK    9  A    between atoms: C_16  and  C_23
REMARK   10  A    between atoms: C_28  and  C_29
REMARK                            x       y       z     vdW  Elec       q    Type
REMARK                         _______ _______ _______ _____ _____    ______ ____
ROOT
ATOM      7  C   UNL     1      13.524  -8.423  32.128  0.00  0.00    +0.000 C 
ATOM      8  C   UNL     1      12.395  -7.364  32.134  0.00  0.00    +0.032 C 
ATOM      9  C   UNL     1      14.765  -7.888  32.859  0.00  0.00    +0.012 C 
ATOM     10  C   UNL     1      15.305  -6.596  32.220  0.00  0.00    +0.023 C 
ATOM     12  C   UNL     1      14.198  -5.597  31.946  0.00  0.00    -0.073 C 
ATOM     13  C   UNL     1      12.903  -5.957  31.924  0.00  0.00    -0.022 C 
ATOM     22  C   UNL     1      14.612  -4.167  31.742  0.00  0.00    +0.039 C 
ENDROOT
BRANCH   7  11
ATOM     11  C   UNL     1      13.072  -9.739  32.769  0.00  0.00    -0.013 C 
ATOM     19  C   UNL     1      11.928 -10.355  31.969  0.00  0.00    +0.007 C 
ATOM     20  C   UNL     1      14.243 -10.710  32.873  0.00  0.00    +0.007 C 
ENDBRANCH   7  11
BRANCH   8  14
ATOM     14  C   UNL     1      11.329  -7.684  31.078  0.00  0.00    +0.112 C 
BRANCH  14   4
ATOM      1  O   UNL     1       9.491  -9.937  31.114  0.00  0.00    -0.276 OA
ATOM      4  N   UNL     1      10.029  -7.738  31.670  0.00  0.00    -0.315 N 
ATOM     21  C   UNL     1       9.215  -8.865  31.639  0.00  0.00    +0.216 C 
ATOM     30  H   UNL     1       9.705  -6.925  32.186  0.00  0.00    +0.149 HD
BRANCH  21  15
ATOM     15  C   UNL     1       7.899  -8.697  32.324  0.00  0.00    +0.075 C 
ATOM     17  C   UNL     1       7.420  -7.314  32.655  0.00  0.00    +0.013 C 
ATOM     18  C   UNL     1       6.752  -8.098  31.563  0.00  0.00    +0.013 C 
ENDBRANCH  21  15
ENDBRANCH  14   4
ENDBRANCH   8  14
BRANCH  10  16
ATOM     16  C   UNL     1      16.098  -6.900  30.944  0.00  0.00    +0.103 C 
BRANCH  16  23
ATOM      2  O   UNL     1      16.677  -4.603  31.030  0.00  0.00    -0.276 OA
ATOM      3  O   UNL     1      16.912  -6.465  24.133  0.00  0.00    -0.276 OA
ATOM      5  N   UNL     1      16.922  -5.658  28.975  0.00  0.00    -0.298 N 
ATOM      6  N   UNL     1      16.606  -5.395  26.172  0.00  0.00    -0.299 N 
ATOM     23  C   UNL     1      16.591  -5.614  30.329  0.00  0.00    +0.216 C 
ATOM     24  C   UNL     1      17.405  -4.450  28.301  0.00  0.00    +0.126 C 
ATOM     25  C   UNL     1      16.901  -6.860  28.132  0.00  0.00    +0.126 C 
ATOM     26  C   UNL     1      16.625  -4.192  27.015  0.00  0.00    +0.126 C 
ATOM     27  C   UNL     1      16.121  -6.603  26.845  0.00  0.00    +0.126 C 
ATOM     28  C   UNL     1      16.938  -5.439  24.819  0.00  0.00    +0.213 C 
ATOM     29  C   UNL     1      17.354  -4.136  24.184  0.00  0.00    +0.109 C 
ENDBRANCH  16  23
ENDBRANCH  10  16
TORSDOF 6
ENDMDL
MODEL 5
REMARK VINA RESULT:       0.8     16.523     19.963
REMARK  Name = 38026946
REMARK  10 active torsions:
REMARK  status: ('A' for Active; 'I' for Inactive)
REMARK    1  A    between atoms: N_4  and  C_14
REMARK    2  A    between atoms: C_7  and  C_11
REMARK    3  A    between atoms: C_8  and  C_14
REMARK    4  A    between atoms: C_10  and  C_16
REMARK    5  A    between atoms: C_11  and  C_19
REMARK    6  A    between atoms: C_11  and  C_20
REMARK    7  A    between atoms: C_12  and  C_22
REMARK    8  A    between atoms: C_15  and  C_21
REMARK    9  A    between atoms: C_16  and  C_23
REMARK   10  A    between atoms: C_28  and  C_29
REMARK                            x       y       z     vdW  Elec       q    Type
REMARK                         _______ _______ _______ _____ _____    ______ ____
ROOT
ATOM      7  C   UNL     1      -2.334   2.423  23.990  0.00  0.00    +0.000 C 
ATOM      8  C   UNL     1      -1.178   3.093  24.774  0.00  0.00    +0.032 C 
ATOM      9  C   UNL     1      -3.554   3.355  23.933  0.00  0.00    +0.012 C 
ATOM     10  C   UNL     1      -4.068   3.728  25.336  0.00  0.00    +0.023 C 
ATOM     12  C   UNL     1      -2.939   4.147  26.257  0.00  0.00    -0.073 C 
ATOM     13  C   UNL     1      -1.653   3.865  25.982  0.00  0.00    -0.022 C 
ATOM     22  C   UNL     1      -3.319   4.937  27.478  0.00  0.00    +0.039 C 
ENDROOT
BRANCH   7  11
ATOM     11  C   UNL     1      -1.909   2.038  22.570  0.00  0.00    -0.013 C 
ATOM     19  C   UNL     1      -1.827   0.521  22.432  0.00  0.00    +0.007 C 
ATOM     20  C   UNL     1      -2.876   2.622  21.547  0.00  0.00    +0.007 C 
ENDBRANCH   7  11
BRANCH   8  14
ATOM     14  C   UNL     1      -0.131   2.060  25.208  0.00  0.00    +0.112 C 
BRANCH  14   4
ATOM      1  O   UNL     1       0.621  -0.498  24.048  0.00  0.00    -0.276 OA
ATOM      4  N   UNL     1       0.811   1.822  24.160  0.00  0.00    -0.315 N 
ATOM     21  C   UNL     1       1.110   0.558  23.666  0.00  0.00    +0.216 C 
ATOM     30  H   UNL     1       1.248   2.627  23.719  0.00  0.00    +0.149 HD
BRANCH  21  15
ATOM     15  C   UNL     1       2.123   0.546  22.568  0.00  0.00    +0.075 C 
ATOM     17  C   UNL     1       3.439   1.234  22.782  0.00  0.00    +0.013 C 
ATOM     18  C   UNL     1       3.375  -0.265  22.740  0.00  0.00    +0.013 C 
ENDBRANCH  21  15
ENDBRANCH  14   4
ENDBRANCH   8  14
BRANCH  10  16
ATOM     16  C   UNL     1      -4.880   2.582  25.950  0.00  0.00    +0.103 C 
BRANCH  16  23
ATOM      2  O   UNL     1      -6.309   1.696  24.280  0.00  0.00    -0.276 OA
ATOM      3  O   UNL     1      -1.057  -3.074  25.150  0.00  0.00    -0.276 OA
ATOM      5  N   UNL     1      -4.314   0.564  24.643  0.00  0.00    -0.298 N 
ATOM      6  N   UNL     1      -3.081  -1.980  24.832  0.00  0.00    -0.299 N 
ATOM     23  C   UNL     1      -5.239   1.580  24.882  0.00  0.00    +0.216 C 
ATOM     24  C   UNL     1      -4.589  -0.452  23.625  0.00  0.00    +0.126 C 
ATOM     25  C   UNL     1      -3.000   0.441  25.288  0.00  0.00    +0.126 C 
ATOM     26  C   UNL     1      -4.396  -1.857  24.188  0.00  0.00    +0.126 C 
ATOM     27  C   UNL     1      -2.806  -0.965  25.852  0.00  0.00    +0.126 C 
ATOM     28  C   UNL     1      -2.156  -2.994  24.593  0.00  0.00    +0.213 C 
ATOM     29  C   UNL     1      -2.549  -4.042  23.583  0.00  0.00    +0.109 C 
ENDBRANCH  16  23
ENDBRANCH  10  16
TORSDOF 6
ENDMDL
MODEL 6
REMARK VINA RESULT:       1.0     17.075     20.026
REMARK  Name = 38026946
REMARK  10 active torsions:
REMARK  status: ('A' for Active; 'I' for Inactive)
REMARK    1  A    between atoms: N_4  and  C_14
REMARK    2  A    between atoms: C_7  and  C_11
REMARK    3  A    between atoms: C_8  and  C_14
REMARK    4  A    between atoms: C_10  and  C_16
REMARK    5  A    between atoms: C_11  and  C_19
REMARK    6  A    between atoms: C_11  and  C_20
REMARK    7  A    between atoms: C_12  and  C_22
REMARK    8  A    between atoms: C_15  and  C_21
REMARK    9  A    between atoms: C_16  and  C_23
REMARK   10  A    between atoms: C_28  and  C_29
REMARK                            x       y       z     vdW  Elec       q    Type
REMARK                         _______ _______ _______ _____ _____    ______ ____
ROOT
ATOM      7  C   UNL     1      -4.757   2.103  25.228  0.00  0.00    +0.000 C 
ATOM      8  C   UNL     1      -4.586   2.201  23.692  0.00  0.00    +0.032 C 
ATOM      9  C   UNL     1      -5.043   3.489  25.825  0.00  0.00    +0.012 C 
ATOM     10  C   UNL     1      -3.919   4.497  25.523  0.00  0.00    +0.023 C 
ATOM     12  C   UNL     1      -3.506   4.461  24.065  0.00  0.00    -0.073 C 
ATOM     13  C   UNL     1      -3.825   3.432  23.259  0.00  0.00    -0.022 C 
ATOM     22  C   UNL     1      -2.758   5.655  23.543  0.00  0.00    +0.039 C 
ENDROOT
BRANCH   7  11
ATOM     11  C   UNL     1      -5.876   1.130  25.614  0.00  0.00    -0.013 C 
ATOM     19  C   UNL     1      -6.406   1.455  27.007  0.00  0.00    +0.007 C 
ATOM     20  C   UNL     1      -6.999   1.174  24.583  0.00  0.00    +0.007 C 
ENDBRANCH   7  11
BRANCH   8  14
ATOM     14  C   UNL     1      -3.896   0.951  23.130  0.00  0.00    +0.112 C 
BRANCH  14   4
ATOM      1  O   UNL     1      -4.418  -1.907  23.014  0.00  0.00    -0.276 OA
ATOM      4  N   UNL     1      -3.682  -0.016  24.161  0.00  0.00    -0.315 N 
ATOM     21  C   UNL     1      -3.963  -1.370  24.016  0.00  0.00    +0.216 C 
ATOM     30  H   UNL     1      -3.255   0.297  25.028  0.00  0.00    +0.149 HD
BRANCH  21  15
ATOM     15  C   UNL     1      -3.659  -2.198  25.221  0.00  0.00    +0.075 C 
ATOM     17  C   UNL     1      -2.228  -2.389  25.633  0.00  0.00    +0.013 C 
ATOM     18  C   UNL     1      -3.137  -1.524  26.457  0.00  0.00    +0.013 C 
ENDBRANCH  21  15
ENDBRANCH  14   4
ENDBRANCH   8  14
BRANCH  10  16
ATOM     16  C   UNL     1      -2.713   4.270  26.440  0.00  0.00    +0.103 C 
BRANCH  16  23
ATOM      2  O   UNL     1      -1.053   5.522  25.302  0.00  0.00    -0.276 OA
ATOM      3  O   UNL     1       0.383  -1.356  23.987  0.00  0.00    -0.276 OA
ATOM      5  N   UNL     1      -0.759   3.219  25.355  0.00  0.00    -0.298 N 
ATOM      6  N   UNL     1       0.054   0.941  23.879  0.00  0.00    -0.299 N 
ATOM     23  C   UNL     1      -1.436   4.402  25.649  0.00  0.00    +0.216 C 
ATOM     24  C   UNL     1       0.487   3.260  24.586  0.00  0.00    +0.126 C 
ATOM     25  C   UNL     1      -1.147   1.880  25.816  0.00  0.00    +0.126 C 
ATOM     26  C   UNL     1       0.441   2.281  23.416  0.00  0.00    +0.126 C 
ATOM     27  C   UNL     1      -1.193   0.899  24.646  0.00  0.00    +0.126 C 
ATOM     28  C   UNL     1       0.731  -0.241  23.586  0.00  0.00    +0.213 C 
ATOM     29  C   UNL     1       1.964  -0.118  22.727  0.00  0.00    +0.109 C 
ENDBRANCH  16  23
ENDBRANCH  10  16
TORSDOF 6
ENDMDL
MODEL 7
REMARK VINA RESULT:       1.4     16.527     19.933
REMARK  Name = 38026946
REMARK  10 active torsions:
REMARK  status: ('A' for Active; 'I' for Inactive)
REMARK    1  A    between atoms: N_4  and  C_14
REMARK    2  A    between atoms: C_7  and  C_11
REMARK    3  A    between atoms: C_8  and  C_14
REMARK    4  A    between atoms: C_10  and  C_16
REMARK    5  A    between atoms: C_11  and  C_19
REMARK    6  A    between atoms: C_11  and  C_20
REMARK    7  A    between atoms: C_12  and  C_22
REMARK    8  A    between atoms: C_15  and  C_21
REMARK    9  A    between atoms: C_16  and  C_23
REMARK   10  A    between atoms: C_28  and  C_29
REMARK                            x       y       z     vdW  Elec       q    Type
REMARK                         _______ _______ _______ _____ _____    ______ ____
ROOT
ATOM      7  C   UNL     1      -2.405   2.691  23.845  0.00  0.00    +0.000 C 
ATOM      8  C   UNL     1      -1.299   3.539  24.520  0.00  0.00    +0.032 C 
ATOM      9  C   UNL     1      -3.745   3.442  23.866  0.00  0.00    +0.012 C 
ATOM     10  C   UNL     1      -4.198   3.783  25.297  0.00  0.00    +0.023 C 
ATOM     12  C   UNL     1      -3.073   4.384  26.116  0.00  0.00    -0.073 C 
ATOM     13  C   UNL     1      -1.785   4.275  25.746  0.00  0.00    -0.022 C 
ATOM     22  C   UNL     1      -3.466   5.151  27.348  0.00  0.00    +0.039 C 
ENDROOT
BRANCH   7  11
ATOM     11  C   UNL     1      -2.039   2.323  22.403  0.00  0.00    -0.013 C 
ATOM     19  C   UNL     1      -1.518   0.891  22.335  0.00  0.00    +0.007 C 
ATOM     20  C   UNL     1      -3.243   2.505  21.485  0.00  0.00    +0.007 C 
ENDBRANCH   7  11
BRANCH   8  14
ATOM     14  C   UNL     1      -0.087   2.675  24.890  0.00  0.00    +0.112 C 
BRANCH  14   4
ATOM      1  O   UNL     1      -0.072   1.286  27.445  0.00  0.00    -0.276 OA
ATOM      4  N   UNL     1       0.494   3.117  26.119  0.00  0.00    -0.315 N 
ATOM     21  C   UNL     1       0.453   2.383  27.298  0.00  0.00    +0.216 C 
ATOM     30  H   UNL     1       1.010   3.994  26.115  0.00  0.00    +0.149 HD
BRANCH  21  15
ATOM     15  C   UNL     1       1.128   3.037  28.459  0.00  0.00    +0.075 C 
ATOM     17  C   UNL     1       1.476   2.209  29.662  0.00  0.00    +0.013 C 
ATOM     18  C   UNL     1       2.562   2.703  28.752  0.00  0.00    +0.013 C 
ENDBRANCH  21  15
ENDBRANCH  14   4
ENDBRANCH   8  14
BRANCH  10  16
ATOM     16  C   UNL     1      -4.791   2.556  25.997  0.00  0.00    +0.103 C 
BRANCH  16  23
ATOM      2  O   UNL     1      -6.282   1.563  24.446  0.00  0.00    -0.276 OA
ATOM      3  O   UNL     1      -0.733  -2.906  25.027  0.00  0.00    -0.276 OA
ATOM      5  N   UNL     1      -4.208   0.545  24.688  0.00  0.00    -0.298 N 
ATOM      6  N   UNL     1      -2.830  -1.926  24.833  0.00  0.00    -0.299 N 
ATOM     23  C   UNL     1      -5.168   1.515  24.974  0.00  0.00    +0.216 C 
ATOM     24  C   UNL     1      -4.497  -0.504  23.708  0.00  0.00    +0.126 C 
ATOM     25  C   UNL     1      -2.849   0.503  25.242  0.00  0.00    +0.126 C 
ATOM     26  C   UNL     1      -4.191  -1.886  24.279  0.00  0.00    +0.126 C 
ATOM     27  C   UNL     1      -2.541  -0.878  25.814  0.00  0.00    +0.126 C 
ATOM     28  C   UNL     1      -1.870  -2.895  24.546  0.00  0.00    +0.213 C 
ATOM     29  C   UNL     1      -2.275  -3.983  23.583  0.00  0.00    +0.109 C 
ENDBRANCH  16  23
ENDBRANCH  10  16
TORSDOF 6
ENDMDL
