MODEL 1
REMARK VINA RESULT:       6.4      0.000      0.000
REMARK  Name = 11911977
REMARK  5 active torsions:
REMARK  status: ('A' for Active; 'I' for Inactive)
REMARK    1  A    between atoms: O_4  and  C_27
REMARK    2  A    between atoms: N_5  and  C_14
REMARK    3  A    between atoms: C_14  and  C_19
REMARK    4  A    between atoms: C_17  and  C_20
REMARK    5  A    between atoms: C_23  and  C_27
REMARK                            x       y       z     vdW  Elec       q    Type
REMARK                         _______ _______ _______ _____ _____    ______ ____
ROOT
ATOM      2  O   UNL     1       0.586   2.205  25.817  0.00  0.00    -0.267 OA
ATOM      5  N   UNL     1      -4.357   1.745  25.111  0.00  0.00    -0.294 NA
ATOM      6  N   UNL     1      -1.370   2.782  24.687  0.00  0.00    -0.311 N 
ATOM      7  C   UNL     1      -3.353   3.922  25.846  0.00  0.00    +0.024 C 
ATOM      8  C   UNL     1      -3.478   3.400  23.457  0.00  0.00    +0.050 C 
ATOM      9  C   UNL     1      -3.614   4.530  24.474  0.00  0.00    +0.017 C 
ATOM     10  C   UNL     1      -4.373   2.800  26.132  0.00  0.00    +0.090 C 
ATOM     11  C   UNL     1      -4.524   2.303  23.760  0.00  0.00    +0.094 C 
ATOM     12  C   UNL     1      -1.900   3.426  25.898  0.00  0.00    +0.130 C 
ATOM     13  C   UNL     1      -2.077   2.818  23.484  0.00  0.00    +0.026 A 
ATOM     15  C   UNL     1      -1.524   2.323  22.363  0.00  0.00    +0.022 A 
ATOM     16  C   UNL     1      -0.080   2.225  24.781  0.00  0.00    +0.260 A 
ATOM     17  C   UNL     1       0.499   1.647  23.516  0.00  0.00    +0.053 A 
ATOM     18  C   UNL     1      -0.220   1.725  22.387  0.00  0.00    +0.016 A 
ENDROOT
BRANCH  17  20
ATOM      1  S   UNL     1       1.942  -0.687  23.755  0.00  0.00    -0.088 S 
ATOM     20  C   UNL     1       1.823   1.000  23.509  0.00  0.00    +0.026 A 
ATOM     22  C   UNL     1       3.063   1.573  23.322  0.00  0.00    +0.024 A 
ATOM     25  C   UNL     1       4.139   0.624  23.380  0.00  0.00    -0.010 A 
ATOM     26  C   UNL     1       3.660  -0.669  23.614  0.00  0.00    +0.020 A 
ATOM     28  C   UNL     1       5.536   0.805  23.241  0.00  0.00    +0.009 A 
ATOM     29  C   UNL     1       4.532  -1.771  23.711  0.00  0.00    +0.015 A 
ATOM     30  C   UNL     1       6.404  -0.286  23.337  0.00  0.00    +0.001 A 
ATOM     31  C   UNL     1       5.905  -1.559  23.569  0.00  0.00    +0.001 A 
ENDBRANCH  17  20
BRANCH   5  14
ATOM     14  C   UNL     1      -5.372   0.732  25.388  0.00  0.00    +0.158 C 
BRANCH  14  19
ATOM      3  O   UNL     1      -3.775  -1.064  25.358  0.00  0.00    -0.461 OA
ATOM     19  C   UNL     1      -4.946  -0.616  24.873  0.00  0.00    +0.119 A 
ATOM     21  C   UNL     1      -5.520  -1.476  24.003  0.00  0.00    +0.046 A 
ATOM     23  C   UNL     1      -3.584  -2.275  24.773  0.00  0.00    +0.131 A 
ATOM     24  C   UNL     1      -4.630  -2.574  23.929  0.00  0.00    +0.047 A 
BRANCH  23  27
ATOM     27  C   UNL     1      -2.353  -2.989  25.141  0.00  0.00    +0.230 C 
BRANCH  27   4
ATOM      4  O   UNL     1      -1.246  -2.122  24.889  0.00  0.00    -0.387 OA
ATOM     32  H   UNL     1      -1.604  -1.222  24.813  0.00  0.00    +0.210 HD
ENDBRANCH  27   4
ENDBRANCH  23  27
ENDBRANCH  14  19
ENDBRANCH   5  14
TORSDOF 5
ENDMDL
MODEL 2
REMARK VINA RESULT:       9.5      1.898      4.315
REMARK  Name = 11911977
REMARK  5 active torsions:
REMARK  status: ('A' for Active; 'I' for Inactive)
REMARK    1  A    between atoms: O_4  and  C_27
REMARK    2  A    between atoms: N_5  and  C_14
REMARK    3  A    between atoms: C_14  and  C_19
REMARK    4  A    between atoms: C_17  and  C_20
REMARK    5  A    between atoms: C_23  and  C_27
REMARK                            x       y       z     vdW  Elec       q    Type
REMARK                         _______ _______ _______ _____ _____    ______ ____
ROOT
ATOM      2  O   UNL     1      -0.403   0.207  22.280  0.00  0.00    -0.267 OA
ATOM      5  N   UNL     1      -4.223   1.370  25.314  0.00  0.00    -0.294 NA
ATOM      6  N   UNL     1      -2.107  -0.426  23.741  0.00  0.00    -0.311 N 
ATOM      7  C   UNL     1      -4.585   0.001  23.245  0.00  0.00    +0.024 C 
ATOM      8  C   UNL     1      -3.938  -1.112  25.327  0.00  0.00    +0.050 C 
ATOM      9  C   UNL     1      -4.816  -1.247  24.086  0.00  0.00    +0.017 C 
ATOM     10  C   UNL     1      -4.964   1.261  24.051  0.00  0.00    +0.090 C 
ATOM     11  C   UNL     1      -4.354   0.147  26.121  0.00  0.00    +0.094 C 
ATOM     12  C   UNL     1      -3.123   0.018  22.776  0.00  0.00    +0.130 C 
ATOM     13  C   UNL     1      -2.472  -1.037  24.942  0.00  0.00    +0.026 A 
ATOM     15  C   UNL     1      -1.528  -1.536  25.758  0.00  0.00    +0.022 A 
ATOM     16  C   UNL     1      -0.761  -0.296  23.347  0.00  0.00    +0.260 A 
ATOM     17  C   UNL     1       0.276  -0.834  24.297  0.00  0.00    +0.053 A 
ATOM     18  C   UNL     1      -0.136  -1.425  25.428  0.00  0.00    +0.016 A 
ENDROOT
BRANCH  17  20
ATOM      1  S   UNL     1       2.321   0.732  23.323  0.00  0.00    -0.088 S 
ATOM     20  C   UNL     1       1.715  -0.712  24.005  0.00  0.00    +0.026 A 
ATOM     22  C   UNL     1       2.718  -1.636  24.209  0.00  0.00    +0.024 A 
ATOM     25  C   UNL     1       4.012  -1.165  23.801  0.00  0.00    -0.010 A 
ATOM     26  C   UNL     1       3.939   0.136  23.291  0.00  0.00    +0.020 A 
ATOM     28  C   UNL     1       5.278  -1.797  23.842  0.00  0.00    +0.009 A 
ATOM     29  C   UNL     1       5.084   0.811  22.827  0.00  0.00    +0.015 A 
ATOM     30  C   UNL     1       6.417  -1.130  23.383  0.00  0.00    +0.001 A 
ATOM     31  C   UNL     1       6.319   0.160  22.881  0.00  0.00    +0.001 A 
ENDBRANCH  17  20
BRANCH   5  14
ATOM     14  C   UNL     1      -4.648   2.545  26.071  0.00  0.00    +0.158 C 
BRANCH  14  19
ATOM      3  O   UNL     1      -2.514   3.347  25.311  0.00  0.00    -0.461 OA
ATOM     19  C   UNL     1      -3.676   3.680  25.900  0.00  0.00    +0.119 A 
ATOM     21  C   UNL     1      -3.745   4.989  26.227  0.00  0.00    +0.046 A 
ATOM     23  C   UNL     1      -1.797   4.500  25.256  0.00  0.00    +0.131 A 
ATOM     24  C   UNL     1      -2.511   5.540  25.807  0.00  0.00    +0.047 A 
BRANCH  23  27
ATOM     27  C   UNL     1      -0.463   4.408  24.647  0.00  0.00    +0.230 C 
BRANCH  27   4
ATOM      4  O   UNL     1      -0.261   3.058  24.223  0.00  0.00    -0.387 OA
ATOM     32  H   UNL     1      -0.606   2.486  24.930  0.00  0.00    +0.210 HD
ENDBRANCH  27   4
ENDBRANCH  23  27
ENDBRANCH  14  19
ENDBRANCH   5  14
TORSDOF 5
ENDMDL
