MODEL 1
REMARK VINA RESULT:      -4.1      0.000      0.000
REMARK  Name = 11885153
REMARK  6 active torsions:
REMARK  status: ('A' for Active; 'I' for Inactive)
REMARK    1  A    between atoms: S_1  and  C_20
REMARK    2  A    between atoms: S_1  and  C_27
REMARK    3  A    between atoms: O_4  and  C_31
REMARK    4  A    between atoms: C_17  and  C_20
REMARK    5  A    between atoms: C_18  and  C_21
REMARK    6  A    between atoms: C_27  and  C_31
REMARK                            x       y       z     vdW  Elec       q    Type
REMARK                         _______ _______ _______ _____ _____    ______ ____
ROOT
ATOM      2  O   UNL     1      12.003  -6.500  30.503  0.00  0.00    -0.267 OA
ATOM      3  O   UNL     1      15.914  -7.921  27.145  0.00  0.00    -0.275 OA
ATOM      6  N   UNL     1      16.776  -7.412  29.241  0.00  0.00    -0.300 N 
ATOM      7  N   UNL     1      14.246  -6.766  31.080  0.00  0.00    -0.311 N 
ATOM      8  C   UNL     1      16.086  -5.214  30.207  0.00  0.00    +0.027 C 
ATOM      9  C   UNL     1      16.667  -7.076  31.704  0.00  0.00    +0.054 C 
ATOM     10  C   UNL     1      16.807  -5.568  31.501  0.00  0.00    +0.018 C 
ATOM     11  C   UNL     1      16.710  -5.966  29.018  0.00  0.00    +0.113 C 
ATOM     12  C   UNL     1      14.594  -5.528  30.369  0.00  0.00    +0.130 C 
ATOM     13  C   UNL     1      17.344  -7.818  30.535  0.00  0.00    +0.117 C 
ATOM     14  C   UNL     1      15.209  -7.483  31.796  0.00  0.00    +0.027 A 
ATOM     15  C   UNL     1      14.847  -8.542  32.537  0.00  0.00    +0.022 A 
ATOM     16  C   UNL     1      12.885  -7.126  31.093  0.00  0.00    +0.259 A 
ATOM     17  C   UNL     1      16.388  -8.283  28.225  0.00  0.00    +0.225 C 
ATOM     18  C   UNL     1      12.515  -8.340  31.902  0.00  0.00    +0.047 A 
ATOM     19  C   UNL     1      13.479  -8.976  32.584  0.00  0.00    +0.015 A 
ENDROOT
BRANCH  18  21
ATOM     21  C   UNL     1      11.127  -8.833  31.948  0.00  0.00    -0.012 A 
ATOM     22  C   UNL     1      10.098  -7.987  32.363  0.00  0.00    +0.017 A 
ATOM     23  C   UNL     1      10.842 -10.144  31.574  0.00  0.00    +0.009 A 
ATOM     24  C   UNL     1       8.770  -8.442  32.412  0.00  0.00    -0.017 A 
ATOM     25  C   UNL     1       9.529 -10.612  31.616  0.00  0.00    +0.009 A 
ATOM     26  C   UNL     1       8.481  -9.775  32.032  0.00  0.00    -0.018 A 
ATOM     28  C   UNL     1       7.723  -7.604  32.827  0.00  0.00    +0.008 A 
ATOM     29  C   UNL     1       7.153 -10.230  32.080  0.00  0.00    +0.008 A 
ATOM     30  C   UNL     1       6.409  -8.074  32.869  0.00  0.00    +0.001 A 
ATOM     32  C   UNL     1       6.126  -9.383  32.497  0.00  0.00    +0.001 A 
ENDBRANCH  18  21
BRANCH  17  20
ATOM     20  C   UNL     1      16.567  -9.757  28.494  0.00  0.00    +0.165 C 
BRANCH  20   1
ATOM      1  S   UNL     1      16.490 -10.613  26.913  0.00  0.00    -0.140 S 
BRANCH   1  27
ATOM     27  C   UNL     1      14.692 -10.754  26.760  0.00  0.00    +0.189 C 
BRANCH  27  31
ATOM      5  O   UNL     1      13.158 -10.775  24.900  0.00  0.00    -0.250 OA
ATOM     31  C   UNL     1      14.312 -10.720  25.308  0.00  0.00    +0.315 C 
BRANCH  31   4
ATOM      4  O   UNL     1      15.386 -10.605  24.487  0.00  0.00    -0.480 OA
ATOM     33  H   UNL     1      15.761  -9.698  24.498  0.00  0.00    +0.295 HD
ENDBRANCH  31   4
ENDBRANCH  27  31
ENDBRANCH   1  27
ENDBRANCH  20   1
ENDBRANCH  17  20
TORSDOF 6
ENDMDL
