MODEL 1
REMARK VINA RESULT:       7.6      0.000      0.000
REMARK  Name = 7113084
REMARK  7 active torsions:
REMARK  status: ('A' for Active; 'I' for Inactive)
REMARK    1  A    between atoms: N_6  and  C_12
REMARK    2  A    between atoms: N_8  and  C_25
REMARK    3  A    between atoms: N_9  and  C_29
REMARK    4  A    between atoms: C_18  and  C_23
REMARK    5  A    between atoms: C_25  and  C_26
REMARK    6  A    between atoms: C_25  and  C_27
REMARK    7  A    between atoms: C_26  and  C_28
REMARK                            x       y       z     vdW  Elec       q    Type
REMARK                         _______ _______ _______ _____ _____    ______ ____
ROOT
ATOM      1  O   UNL     1      -4.075  -1.083  25.911  0.00  0.00    -0.253 OA
ATOM      3  O   UNL     1       1.834   0.195  21.807  0.00  0.00    -0.252 OA
ATOM      5  N   UNL     1      -2.428  -0.300  24.469  0.00  0.00    -0.271 N 
ATOM      6  N   UNL     1      -4.503   0.814  24.685  0.00  0.00    -0.296 N 
ATOM      7  N   UNL     1       0.285  -0.434  23.408  0.00  0.00    -0.282 N 
ATOM      9  N   UNL     1       2.590  -0.704  23.818  0.00  0.00    -0.269 N 
ATOM     18  C   UNL     1      -2.002   0.558  23.353  0.00  0.00    +0.181 C 
ATOM     19  C   UNL     1      -0.841  -0.038  22.554  0.00  0.00    +0.141 C 
ATOM     20  C   UNL     1      -1.520  -1.389  24.839  0.00  0.00    +0.129 C 
ATOM     21  C   UNL     1      -0.054  -0.994  24.722  0.00  0.00    +0.128 C 
ATOM     22  C   UNL     1      -3.698  -0.250  25.080  0.00  0.00    +0.303 C 
ATOM     24  C   UNL     1       1.605  -0.283  22.921  0.00  0.00    +0.307 C 
ATOM     39  H   UNL     1      -4.122   1.541  24.094  0.00  0.00    +0.151 HD
ATOM     41  H   UNL     1       2.304  -1.044  24.729  0.00  0.00    +0.156 HD
ENDROOT
BRANCH   6  12
ATOM     12  C   UNL     1      -5.832   1.012  25.219  0.00  0.00    +0.074 C 
ATOM     13  C   UNL     1      -5.776   1.542  26.656  0.00  0.00    +0.022 C 
ATOM     14  C   UNL     1      -6.655   1.938  24.318  0.00  0.00    +0.022 C 
ATOM     15  C   UNL     1      -5.309   2.996  26.725  0.00  0.00    +0.002 C 
ATOM     16  C   UNL     1      -6.188   3.392  24.391  0.00  0.00    +0.002 C 
ATOM     17  C   UNL     1      -6.150   3.900  25.828  0.00  0.00    +0.000 C 
ENDBRANCH   6  12
BRANCH   9  29
ATOM     29  C   UNL     1       3.995  -0.686  23.633  0.00  0.00    +0.035 A 
ATOM     32  C   UNL     1       4.745  -1.838  23.870  0.00  0.00    +0.023 A 
ATOM     33  C   UNL     1       4.628   0.485  23.216  0.00  0.00    +0.023 A 
ATOM     35  C   UNL     1       6.127  -1.820  23.689  0.00  0.00    +0.002 A 
ATOM     36  C   UNL     1       6.011   0.504  23.034  0.00  0.00    +0.002 A 
ATOM     37  C   UNL     1       6.761  -0.649  23.270  0.00  0.00    +0.000 A 
ENDBRANCH   9  29
BRANCH  18  23
ATOM      2  O   UNL     1      -1.650   2.921  23.277  0.00  0.00    -0.274 OA
ATOM      8  N   UNL     1      -1.142   1.769  25.235  0.00  0.00    -0.302 N 
ATOM     23  C   UNL     1      -1.593   1.883  23.931  0.00  0.00    +0.236 C 
ATOM     40  H   UNL     1      -1.122   0.858  25.680  0.00  0.00    +0.150 HD
BRANCH   8  25
ATOM     25  C   UNL     1      -0.670   2.894  26.009  0.00  0.00    +0.163 C 
BRANCH  25  27
ATOM      4  O   UNL     1      -2.663   4.275  25.859  0.00  0.00    -0.274 OA
ATOM     10  N   UNL     1      -0.729   5.028  24.875  0.00  0.00    -0.328 N 
ATOM     27  C   UNL     1      -1.479   4.108  25.577  0.00  0.00    +0.231 C 
ATOM     42  H   UNL     1       0.255   4.887  24.668  0.00  0.00    +0.145 HD
ATOM     43  H   UNL     1      -1.144   5.890  24.539  0.00  0.00    +0.145 HD
ENDBRANCH  25  27
BRANCH  25  26
ATOM     26  C   UNL     1      -0.818   2.664  27.517  0.00  0.00    +0.068 C 
BRANCH  26  28
ATOM     11  N   UNL     1       2.904   2.943  28.169  0.00  0.00    -0.263 NA
ATOM     28  C   UNL     1       0.509   2.618  28.234  0.00  0.00    -0.027 A 
ATOM     30  C   UNL     1       0.592   2.228  29.566  0.00  0.00    +0.006 A 
ATOM     31  C   UNL     1       1.684   2.963  27.587  0.00  0.00    +0.114 A 
ATOM     34  C   UNL     1       1.828   2.195  30.201  0.00  0.00    +0.020 A 
ATOM     38  C   UNL     1       2.944   2.558  29.465  0.00  0.00    +0.111 A 
ENDBRANCH  26  28
ENDBRANCH  25  26
ENDBRANCH   8  25
ENDBRANCH  18  23
TORSDOF 7
ENDMDL
