MODEL 1
REMARK VINA RESULT:      -3.7      0.000      0.000
REMARK  Name = 26743498
REMARK  8 active torsions:
REMARK  status: ('A' for Active; 'I' for Inactive)
REMARK    1  A    between atoms: O_1  and  C_11
REMARK    2  A    between atoms: N_3  and  C_13
REMARK    3  A    between atoms: N_6  and  C_21
REMARK    4  A    between atoms: N_6  and  C_23
REMARK    5  A    between atoms: N_6  and  C_24
REMARK    6  A    between atoms: C_9  and  C_14
REMARK    7  A    between atoms: C_13  and  C_15
REMARK    8  A    between atoms: C_18  and  C_22
REMARK                            x       y       z     vdW  Elec       q    Type
REMARK                         _______ _______ _______ _____ _____    ______ ____
ROOT
ATOM      3  N   UNL     1      -2.764 -10.027  12.806  0.00  0.00    -0.285 NA
ATOM      9  C   UNL     1      -3.396 -10.781  13.907  0.00  0.00    +0.149 C 
ATOM     10  C   UNL     1      -2.528 -10.476  15.142  0.00  0.00    +0.061 C 
ATOM     11  C   UNL     1      -1.408  -9.581  14.626  0.00  0.00    +0.130 C 
ATOM     12  C   UNL     1      -1.348  -9.907  13.146  0.00  0.00    +0.116 C 
ENDROOT
BRANCH   9  14
ATOM      2  O   UNL     1      -5.188  -9.920  15.329  0.00  0.00    -0.336 OA
ATOM      4  N   UNL     1      -5.852 -10.496  13.269  0.00  0.00    -0.189 NA
ATOM      5  N   UNL     1      -6.563  -9.657  15.275  0.00  0.00    -0.054 NA
ATOM     14  C   UNL     1      -4.851 -10.412  14.108  0.00  0.00    +0.245 A 
ATOM     18  C   UNL     1      -6.881 -10.022  14.029  0.00  0.00    +0.222 A 
BRANCH  18  22
ATOM      7  N   UNL     1      -8.357 -10.034  12.178  0.00  0.00    -0.249 NA
ATOM      8  N   UNL     1     -10.553  -9.632  13.875  0.00  0.00    -0.260 NA
ATOM     22  C   UNL     1      -8.215  -9.924  13.513  0.00  0.00    +0.129 A 
ATOM     25  C   UNL     1      -9.294  -9.727  14.347  0.00  0.00    +0.142 A 
ATOM     26  C   UNL     1      -9.616  -9.939  11.705  0.00  0.00    +0.131 A 
ATOM     27  C   UNL     1     -10.695  -9.742  12.539  0.00  0.00    +0.130 A 
ENDBRANCH  18  22
ENDBRANCH   9  14
BRANCH  11   1
ATOM      1  O   UNL     1      -0.189  -9.876  15.279  0.00  0.00    -0.390 OA
ATOM     28  H   UNL     1       0.442  -9.171  15.050  0.00  0.00    +0.210 HD
ENDBRANCH  11   1
BRANCH   3  13
ATOM     13  C   UNL     1      -2.964 -10.643  11.500  0.00  0.00    +0.120 C 
BRANCH  13  15
ATOM     15  C   UNL     1      -4.107 -10.010  10.751  0.00  0.00    -0.033 A 
ATOM     16  C   UNL     1      -4.404  -8.661  10.942  0.00  0.00    +0.007 A 
ATOM     17  C   UNL     1      -4.869 -10.774   9.866  0.00  0.00    +0.007 A 
ATOM     19  C   UNL     1      -5.463  -8.075  10.248  0.00  0.00    +0.023 A 
ATOM     20  C   UNL     1      -5.927 -10.188   9.173  0.00  0.00    +0.023 A 
ATOM     21  C   UNL     1      -6.224  -8.839   9.363  0.00  0.00    +0.029 A 
BRANCH  21   6
ATOM      6  N   UNL     1      -7.295  -8.245   8.662  0.00  0.00    -0.336 N 
ATOM     23  C   UNL     1      -8.499  -9.002   8.383  0.00  0.00    +0.129 C 
ATOM     24  C   UNL     1      -7.206  -6.868   8.218  0.00  0.00    +0.129 C 
ENDBRANCH  21   6
ENDBRANCH  13  15
ENDBRANCH   3  13
TORSDOF 6
ENDMDL
MODEL 2
REMARK VINA RESULT:      -3.5      1.304      2.052
REMARK  Name = 26743498
REMARK  8 active torsions:
REMARK  status: ('A' for Active; 'I' for Inactive)
REMARK    1  A    between atoms: O_1  and  C_11
REMARK    2  A    between atoms: N_3  and  C_13
REMARK    3  A    between atoms: N_6  and  C_21
REMARK    4  A    between atoms: N_6  and  C_23
REMARK    5  A    between atoms: N_6  and  C_24
REMARK    6  A    between atoms: C_9  and  C_14
REMARK    7  A    between atoms: C_13  and  C_15
REMARK    8  A    between atoms: C_18  and  C_22
REMARK                            x       y       z     vdW  Elec       q    Type
REMARK                         _______ _______ _______ _____ _____    ______ ____
ROOT
ATOM      3  N   UNL     1      -2.713  -9.914  12.831  0.00  0.00    -0.285 NA
ATOM      9  C   UNL     1      -3.340 -10.781  13.849  0.00  0.00    +0.149 C 
ATOM     10  C   UNL     1      -2.534 -10.522  15.136  0.00  0.00    +0.061 C 
ATOM     11  C   UNL     1      -1.450  -9.531  14.730  0.00  0.00    +0.130 C 
ATOM     12  C   UNL     1      -1.319  -9.743  13.234  0.00  0.00    +0.116 C 
ENDROOT
BRANCH   9  14
ATOM      2  O   UNL     1      -5.597 -10.676  12.917  0.00  0.00    -0.336 OA
ATOM      4  N   UNL     1      -5.475 -10.124  15.084  0.00  0.00    -0.189 NA
ATOM      5  N   UNL     1      -6.904 -10.368  13.314  0.00  0.00    -0.054 NA
ATOM     14  C   UNL     1      -4.819 -10.507  14.018  0.00  0.00    +0.245 A 
ATOM     18  C   UNL     1      -6.750 -10.052  14.603  0.00  0.00    +0.222 A 
BRANCH  18  22
ATOM      7  N   UNL     1      -9.049  -9.536  14.839  0.00  0.00    -0.249 NA
ATOM      8  N   UNL     1      -8.702  -9.063  17.582  0.00  0.00    -0.260 NA
ATOM     22  C   UNL     1      -7.849  -9.663  15.439  0.00  0.00    +0.129 A 
ATOM     25  C   UNL     1      -7.679  -9.430  16.786  0.00  0.00    +0.142 A 
ATOM     26  C   UNL     1     -10.073  -9.168  15.635  0.00  0.00    +0.131 A 
ATOM     27  C   UNL     1      -9.903  -8.936  16.982  0.00  0.00    +0.130 A 
ENDBRANCH  18  22
ENDBRANCH   9  14
BRANCH  11   1
ATOM      1  O   UNL     1      -0.240  -9.807  15.408  0.00  0.00    -0.390 OA
ATOM     28  H   UNL     1       0.488  -9.644  14.783  0.00  0.00    +0.210 HD
ENDBRANCH  11   1
BRANCH   3  13
ATOM     13  C   UNL     1      -2.831 -10.441  11.477  0.00  0.00    +0.120 C 
BRANCH  13  15
ATOM     15  C   UNL     1      -4.048  -9.905  10.771  0.00  0.00    -0.033 A 
ATOM     16  C   UNL     1      -4.932 -10.781  10.141  0.00  0.00    +0.007 A 
ATOM     17  C   UNL     1      -4.292  -8.531  10.747  0.00  0.00    +0.007 A 
ATOM     19  C   UNL     1      -6.059 -10.284   9.487  0.00  0.00    +0.023 A 
ATOM     20  C   UNL     1      -5.419  -8.034  10.094  0.00  0.00    +0.023 A 
ATOM     21  C   UNL     1      -6.302  -8.910   9.464  0.00  0.00    +0.029 A 
BRANCH  21   6
ATOM      6  N   UNL     1      -7.443  -8.408   8.802  0.00  0.00    -0.336 N 
ATOM     23  C   UNL     1      -8.610  -9.246   8.612  0.00  0.00    +0.129 C 
ATOM     24  C   UNL     1      -7.464  -7.045   8.309  0.00  0.00    +0.129 C 
ENDBRANCH  21   6
ENDBRANCH  13  15
ENDBRANCH   3  13
TORSDOF 6
ENDMDL
MODEL 3
REMARK VINA RESULT:      -1.0     14.938     17.743
REMARK  Name = 26743498
REMARK  8 active torsions:
REMARK  status: ('A' for Active; 'I' for Inactive)
REMARK    1  A    between atoms: O_1  and  C_11
REMARK    2  A    between atoms: N_3  and  C_13
REMARK    3  A    between atoms: N_6  and  C_21
REMARK    4  A    between atoms: N_6  and  C_23
REMARK    5  A    between atoms: N_6  and  C_24
REMARK    6  A    between atoms: C_9  and  C_14
REMARK    7  A    between atoms: C_13  and  C_15
REMARK    8  A    between atoms: C_18  and  C_22
REMARK                            x       y       z     vdW  Elec       q    Type
REMARK                         _______ _______ _______ _____ _____    ______ ____
ROOT
ATOM      3  N   UNL     1      -5.122   2.169  25.563  0.00  0.00    -0.285 NA
ATOM      9  C   UNL     1      -4.326   2.794  24.489  0.00  0.00    +0.149 C 
ATOM     10  C   UNL     1      -4.562   4.307  24.653  0.00  0.00    +0.061 C 
ATOM     11  C   UNL     1      -5.539   4.430  25.816  0.00  0.00    +0.130 C 
ATOM     12  C   UNL     1      -6.231   3.080  25.841  0.00  0.00    +0.116 C 
ENDROOT
BRANCH   9  14
ATOM      2  O   UNL     1      -2.204   2.740  25.700  0.00  0.00    -0.336 OA
ATOM      4  N   UNL     1      -2.115   1.822  23.660  0.00  0.00    -0.189 NA
ATOM      5  N   UNL     1      -0.885   2.303  25.528  0.00  0.00    -0.054 NA
ATOM     14  C   UNL     1      -2.860   2.419  24.555  0.00  0.00    +0.245 A 
ATOM     18  C   UNL     1      -0.912   1.772  24.301  0.00  0.00    +0.222 A 
BRANCH  18  22
ATOM      7  N   UNL     1       1.418   1.817  23.881  0.00  0.00    -0.249 NA
ATOM      8  N   UNL     1       1.229  -0.532  22.360  0.00  0.00    -0.260 NA
ATOM     22  C   UNL     1       0.244   1.184  23.689  0.00  0.00    +0.129 A 
ATOM     25  C   UNL     1       0.151   0.030  22.942  0.00  0.00    +0.142 A 
ATOM     26  C   UNL     1       2.496   1.255  23.298  0.00  0.00    +0.131 A 
ATOM     27  C   UNL     1       2.403   0.101  22.552  0.00  0.00    +0.130 A 
ENDBRANCH  18  22
ENDBRANCH   9  14
BRANCH  11   1
ATOM      1  O   UNL     1      -6.455   5.485  25.592  0.00  0.00    -0.390 OA
ATOM     28  H   UNL     1      -6.052   6.299  25.939  0.00  0.00    +0.210 HD
ENDBRANCH  11   1
BRANCH   3  13
ATOM     13  C   UNL     1      -5.586   0.828  25.229  0.00  0.00    +0.120 C 
BRANCH  13  15
ATOM     15  C   UNL     1      -4.440  -0.130  25.038  0.00  0.00    -0.033 A 
ATOM     16  C   UNL     1      -4.291  -0.808  23.829  0.00  0.00    +0.007 A 
ATOM     17  C   UNL     1      -3.527  -0.339  26.073  0.00  0.00    +0.007 A 
ATOM     19  C   UNL     1      -3.229  -1.695  23.653  0.00  0.00    +0.023 A 
ATOM     20  C   UNL     1      -2.465  -1.226  25.896  0.00  0.00    +0.023 A 
ATOM     21  C   UNL     1      -2.316  -1.904  24.687  0.00  0.00    +0.029 A 
BRANCH  21   6
ATOM      6  N   UNL     1      -1.243  -2.802  24.508  0.00  0.00    -0.336 N 
ATOM     23  C   UNL     1      -1.271  -3.775  23.435  0.00  0.00    +0.129 C 
ATOM     24  C   UNL     1      -0.095  -2.758  25.393  0.00  0.00    +0.129 C 
ENDBRANCH  21   6
ENDBRANCH  13  15
ENDBRANCH   3  13
TORSDOF 6
ENDMDL
