MODEL 1
REMARK VINA RESULT:      -2.1      0.000      0.000
REMARK  Name = 45361366
REMARK  9 active torsions:
REMARK  status: ('A' for Active; 'I' for Inactive)
REMARK    1  A    between atoms: O_1  and  C_9
REMARK    2  A    between atoms: N_4  and  C_13
REMARK    3  A    between atoms: C_6  and  C_16
REMARK    4  A    between atoms: C_8  and  C_18
REMARK    5  A    between atoms: C_11  and  C_17
REMARK    6  A    between atoms: C_17  and  C_19
REMARK    7  A    between atoms: C_17  and  C_20
REMARK    8  A    between atoms: C_21  and  C_27
REMARK    9  A    between atoms: C_26  and  C_28
REMARK                            x       y       z     vdW  Elec       q    Type
REMARK                         _______ _______ _______ _____ _____    ______ ____
ROOT
ATOM      6  C   UNL     1      -6.897 -10.171  13.967  0.00  0.00    -0.027 C 
ATOM      7  C   UNL     1      -5.408 -10.599  14.188  0.00  0.00    +0.028 C 
ATOM      8  C   UNL     1      -4.897 -10.133  15.598  0.00  0.00    +0.012 C 
ATOM      9  C   UNL     1      -4.517 -10.182  12.982  0.00  0.00    +0.122 C 
ATOM     10  C   UNL     1      -7.403 -10.742  12.620  0.00  0.00    +0.007 C 
ATOM     11  C   UNL     1      -5.084 -10.666  11.628  0.00  0.00    +0.029 C 
ATOM     12  C   UNL     1      -7.769 -10.778  15.091  0.00  0.00    +0.009 C 
ATOM     13  C   UNL     1      -5.824 -10.687  16.717  0.00  0.00    +0.076 C 
ATOM     14  C   UNL     1      -6.556 -10.303  11.433  0.00  0.00    +0.007 C 
ATOM     15  C   UNL     1      -7.304 -10.382  16.485  0.00  0.00    +0.023 C 
ATOM     16  C   UNL     1      -7.079  -8.633  13.955  0.00  0.00    +0.011 C 
ATOM     18  C   UNL     1      -3.445 -10.546  15.894  0.00  0.00    +0.010 C 
ENDROOT
BRANCH  13   4
ATOM      3  O   UNL     1      -7.396 -10.771  19.157  0.00  0.00    -0.276 OA
ATOM      4  N   UNL     1      -5.451 -10.183  18.021  0.00  0.00    -0.312 N 
ATOM     21  C   UNL     1      -6.274 -10.271  19.129  0.00  0.00    +0.210 C 
ATOM     27  C   UNL     1      -5.631  -9.692  20.361  0.00  0.00    +0.109 C 
ATOM     29  H   UNL     1      -4.565  -9.692  18.105  0.00  0.00    +0.149 HD
ENDBRANCH  13   4
BRANCH   9   1
ATOM      1  O   UNL     1      -3.223 -10.772  13.119  0.00  0.00    -0.391 OA
ATOM     30  H   UNL     1      -3.219 -11.306  13.931  0.00  0.00    +0.210 HD
ENDBRANCH   9   1
BRANCH  11  17
ATOM     17  C   UNL     1      -4.264 -10.135  10.445  0.00  0.00    +0.078 C 
ATOM     19  C   UNL     1      -2.804  -9.962  10.825  0.00  0.00    +0.017 C 
BRANCH  17  20
ATOM      2  O   UNL     1      -4.399  -7.770  10.490  0.00  0.00    -0.275 OA
ATOM      5  N   UNL     1      -5.876  -8.865   9.071  0.00  0.00    -0.301 N 
ATOM     20  C   UNL     1      -4.846  -8.815  10.008  0.00  0.00    +0.219 C 
ATOM     22  C   UNL     1      -6.466  -7.623   8.568  0.00  0.00    +0.108 C 
ATOM     23  C   UNL     1      -6.430 -10.091   8.481  0.00  0.00    +0.108 C 
ATOM     24  C   UNL     1      -7.981  -7.625   8.754  0.00  0.00    +0.022 C 
ATOM     25  C   UNL     1      -7.945 -10.143   8.664  0.00  0.00    +0.022 C 
ATOM     26  C   UNL     1      -8.618  -8.872   8.124  0.00  0.00    -0.011 C 
ATOM     28  C   UNL     1     -10.123  -8.903   8.379  0.00  0.00    +0.007 C 
ENDBRANCH  17  20
ENDBRANCH  11  17
TORSDOF 4
ENDMDL
MODEL 2
REMARK VINA RESULT:      -0.9     15.611     17.669
REMARK  Name = 45361366
REMARK  9 active torsions:
REMARK  status: ('A' for Active; 'I' for Inactive)
REMARK    1  A    between atoms: O_1  and  C_9
REMARK    2  A    between atoms: N_4  and  C_13
REMARK    3  A    between atoms: C_6  and  C_16
REMARK    4  A    between atoms: C_8  and  C_18
REMARK    5  A    between atoms: C_11  and  C_17
REMARK    6  A    between atoms: C_17  and  C_19
REMARK    7  A    between atoms: C_17  and  C_20
REMARK    8  A    between atoms: C_21  and  C_27
REMARK    9  A    between atoms: C_26  and  C_28
REMARK                            x       y       z     vdW  Elec       q    Type
REMARK                         _______ _______ _______ _____ _____    ______ ____
ROOT
ATOM      6  C   UNL     1      -1.819  -1.149  25.345  0.00  0.00    -0.027 C 
ATOM      7  C   UNL     1      -1.816   0.041  24.330  0.00  0.00    +0.028 C 
ATOM      8  C   UNL     1      -0.355   0.562  24.083  0.00  0.00    +0.012 C 
ATOM      9  C   UNL     1      -2.854   1.128  24.733  0.00  0.00    +0.122 C 
ATOM     10  C   UNL     1      -3.256  -1.710  25.478  0.00  0.00    +0.007 C 
ATOM     11  C   UNL     1      -4.266   0.545  24.967  0.00  0.00    +0.029 C 
ATOM     12  C   UNL     1      -0.921  -2.283  24.796  0.00  0.00    +0.009 C 
ATOM     13  C   UNL     1       0.557  -0.602  23.603  0.00  0.00    +0.076 C 
ATOM     14  C   UNL     1      -4.266  -0.657  25.911  0.00  0.00    +0.007 C 
ATOM     15  C   UNL     1       0.504  -1.831  24.512  0.00  0.00    +0.023 C 
ATOM     16  C   UNL     1      -1.315  -0.735  26.750  0.00  0.00    +0.011 C 
ATOM     18  C   UNL     1      -0.275   1.717  23.071  0.00  0.00    +0.010 C 
ENDROOT
BRANCH  13   4
ATOM      3  O   UNL     1       2.064  -0.209  21.153  0.00  0.00    -0.276 OA
ATOM      4  N   UNL     1       1.937  -0.185  23.477  0.00  0.00    -0.312 N 
ATOM     21  C   UNL     1       2.570  -0.025  22.258  0.00  0.00    +0.210 C 
ATOM     27  C   UNL     1       3.993   0.438  22.412  0.00  0.00    +0.109 C 
ATOM     29  H   UNL     1       2.477  -0.062  24.329  0.00  0.00    +0.149 HD
ENDBRANCH  13   4
BRANCH   9   1
ATOM      1  O   UNL     1      -2.976   2.086  23.680  0.00  0.00    -0.391 OA
ATOM     30  H   UNL     1      -2.483   1.752  22.911  0.00  0.00    +0.210 HD
ENDBRANCH   9   1
BRANCH  11  17
ATOM     17  C   UNL     1      -5.242   1.607  25.489  0.00  0.00    +0.078 C 
ATOM     19  C   UNL     1      -6.675   1.107  25.433  0.00  0.00    +0.017 C 
BRANCH  17  20
ATOM      2  O   UNL     1      -5.762   2.966  23.619  0.00  0.00    -0.275 OA
ATOM      5  N   UNL     1      -4.191   3.809  25.108  0.00  0.00    -0.301 N 
ATOM     20  C   UNL     1      -5.095   2.852  24.651  0.00  0.00    +0.219 C 
ATOM     22  C   UNL     1      -4.020   5.062  24.370  0.00  0.00    +0.108 C 
ATOM     23  C   UNL     1      -3.383   3.701  26.329  0.00  0.00    +0.108 C 
ATOM     24  C   UNL     1      -2.553   5.292  24.018  0.00  0.00    +0.022 C 
ATOM     25  C   UNL     1      -1.901   3.904  26.018  0.00  0.00    +0.022 C 
ATOM     26  C   UNL     1      -1.663   5.223  25.268  0.00  0.00    -0.011 C 
ATOM     28  C   UNL     1      -0.190   5.380  24.898  0.00  0.00    +0.007 C 
ENDBRANCH  17  20
ENDBRANCH  11  17
TORSDOF 4
ENDMDL
