MODEL 1
REMARK VINA RESULT:      -1.4      0.000      0.000
REMARK  Name = 38026961
REMARK  10 active torsions:
REMARK  status: ('A' for Active; 'I' for Inactive)
REMARK    1  A    between atoms: N_6  and  C_16
REMARK    2  A    between atoms: C_8  and  C_12
REMARK    3  A    between atoms: C_9  and  C_16
REMARK    4  A    between atoms: C_11  and  C_15
REMARK    5  A    between atoms: C_12  and  C_17
REMARK    6  A    between atoms: C_12  and  C_18
REMARK    7  A    between atoms: C_13  and  C_19
REMARK    8  A    between atoms: C_15  and  C_20
REMARK    9  A    between atoms: C_25  and  C_27
REMARK   10  A    between atoms: C_26  and  C_28
REMARK                            x       y       z     vdW  Elec       q    Type
REMARK                         _______ _______ _______ _____ _____    ______ ____
ROOT
ATOM      8  C   UNL     1      -1.474  -0.106  25.132  0.00  0.00    +0.000 C 
ATOM      9  C   UNL     1      -0.814  -1.353  24.491  0.00  0.00    +0.032 C 
ATOM     10  C   UNL     1      -2.569  -0.530  26.122  0.00  0.00    +0.012 C 
ATOM     11  C   UNL     1      -3.669  -1.372  25.449  0.00  0.00    +0.023 C 
ATOM     13  C   UNL     1      -3.087  -2.466  24.577  0.00  0.00    -0.073 C 
ATOM     14  C   UNL     1      -1.804  -2.447  24.170  0.00  0.00    -0.022 C 
ATOM     19  C   UNL     1      -3.999  -3.607  24.221  0.00  0.00    +0.039 C 
ENDROOT
BRANCH   8  12
ATOM     12  C   UNL     1      -0.445   0.779  25.842  0.00  0.00    -0.013 C 
ATOM     17  C   UNL     1       0.183   1.759  24.857  0.00  0.00    +0.007 C 
ATOM     18  C   UNL     1      -1.096   1.524  27.003  0.00  0.00    +0.007 C 
ENDBRANCH   8  12
BRANCH  11  15
ATOM     15  C   UNL     1      -4.632  -0.487  24.650  0.00  0.00    +0.103 C 
BRANCH  15  20
ATOM      1  O   UNL     1      -3.394  -0.157  22.656  0.00  0.00    -0.276 OA
ATOM      4  O   UNL     1      -2.882   5.937  26.356  0.00  0.00    -0.276 OA
ATOM      5  N   UNL     1      -3.708   1.709  24.002  0.00  0.00    -0.298 N 
ATOM      7  N   UNL     1      -2.512   4.056  25.044  0.00  0.00    -0.299 N 
ATOM     20  C   UNL     1      -3.856   0.362  23.674  0.00  0.00    +0.216 C 
ATOM     21  C   UNL     1      -2.966   2.601  23.108  0.00  0.00    +0.126 C 
ATOM     22  C   UNL     1      -4.308   2.373  25.167  0.00  0.00    +0.126 C 
ATOM     23  C   UNL     1      -1.912   3.393  23.878  0.00  0.00    +0.126 C 
ATOM     24  C   UNL     1      -3.254   3.163  25.937  0.00  0.00    +0.126 C 
ATOM     26  C   UNL     1      -2.366   5.403  25.370  0.00  0.00    +0.213 C 
ATOM     28  C   UNL     1      -1.523   6.236  24.437  0.00  0.00    +0.109 C 
ENDBRANCH  15  20
ENDBRANCH  11  15
BRANCH   9  16
ATOM     16  C   UNL     1      -0.040  -0.977  23.221  0.00  0.00    +0.112 C 
BRANCH  16   6
ATOM      2  O   UNL     1       1.999  -0.170  21.369  0.00  0.00    -0.267 OA
ATOM      6  N   UNL     1       1.337  -0.737  23.518  0.00  0.00    -0.308 N 
ATOM     25  C   UNL     1       2.265  -0.346  22.555  0.00  0.00    +0.279 C 
ATOM     32  H   UNL     1       1.646  -0.817  24.484  0.00  0.00    +0.149 HD
BRANCH  25  27
ATOM      3  O   UNL     1       4.243  -1.180  23.708  0.00  0.00    -0.458 OA
ATOM     27  C   UNL     1       3.663  -0.162  23.019  0.00  0.00    +0.189 A 
ATOM     29  C   UNL     1       4.539   0.890  22.885  0.00  0.00    +0.054 A 
ATOM     30  C   UNL     1       5.733   0.493  23.531  0.00  0.00    +0.042 A 
ATOM     31  C   UNL     1       5.503  -0.774  24.016  0.00  0.00    +0.196 A 
ENDBRANCH  25  27
ENDBRANCH  16   6
ENDBRANCH   9  16
TORSDOF 6
ENDMDL
MODEL 2
REMARK VINA RESULT:       0.3      1.630      4.849
REMARK  Name = 38026961
REMARK  10 active torsions:
REMARK  status: ('A' for Active; 'I' for Inactive)
REMARK    1  A    between atoms: N_6  and  C_16
REMARK    2  A    between atoms: C_8  and  C_12
REMARK    3  A    between atoms: C_9  and  C_16
REMARK    4  A    between atoms: C_11  and  C_15
REMARK    5  A    between atoms: C_12  and  C_17
REMARK    6  A    between atoms: C_12  and  C_18
REMARK    7  A    between atoms: C_13  and  C_19
REMARK    8  A    between atoms: C_15  and  C_20
REMARK    9  A    between atoms: C_25  and  C_27
REMARK   10  A    between atoms: C_26  and  C_28
REMARK                            x       y       z     vdW  Elec       q    Type
REMARK                         _______ _______ _______ _____ _____    ______ ____
ROOT
ATOM      8  C   UNL     1      -1.919   2.703  23.601  0.00  0.00    +0.000 C 
ATOM      9  C   UNL     1      -0.397   2.420  23.666  0.00  0.00    +0.032 C 
ATOM     10  C   UNL     1      -2.266   3.956  24.417  0.00  0.00    +0.012 C 
ATOM     11  C   UNL     1      -1.858   3.820  25.896  0.00  0.00    +0.023 C 
ATOM     13  C   UNL     1      -0.448   3.286  26.045  0.00  0.00    -0.073 C 
ATOM     14  C   UNL     1       0.194   2.675  25.032  0.00  0.00    -0.022 C 
ATOM     19  C   UNL     1       0.226   3.511  27.370  0.00  0.00    +0.039 C 
ENDROOT
BRANCH   8  12
ATOM     12  C   UNL     1      -2.405   2.871  22.157  0.00  0.00    -0.013 C 
ATOM     17  C   UNL     1      -2.428   1.523  21.444  0.00  0.00    +0.007 C 
ATOM     18  C   UNL     1      -3.785   3.519  22.134  0.00  0.00    +0.007 C 
ENDBRANCH   8  12
BRANCH  11  15
ATOM     15  C   UNL     1      -2.857   2.951  26.668  0.00  0.00    +0.103 C 
BRANCH  15  20
ATOM      1  O   UNL     1      -4.916   3.083  25.503  0.00  0.00    -0.276 OA
ATOM      4  O   UNL     1      -2.434  -3.534  24.430  0.00  0.00    -0.276 OA
ATOM      5  N   UNL     1      -3.652   1.166  25.158  0.00  0.00    -0.298 N 
ATOM      7  N   UNL     1      -3.729  -1.647  24.827  0.00  0.00    -0.299 N 
ATOM     20  C   UNL     1      -3.905   2.415  25.725  0.00  0.00    +0.216 C 
ATOM     21  C   UNL     1      -4.621   0.573  24.234  0.00  0.00    +0.126 C 
ATOM     22  C   UNL     1      -2.425   0.380  25.344  0.00  0.00    +0.126 C 
ATOM     23  C   UNL     1      -4.956  -0.860  24.640  0.00  0.00    +0.126 C 
ATOM     24  C   UNL     1      -2.760  -1.053  25.751  0.00  0.00    +0.126 C 
ATOM     26  C   UNL     1      -3.475  -2.893  24.258  0.00  0.00    +0.213 C 
ATOM     28  C   UNL     1      -4.557  -3.467  23.379  0.00  0.00    +0.109 C 
ENDBRANCH  15  20
ENDBRANCH  11  15
BRANCH   9  16
ATOM     16  C   UNL     1      -0.083   0.982  23.234  0.00  0.00    +0.112 C 
BRANCH  16   6
ATOM      2  O   UNL     1       1.817  -0.214  21.444  0.00  0.00    -0.267 OA
ATOM      6  N   UNL     1       1.275   0.649  23.529  0.00  0.00    -0.308 N 
ATOM     25  C   UNL     1       2.134   0.068  22.597  0.00  0.00    +0.279 C 
ATOM     32  H   UNL     1       1.644   0.882  24.447  0.00  0.00    +0.149 HD
BRANCH  25  27
ATOM      3  O   UNL     1       3.735  -1.470  23.603  0.00  0.00    -0.458 OA
ATOM     27  C   UNL     1       3.508  -0.241  23.066  0.00  0.00    +0.189 A 
ATOM     29  C   UNL     1       4.663   0.506  23.066  0.00  0.00    +0.054 A 
ATOM     30  C   UNL     1       5.663  -0.315  23.639  0.00  0.00    +0.042 A 
ATOM     31  C   UNL     1       5.048  -1.506  23.949  0.00  0.00    +0.196 A 
ENDBRANCH  25  27
ENDBRANCH  16   6
ENDBRANCH   9  16
TORSDOF 6
ENDMDL
MODEL 3
REMARK VINA RESULT:       0.4      3.344      5.957
REMARK  Name = 38026961
REMARK  10 active torsions:
REMARK  status: ('A' for Active; 'I' for Inactive)
REMARK    1  A    between atoms: N_6  and  C_16
REMARK    2  A    between atoms: C_8  and  C_12
REMARK    3  A    between atoms: C_9  and  C_16
REMARK    4  A    between atoms: C_11  and  C_15
REMARK    5  A    between atoms: C_12  and  C_17
REMARK    6  A    between atoms: C_12  and  C_18
REMARK    7  A    between atoms: C_13  and  C_19
REMARK    8  A    between atoms: C_15  and  C_20
REMARK    9  A    between atoms: C_25  and  C_27
REMARK   10  A    between atoms: C_26  and  C_28
REMARK                            x       y       z     vdW  Elec       q    Type
REMARK                         _______ _______ _______ _____ _____    ______ ____
ROOT
ATOM      8  C   UNL     1      -2.986   3.081  23.691  0.00  0.00    +0.000 C 
ATOM      9  C   UNL     1      -1.832   3.918  24.297  0.00  0.00    +0.032 C 
ATOM     10  C   UNL     1      -4.344   3.712  24.034  0.00  0.00    +0.012 C 
ATOM     11  C   UNL     1      -4.567   3.822  25.553  0.00  0.00    +0.023 C 
ATOM     13  C   UNL     1      -3.357   4.396  26.262  0.00  0.00    -0.073 C 
ATOM     14  C   UNL     1      -2.145   4.443  25.678  0.00  0.00    -0.022 C 
ATOM     19  C   UNL     1      -3.580   4.958  27.638  0.00  0.00    +0.039 C 
ENDROOT
BRANCH   8  12
ATOM     12  C   UNL     1      -2.847   2.940  22.171  0.00  0.00    -0.013 C 
ATOM     17  C   UNL     1      -2.455   1.512  21.804  0.00  0.00    +0.007 C 
ATOM     18  C   UNL     1      -4.147   3.338  21.480  0.00  0.00    +0.007 C 
ENDBRANCH   8  12
BRANCH  11  15
ATOM     15  C   UNL     1      -4.963   2.468  26.153  0.00  0.00    +0.103 C 
BRANCH  15  20
ATOM      1  O   UNL     1      -6.378   1.563  24.483  0.00  0.00    -0.276 OA
ATOM      4  O   UNL     1      -0.798  -2.875  24.991  0.00  0.00    -0.276 OA
ATOM      5  N   UNL     1      -4.303   0.554  24.741  0.00  0.00    -0.298 N 
ATOM      7  N   UNL     1      -2.899  -1.907  24.779  0.00  0.00    -0.299 N 
ATOM     20  C   UNL     1      -5.285   1.493  25.049  0.00  0.00    +0.216 C 
ATOM     21  C   UNL     1      -4.540  -0.431  23.683  0.00  0.00    +0.126 C 
ATOM     22  C   UNL     1      -2.965   0.491  25.345  0.00  0.00    +0.126 C 
ATOM     23  C   UNL     1      -4.236  -1.844  24.174  0.00  0.00    +0.126 C 
ATOM     24  C   UNL     1      -2.663  -0.921  25.837  0.00  0.00    +0.126 C 
ATOM     26  C   UNL     1      -1.915  -2.844  24.468  0.00  0.00    +0.213 C 
ATOM     28  C   UNL     1      -2.268  -3.870  23.421  0.00  0.00    +0.109 C 
ENDBRANCH  15  20
ENDBRANCH  11  15
BRANCH   9  16
ATOM     16  C   UNL     1      -0.528   3.113  24.341  0.00  0.00    +0.112 C 
BRANCH  16   6
ATOM      2  O   UNL     1      -0.192   1.003  26.259  0.00  0.00    -0.267 OA
ATOM      6  N   UNL     1       0.090   3.217  25.626  0.00  0.00    -0.308 N 
ATOM     25  C   UNL     1       0.213   2.137  26.499  0.00  0.00    +0.279 C 
ATOM     32  H   UNL     1       0.494   4.109  25.899  0.00  0.00    +0.149 HD
BRANCH  25  27
ATOM      3  O   UNL     1       2.169   2.772  27.806  0.00  0.00    -0.458 OA
ATOM     27  C   UNL     1       0.857   2.415  27.808  0.00  0.00    +0.189 A 
ATOM     29  C   UNL     1       0.366   2.384  29.092  0.00  0.00    +0.054 A 
ATOM     30  C   UNL     1       1.445   2.745  29.934  0.00  0.00    +0.042 A 
ATOM     31  C   UNL     1       2.519   2.971  29.104  0.00  0.00    +0.196 A 
ENDBRANCH  25  27
ENDBRANCH  16   6
ENDBRANCH   9  16
TORSDOF 6
ENDMDL
MODEL 4
REMARK VINA RESULT:       0.7      1.600      1.995
REMARK  Name = 38026961
REMARK  10 active torsions:
REMARK  status: ('A' for Active; 'I' for Inactive)
REMARK    1  A    between atoms: N_6  and  C_16
REMARK    2  A    between atoms: C_8  and  C_12
REMARK    3  A    between atoms: C_9  and  C_16
REMARK    4  A    between atoms: C_11  and  C_15
REMARK    5  A    between atoms: C_12  and  C_17
REMARK    6  A    between atoms: C_12  and  C_18
REMARK    7  A    between atoms: C_13  and  C_19
REMARK    8  A    between atoms: C_15  and  C_20
REMARK    9  A    between atoms: C_25  and  C_27
REMARK   10  A    between atoms: C_26  and  C_28
REMARK                            x       y       z     vdW  Elec       q    Type
REMARK                         _______ _______ _______ _____ _____    ______ ____
ROOT
ATOM      8  C   UNL     1      -1.688   1.078  25.130  0.00  0.00    +0.000 C 
ATOM      9  C   UNL     1      -0.350   0.356  24.833  0.00  0.00    +0.032 C 
ATOM     10  C   UNL     1      -2.605   0.181  25.975  0.00  0.00    +0.012 C 
ATOM     11  C   UNL     1      -2.916  -1.156  25.276  0.00  0.00    +0.023 C 
ATOM     13  C   UNL     1      -1.666  -1.804  24.716  0.00  0.00    -0.073 C 
ATOM     14  C   UNL     1      -0.524  -1.115  24.538  0.00  0.00    -0.022 C 
ATOM     19  C   UNL     1      -1.744  -3.273  24.408  0.00  0.00    +0.039 C 
ENDROOT
BRANCH   8  12
ATOM     12  C   UNL     1      -1.466   2.415  25.845  0.00  0.00    -0.013 C 
ATOM     17  C   UNL     1      -0.219   2.349  26.720  0.00  0.00    +0.007 C 
ATOM     18  C   UNL     1      -1.355   3.548  24.830  0.00  0.00    +0.007 C 
ENDBRANCH   8  12
BRANCH  11  15
ATOM     15  C   UNL     1      -3.976  -0.976  24.184  0.00  0.00    +0.103 C 
BRANCH  15  20
ATOM      1  O   UNL     1      -2.901   0.414  22.595  0.00  0.00    -0.276 OA
ATOM      4  O   UNL     1      -7.075   4.705  26.501  0.00  0.00    -0.276 OA
ATOM      5  N   UNL     1      -4.570   1.401  23.873  0.00  0.00    -0.298 N 
ATOM      7  N   UNL     1      -5.361   3.736  25.270  0.00  0.00    -0.299 N 
ATOM     20  C   UNL     1      -3.762   0.337  23.474  0.00  0.00    +0.216 C 
ATOM     21  C   UNL     1      -4.422   2.711  23.235  0.00  0.00    +0.126 C 
ATOM     22  C   UNL     1      -5.653   1.322  24.863  0.00  0.00    +0.126 C 
ATOM     23  C   UNL     1      -4.278   3.814  24.280  0.00  0.00    +0.126 C 
ATOM     24  C   UNL     1      -5.508   2.425  25.908  0.00  0.00    +0.126 C 
ATOM     26  C   UNL     1      -6.170   4.798  25.667  0.00  0.00    +0.213 C 
ATOM     28  C   UNL     1      -5.902   6.131  25.015  0.00  0.00    +0.109 C 
ENDBRANCH  15  20
ENDBRANCH  11  15
BRANCH   9  16
ATOM     16  C   UNL     1       0.394   1.025  23.671  0.00  0.00    +0.112 C 
BRANCH  16   6
ATOM      2  O   UNL     1       2.072  -0.369  21.804  0.00  0.00    -0.267 OA
ATOM      6  N   UNL     1       1.803   0.815  23.781  0.00  0.00    -0.308 N 
ATOM     25  C   UNL     1       2.545   0.124  22.825  0.00  0.00    +0.279 C 
ATOM     32  H   UNL     1       2.294   1.222  24.573  0.00  0.00    +0.149 HD
BRANCH  25  27
ATOM      3  O   UNL     1       4.399  -1.134  23.783  0.00  0.00    -0.458 OA
ATOM     27  C   UNL     1       3.996  -0.031  23.099  0.00  0.00    +0.189 A 
ATOM     29  C   UNL     1       5.075   0.760  22.780  0.00  0.00    +0.054 A 
ATOM     30  C   UNL     1       6.213   0.101  23.302  0.00  0.00    +0.042 A 
ATOM     31  C   UNL     1       5.750  -1.046  23.903  0.00  0.00    +0.196 A 
ENDBRANCH  25  27
ENDBRANCH  16   6
ENDBRANCH   9  16
TORSDOF 6
ENDMDL
MODEL 5
REMARK VINA RESULT:       1.2      2.196      5.074
REMARK  Name = 38026961
REMARK  10 active torsions:
REMARK  status: ('A' for Active; 'I' for Inactive)
REMARK    1  A    between atoms: N_6  and  C_16
REMARK    2  A    between atoms: C_8  and  C_12
REMARK    3  A    between atoms: C_9  and  C_16
REMARK    4  A    between atoms: C_11  and  C_15
REMARK    5  A    between atoms: C_12  and  C_17
REMARK    6  A    between atoms: C_12  and  C_18
REMARK    7  A    between atoms: C_13  and  C_19
REMARK    8  A    between atoms: C_15  and  C_20
REMARK    9  A    between atoms: C_25  and  C_27
REMARK   10  A    between atoms: C_26  and  C_28
REMARK                            x       y       z     vdW  Elec       q    Type
REMARK                         _______ _______ _______ _____ _____    ______ ____
ROOT
ATOM      8  C   UNL     1      -2.379   2.531  24.114  0.00  0.00    +0.000 C 
ATOM      9  C   UNL     1      -1.336   3.359  24.906  0.00  0.00    +0.032 C 
ATOM     10  C   UNL     1      -3.657   3.353  23.888  0.00  0.00    +0.012 C 
ATOM     11  C   UNL     1      -4.299   3.806  25.213  0.00  0.00    +0.023 C 
ATOM     13  C   UNL     1      -3.276   4.395  26.163  0.00  0.00    -0.073 C 
ATOM     14  C   UNL     1      -1.955   4.195  26.002  0.00  0.00    -0.022 C 
ATOM     19  C   UNL     1      -3.802   5.257  27.277  0.00  0.00    +0.039 C 
ENDROOT
BRANCH   8  12
ATOM     12  C   UNL     1      -1.822   2.056  22.767  0.00  0.00    -0.013 C 
ATOM     17  C   UNL     1      -1.740   0.533  22.734  0.00  0.00    +0.007 C 
ATOM     18  C   UNL     1      -2.686   2.576  21.622  0.00  0.00    +0.007 C 
ENDBRANCH   8  12
BRANCH  11  15
ATOM     15  C   UNL     1      -5.067   2.658  25.876  0.00  0.00    +0.103 C 
BRANCH  15  20
ATOM      1  O   UNL     1      -6.487   1.676  24.254  0.00  0.00    -0.276 OA
ATOM      4  O   UNL     1      -1.106  -2.924  25.244  0.00  0.00    -0.276 OA
ATOM      5  N   UNL     1      -4.461   0.609  24.639  0.00  0.00    -0.298 N 
ATOM      7  N   UNL     1      -3.161  -1.894  24.907  0.00  0.00    -0.299 N 
ATOM     20  C   UNL     1      -5.409   1.609  24.848  0.00  0.00    +0.216 C 
ATOM     21  C   UNL     1      -4.719  -0.449  23.659  0.00  0.00    +0.126 C 
ATOM     22  C   UNL     1      -3.138   0.543  25.275  0.00  0.00    +0.126 C 
ATOM     23  C   UNL     1      -4.483  -1.828  24.271  0.00  0.00    +0.126 C 
ATOM     24  C   UNL     1      -2.904  -0.835  25.887  0.00  0.00    +0.126 C 
ATOM     26  C   UNL     1      -2.211  -2.892  24.696  0.00  0.00    +0.213 C 
ATOM     28  C   UNL     1      -2.587  -3.986  23.728  0.00  0.00    +0.109 C 
ENDBRANCH  15  20
ENDBRANCH  11  15
BRANCH   9  16
ATOM     16  C   UNL     1      -0.251   2.456  25.504  0.00  0.00    +0.112 C 
BRANCH  16   6
ATOM      2  O   UNL     1       0.392  -0.175  24.553  0.00  0.00    -0.267 OA
ATOM      6  N   UNL     1       0.729   2.120  24.521  0.00  0.00    -0.308 N 
ATOM     25  C   UNL     1       0.979   0.810  24.114  0.00  0.00    +0.279 C 
ATOM     32  H   UNL     1       1.241   2.873  24.069  0.00  0.00    +0.149 HD
BRANCH  25  27
ATOM      3  O   UNL     1       3.239   1.247  23.314  0.00  0.00    -0.458 OA
ATOM     27  C   UNL     1       2.049   0.625  23.101  0.00  0.00    +0.189 A 
ATOM     29  C   UNL     1       2.081  -0.090  21.927  0.00  0.00    +0.054 A 
ATOM     30  C   UNL     1       3.372   0.105  21.382  0.00  0.00    +0.042 A 
ATOM     31  C   UNL     1       4.039   0.925  22.263  0.00  0.00    +0.196 A 
ENDBRANCH  25  27
ENDBRANCH  16   6
ENDBRANCH   9  16
TORSDOF 6
ENDMDL
MODEL 6
REMARK VINA RESULT:       1.5      1.982      6.764
REMARK  Name = 38026961
REMARK  10 active torsions:
REMARK  status: ('A' for Active; 'I' for Inactive)
REMARK    1  A    between atoms: N_6  and  C_16
REMARK    2  A    between atoms: C_8  and  C_12
REMARK    3  A    between atoms: C_9  and  C_16
REMARK    4  A    between atoms: C_11  and  C_15
REMARK    5  A    between atoms: C_12  and  C_17
REMARK    6  A    between atoms: C_12  and  C_18
REMARK    7  A    between atoms: C_13  and  C_19
REMARK    8  A    between atoms: C_15  and  C_20
REMARK    9  A    between atoms: C_25  and  C_27
REMARK   10  A    between atoms: C_26  and  C_28
REMARK                            x       y       z     vdW  Elec       q    Type
REMARK                         _______ _______ _______ _____ _____    ______ ____
ROOT
ATOM      8  C   UNL     1      -3.941   3.421  25.807  0.00  0.00    +0.000 C 
ATOM      9  C   UNL     1      -3.955   3.908  24.336  0.00  0.00    +0.032 C 
ATOM     10  C   UNL     1      -3.012   4.303  26.654  0.00  0.00    +0.012 C 
ATOM     11  C   UNL     1      -1.566   4.301  26.126  0.00  0.00    +0.023 C 
ATOM     13  C   UNL     1      -1.513   4.510  24.626  0.00  0.00    -0.073 C 
ATOM     14  C   UNL     1      -2.595   4.343  23.844  0.00  0.00    -0.022 C 
ATOM     19  C   UNL     1      -0.199   4.962  24.050  0.00  0.00    +0.039 C 
ENDROOT
BRANCH   8  12
ATOM     12  C   UNL     1      -5.347   3.411  26.415  0.00  0.00    -0.013 C 
ATOM     17  C   UNL     1      -6.288   4.288  25.595  0.00  0.00    +0.007 C 
ATOM     18  C   UNL     1      -5.878   1.984  26.503  0.00  0.00    +0.007 C 
ENDBRANCH   8  12
BRANCH  11  15
ATOM     15  C   UNL     1      -0.832   3.017  26.527  0.00  0.00    +0.103 C 
BRANCH  15  20
ATOM      1  O   UNL     1      -2.364   1.278  26.034  0.00  0.00    -0.276 OA
ATOM      4  O   UNL     1       3.121   0.442  21.528  0.00  0.00    -0.276 OA
ATOM      5  N   UNL     1      -0.570   1.520  24.580  0.00  0.00    -0.298 N 
ATOM      7  N   UNL     1       1.363   0.158  23.019  0.00  0.00    -0.299 N 
ATOM     20  C   UNL     1      -1.332   1.861  25.697  0.00  0.00    +0.216 C 
ATOM     21  C   UNL     1      -0.986   0.407  23.724  0.00  0.00    +0.126 C 
ATOM     22  C   UNL     1       0.622   2.240  24.111  0.00  0.00    +0.126 C 
ATOM     23  C   UNL     1       0.171  -0.561  23.488  0.00  0.00    +0.126 C 
ATOM     24  C   UNL     1       1.778   1.271  23.876  0.00  0.00    +0.126 C 
ATOM     26  C   UNL     1       2.122  -0.180  21.901  0.00  0.00    +0.213 C 
ATOM     28  C   UNL     1       1.669  -1.386  21.117  0.00  0.00    +0.109 C 
ENDBRANCH  15  20
ENDBRANCH  11  15
BRANCH   9  16
ATOM     16  C   UNL     1      -4.514   2.829  23.401  0.00  0.00    +0.112 C 
BRANCH  16   6
ATOM      2  O   UNL     1      -6.103   0.565  24.173  0.00  0.00    -0.267 OA
ATOM      6  N   UNL     1      -4.034   1.535  23.774  0.00  0.00    -0.308 N 
ATOM     25  C   UNL     1      -4.878   0.487  24.137  0.00  0.00    +0.279 C 
ATOM     32  H   UNL     1      -3.033   1.360  23.735  0.00  0.00    +0.149 HD
BRANCH  25  27
ATOM      3  O   UNL     1      -4.198  -1.793  23.607  0.00  0.00    -0.458 OA
ATOM     27  C   UNL     1      -4.221  -0.788  24.522  0.00  0.00    +0.189 A 
ATOM     29  C   UNL     1      -3.595  -1.177  25.683  0.00  0.00    +0.054 A 
ATOM     30  C   UNL     1      -3.160  -2.506  25.468  0.00  0.00    +0.042 A 
ATOM     31  C   UNL     1      -3.551  -2.835  24.191  0.00  0.00    +0.196 A 
ENDBRANCH  25  27
ENDBRANCH  16   6
ENDBRANCH   9  16
TORSDOF 6
ENDMDL
MODEL 7
REMARK VINA RESULT:       2.3      2.405      5.867
REMARK  Name = 38026961
REMARK  10 active torsions:
REMARK  status: ('A' for Active; 'I' for Inactive)
REMARK    1  A    between atoms: N_6  and  C_16
REMARK    2  A    between atoms: C_8  and  C_12
REMARK    3  A    between atoms: C_9  and  C_16
REMARK    4  A    between atoms: C_11  and  C_15
REMARK    5  A    between atoms: C_12  and  C_17
REMARK    6  A    between atoms: C_12  and  C_18
REMARK    7  A    between atoms: C_13  and  C_19
REMARK    8  A    between atoms: C_15  and  C_20
REMARK    9  A    between atoms: C_25  and  C_27
REMARK   10  A    between atoms: C_26  and  C_28
REMARK                            x       y       z     vdW  Elec       q    Type
REMARK                         _______ _______ _______ _____ _____    ______ ____
ROOT
ATOM      8  C   UNL     1      -3.489   1.827  24.324  0.00  0.00    +0.000 C 
ATOM      9  C   UNL     1      -2.917   1.921  25.760  0.00  0.00    +0.032 C 
ATOM     10  C   UNL     1      -3.899   0.382  24.003  0.00  0.00    +0.012 C 
ATOM     11  C   UNL     1      -2.717  -0.598  24.122  0.00  0.00    +0.023 C 
ATOM     13  C   UNL     1      -1.934  -0.385  25.403  0.00  0.00    -0.073 C 
ATOM     14  C   UNL     1      -2.048   0.742  26.128  0.00  0.00    -0.022 C 
ATOM     19  C   UNL     1      -1.054  -1.517  25.855  0.00  0.00    +0.039 C 
ENDROOT
BRANCH   8  12
ATOM     12  C   UNL     1      -4.687   2.762  24.127  0.00  0.00    -0.013 C 
ATOM     17  C   UNL     1      -5.617   2.697  25.334  0.00  0.00    +0.007 C 
ATOM     18  C   UNL     1      -4.210   4.192  23.889  0.00  0.00    +0.007 C 
ENDBRANCH   8  12
BRANCH  11  15
ATOM     15  C   UNL     1      -1.799  -0.509  22.898  0.00  0.00    +0.103 C 
BRANCH  15  20
ATOM      1  O   UNL     1      -1.277   1.800  22.824  0.00  0.00    -0.276 OA
ATOM      4  O   UNL     1       4.920  -1.618  23.829  0.00  0.00    -0.276 OA
ATOM      5  N   UNL     1       0.448   0.367  23.427  0.00  0.00    -0.298 N 
ATOM      7  N   UNL     1       3.213  -0.191  23.162  0.00  0.00    -0.299 N 
ATOM     20  C   UNL     1      -0.860   0.662  23.045  0.00  0.00    +0.216 C 
ATOM     21  C   UNL     1       1.423   1.448  23.589  0.00  0.00    +0.126 C 
ATOM     22  C   UNL     1       0.954  -0.969  23.770  0.00  0.00    +0.126 C 
ATOM     23  C   UNL     1       2.706   1.145  22.820  0.00  0.00    +0.126 C 
ATOM     24  C   UNL     1       2.237  -1.272  22.999  0.00  0.00    +0.126 C 
ATOM     26  C   UNL     1       4.519  -0.485  23.546  0.00  0.00    +0.213 C 
ATOM     28  C   UNL     1       5.480   0.675  23.615  0.00  0.00    +0.109 C 
ENDBRANCH  15  20
ENDBRANCH  11  15
BRANCH   9  16
ATOM     16  C   UNL     1      -2.125   3.219  25.957  0.00  0.00    +0.112 C 
BRANCH  16   6
ATOM      2  O   UNL     1       0.680   2.654  25.720  0.00  0.00    -0.267 OA
ATOM      6  N   UNL     1      -1.188   3.086  27.027  0.00  0.00    -0.308 N 
ATOM     25  C   UNL     1       0.163   2.809  26.824  0.00  0.00    +0.279 C 
ATOM     32  H   UNL     1      -1.513   3.238  27.978  0.00  0.00    +0.149 HD
BRANCH  25  27
ATOM      3  O   UNL     1       2.322   2.982  27.941  0.00  0.00    -0.458 OA
ATOM     27  C   UNL     1       1.001   2.676  28.042  0.00  0.00    +0.189 A 
ATOM     29  C   UNL     1       0.693   2.284  29.324  0.00  0.00    +0.054 A 
ATOM     30  C   UNL     1       1.901   2.354  30.058  0.00  0.00    +0.042 A 
ATOM     31  C   UNL     1       2.862   2.784  29.172  0.00  0.00    +0.196 A 
ENDBRANCH  25  27
ENDBRANCH  16   6
ENDBRANCH   9  16
TORSDOF 6
ENDMDL
