MODEL 1
REMARK VINA RESULT:      -0.2      0.000      0.000
REMARK  Name = 51137482
REMARK  8 active torsions:
REMARK  status: ('A' for Active; 'I' for Inactive)
REMARK    1  A    between atoms: S_1  and  C_21
REMARK    2  A    between atoms: S_1  and  C_25
REMARK    3  A    between atoms: O_5  and  C_23
REMARK    4  A    between atoms: O_5  and  C_29
REMARK    5  A    between atoms: N_6  and  C_13
REMARK    6  A    between atoms: C_9  and  C_14
REMARK    7  A    between atoms: C_13  and  C_15
REMARK    8  A    between atoms: C_18  and  C_22
REMARK                            x       y       z     vdW  Elec       q    Type
REMARK                         _______ _______ _______ _____ _____    ______ ____
ROOT
ATOM      6  N   UNL     1      -2.711   4.906  25.427  0.00  0.00    -0.297 NA
ATOM      9  C   UNL     1      -4.649   3.609  25.188  0.00  0.00    +0.092 C 
ATOM     10  C   UNL     1      -4.456   3.979  26.669  0.00  0.00    +0.029 C 
ATOM     11  C   UNL     1      -3.292   3.901  24.534  0.00  0.00    +0.097 C 
ATOM     12  C   UNL     1      -3.006   4.428  26.777  0.00  0.00    +0.085 C 
ENDROOT
BRANCH   9  14
ATOM      2  O   UNL     1      -4.175   1.240  24.794  0.00  0.00    -0.420 OA
ATOM      7  N   UNL     1      -6.355   1.737  24.844  0.00  0.00    -0.112 NA
ATOM      8  N   UNL     1      -6.232   0.379  24.616  0.00  0.00    -0.107 NA
ATOM     14  C   UNL     1      -5.130   2.198  24.942  0.00  0.00    +0.222 A 
ATOM     18  C   UNL     1      -4.942   0.134  24.594  0.00  0.00    +0.252 A 
BRANCH  18  22
ATOM     22  C   UNL     1      -4.232  -1.096  24.397  0.00  0.00    +0.080 A 
ATOM     23  C   UNL     1      -2.924  -1.249  24.856  0.00  0.00    +0.132 A 
ATOM     24  C   UNL     1      -4.866  -2.148  23.736  0.00  0.00    +0.017 A 
ATOM     26  C   UNL     1      -2.250  -2.454  24.653  0.00  0.00    +0.046 A 
ATOM     27  C   UNL     1      -4.192  -3.352  23.533  0.00  0.00    +0.001 A 
ATOM     28  C   UNL     1      -2.884  -3.505  23.992  0.00  0.00    +0.004 A 
BRANCH  23   5
ATOM      5  O   UNL     1      -2.279  -0.238  25.506  0.00  0.00    -0.494 OA
ATOM     29  C   UNL     1      -1.178  -0.601  26.336  0.00  0.00    +0.277 C 
ENDBRANCH  23   5
ENDBRANCH  18  22
ENDBRANCH   9  14
BRANCH   6  13
ATOM     13  C   UNL     1      -1.284   5.090  25.203  0.00  0.00    +0.119 C 
BRANCH  13  15
ATOM     15  C   UNL     1      -0.632   3.834  24.689  0.00  0.00    -0.033 A 
ATOM     16  C   UNL     1      -0.899   3.390  23.394  0.00  0.00    +0.007 A 
ATOM     17  C   UNL     1       0.239   3.114  25.507  0.00  0.00    +0.007 A 
ATOM     19  C   UNL     1      -0.295   2.225  22.917  0.00  0.00    +0.027 A 
ATOM     20  C   UNL     1       0.842   1.950  25.031  0.00  0.00    +0.027 A 
ATOM     21  C   UNL     1       0.575   1.506  23.736  0.00  0.00    +0.088 A 
BRANCH  21   1
ATOM      1  S   UNL     1       1.331   0.050  23.139  0.00  0.00    -0.006 S 
ATOM      3  O   UNL     1       1.190  -0.999  24.139  0.00  0.00    -0.170 OA
ATOM      4  O   UNL     1       0.855  -0.178  21.781  0.00  0.00    -0.170 OA
ATOM     25  C   UNL     1       3.061   0.453  23.052  0.00  0.00    +0.200 C 
ENDBRANCH  21   1
ENDBRANCH  13  15
ENDBRANCH   6  13
TORSDOF 6
ENDMDL
MODEL 2
REMARK VINA RESULT:       0.3      1.718      5.204
REMARK  Name = 51137482
REMARK  8 active torsions:
REMARK  status: ('A' for Active; 'I' for Inactive)
REMARK    1  A    between atoms: S_1  and  C_21
REMARK    2  A    between atoms: S_1  and  C_25
REMARK    3  A    between atoms: O_5  and  C_23
REMARK    4  A    between atoms: O_5  and  C_29
REMARK    5  A    between atoms: N_6  and  C_13
REMARK    6  A    between atoms: C_9  and  C_14
REMARK    7  A    between atoms: C_13  and  C_15
REMARK    8  A    between atoms: C_18  and  C_22
REMARK                            x       y       z     vdW  Elec       q    Type
REMARK                         _______ _______ _______ _____ _____    ______ ____
ROOT
ATOM      6  N   UNL     1      -3.626  -2.275  25.196  0.00  0.00    -0.297 NA
ATOM      9  C   UNL     1      -4.889  -0.302  25.298  0.00  0.00    +0.092 C 
ATOM     10  C   UNL     1      -5.056  -0.950  23.912  0.00  0.00    +0.029 C 
ATOM     11  C   UNL     1      -3.661  -0.994  25.904  0.00  0.00    +0.097 C 
ATOM     12  C   UNL     1      -3.907  -1.942  23.800  0.00  0.00    +0.085 C 
ENDROOT
BRANCH   9  14
ATOM      2  O   UNL     1      -3.523   1.722  25.126  0.00  0.00    -0.420 OA
ATOM      7  N   UNL     1      -5.706   2.117  25.410  0.00  0.00    -0.112 NA
ATOM      8  N   UNL     1      -5.059   3.336  25.330  0.00  0.00    -0.107 NA
ATOM     14  C   UNL     1      -4.771   1.204  25.286  0.00  0.00    +0.222 A 
ATOM     18  C   UNL     1      -3.787   3.056  25.164  0.00  0.00    +0.252 A 
BRANCH  18  22
ATOM     22  C   UNL     1      -2.654   3.925  25.019  0.00  0.00    +0.080 A 
ATOM     23  C   UNL     1      -1.362   3.408  24.934  0.00  0.00    +0.132 A 
ATOM     24  C   UNL     1      -2.859   5.303  24.965  0.00  0.00    +0.017 A 
ATOM     26  C   UNL     1      -0.274   4.270  24.795  0.00  0.00    +0.046 A 
ATOM     27  C   UNL     1      -1.771   6.165  24.825  0.00  0.00    +0.001 A 
ATOM     28  C   UNL     1      -0.479   5.648  24.740  0.00  0.00    +0.004 A 
BRANCH  23   5
ATOM      5  O   UNL     1      -1.132   2.064  24.984  0.00  0.00    -0.494 OA
ATOM     29  C   UNL     1      -0.293   1.590  26.035  0.00  0.00    +0.277 C 
ENDBRANCH  23   5
ENDBRANCH  18  22
ENDBRANCH   9  14
BRANCH   6  13
ATOM     13  C   UNL     1      -2.353  -2.964  25.356  0.00  0.00    +0.119 C 
BRANCH  13  15
ATOM     15  C   UNL     1      -1.217  -2.193  24.739  0.00  0.00    -0.033 A 
ATOM     16  C   UNL     1       0.074  -2.327  25.249  0.00  0.00    +0.007 A 
ATOM     17  C   UNL     1      -1.455  -1.344  23.657  0.00  0.00    +0.007 A 
ATOM     19  C   UNL     1       1.128  -1.611  24.677  0.00  0.00    +0.027 A 
ATOM     20  C   UNL     1      -0.403  -0.629  23.086  0.00  0.00    +0.027 A 
ATOM     21  C   UNL     1       0.888  -0.763  23.596  0.00  0.00    +0.088 A 
BRANCH  21   1
ATOM      1  S   UNL     1       2.207   0.131  22.881  0.00  0.00    -0.006 S 
ATOM      3  O   UNL     1       2.165  -0.043  21.435  0.00  0.00    -0.170 OA
ATOM      4  O   UNL     1       2.200   1.472  23.448  0.00  0.00    -0.170 OA
ATOM     25  C   UNL     1       3.669  -0.700  23.460  0.00  0.00    +0.200 C 
ENDBRANCH  21   1
ENDBRANCH  13  15
ENDBRANCH   6  13
TORSDOF 6
ENDMDL
MODEL 3
REMARK VINA RESULT:       0.6      2.910      7.110
REMARK  Name = 51137482
REMARK  8 active torsions:
REMARK  status: ('A' for Active; 'I' for Inactive)
REMARK    1  A    between atoms: S_1  and  C_21
REMARK    2  A    between atoms: S_1  and  C_25
REMARK    3  A    between atoms: O_5  and  C_23
REMARK    4  A    between atoms: O_5  and  C_29
REMARK    5  A    between atoms: N_6  and  C_13
REMARK    6  A    between atoms: C_9  and  C_14
REMARK    7  A    between atoms: C_13  and  C_15
REMARK    8  A    between atoms: C_18  and  C_22
REMARK                            x       y       z     vdW  Elec       q    Type
REMARK                         _______ _______ _______ _____ _____    ______ ____
ROOT
ATOM      6  N   UNL     1      -1.370  -2.858  24.336  0.00  0.00    -0.297 NA
ATOM      9  C   UNL     1       0.304  -1.306  23.800  0.00  0.00    +0.092 C 
ATOM     10  C   UNL     1       0.686  -2.051  25.091  0.00  0.00    +0.029 C 
ATOM     11  C   UNL     1      -1.191  -1.599  23.611  0.00  0.00    +0.097 C 
ATOM     12  C   UNL     1      -0.607  -2.694  25.572  0.00  0.00    +0.085 C 
ENDROOT
BRANCH   9  14
ATOM      2  O   UNL     1      -0.389   1.015  24.155  0.00  0.00    -0.420 OA
ATOM      7  N   UNL     1       1.739   0.788  23.505  0.00  0.00    -0.112 NA
ATOM      8  N   UNL     1       1.484   2.137  23.667  0.00  0.00    -0.107 NA
ATOM     14  C   UNL     1       0.619   0.172  23.801  0.00  0.00    +0.222 A 
ATOM     18  C   UNL     1       0.231   2.222  24.046  0.00  0.00    +0.252 A 
BRANCH  18  22
ATOM     22  C   UNL     1      -0.571   3.370  24.359  0.00  0.00    +0.080 A 
ATOM     23  C   UNL     1      -1.963   3.310  24.294  0.00  0.00    +0.132 A 
ATOM     24  C   UNL     1       0.059   4.557  24.731  0.00  0.00    +0.017 A 
ATOM     26  C   UNL     1      -2.725   4.438  24.601  0.00  0.00    +0.046 A 
ATOM     27  C   UNL     1      -0.702   5.685  25.038  0.00  0.00    +0.001 A 
ATOM     28  C   UNL     1      -2.094   5.625  24.973  0.00  0.00    +0.004 A 
BRANCH  23   5
ATOM      5  O   UNL     1      -2.606   2.163  23.934  0.00  0.00    -0.494 OA
ATOM     29  C   UNL     1      -2.970   2.028  22.562  0.00  0.00    +0.277 C 
ENDBRANCH  23   5
ENDBRANCH  18  22
ENDBRANCH   9  14
BRANCH   6  13
ATOM     13  C   UNL     1      -2.772  -3.162  24.585  0.00  0.00    +0.119 C 
BRANCH  13  15
ATOM     15  C   UNL     1      -3.581  -1.914  24.821  0.00  0.00    -0.033 A 
ATOM     16  C   UNL     1      -4.453  -1.453  23.835  0.00  0.00    +0.007 A 
ATOM     17  C   UNL     1      -3.459  -1.219  26.024  0.00  0.00    +0.007 A 
ATOM     19  C   UNL     1      -5.203  -0.296  24.052  0.00  0.00    +0.027 A 
ATOM     20  C   UNL     1      -4.208  -0.063  26.242  0.00  0.00    +0.027 A 
ATOM     21  C   UNL     1      -5.080   0.398  25.256  0.00  0.00    +0.088 A 
BRANCH  21   1
ATOM      1  S   UNL     1      -6.019   1.845  25.527  0.00  0.00    -0.006 S 
ATOM      3  O   UNL     1      -5.112   2.972  25.693  0.00  0.00    -0.170 OA
ATOM      4  O   UNL     1      -7.062   1.900  24.512  0.00  0.00    -0.170 OA
ATOM     25  C   UNL     1      -6.803   1.574  27.101  0.00  0.00    +0.200 C 
ENDBRANCH  21   1
ENDBRANCH  13  15
ENDBRANCH   6  13
TORSDOF 6
ENDMDL
MODEL 4
REMARK VINA RESULT:       2.1      2.806      5.224
REMARK  Name = 51137482
REMARK  8 active torsions:
REMARK  status: ('A' for Active; 'I' for Inactive)
REMARK    1  A    between atoms: S_1  and  C_21
REMARK    2  A    between atoms: S_1  and  C_25
REMARK    3  A    between atoms: O_5  and  C_23
REMARK    4  A    between atoms: O_5  and  C_29
REMARK    5  A    between atoms: N_6  and  C_13
REMARK    6  A    between atoms: C_9  and  C_14
REMARK    7  A    between atoms: C_13  and  C_15
REMARK    8  A    between atoms: C_18  and  C_22
REMARK                            x       y       z     vdW  Elec       q    Type
REMARK                         _______ _______ _______ _____ _____    ______ ____
ROOT
ATOM      6  N   UNL     1      -0.444   4.995  24.811  0.00  0.00    -0.297 NA
ATOM      9  C   UNL     1       0.706   2.983  24.455  0.00  0.00    +0.092 C 
ATOM     10  C   UNL     1       0.874   3.897  23.228  0.00  0.00    +0.029 C 
ATOM     11  C   UNL     1      -0.464   3.594  25.237  0.00  0.00    +0.097 C 
ATOM     12  C   UNL     1      -0.218   4.947  23.367  0.00  0.00    +0.085 C 
ENDROOT
BRANCH   9  14
ATOM      2  O   UNL     1      -0.738   1.008  24.366  0.00  0.00    -0.420 OA
ATOM      7  N   UNL     1       1.352   0.641  23.660  0.00  0.00    -0.112 NA
ATOM      8  N   UNL     1       0.652  -0.547  23.557  0.00  0.00    -0.107 NA
ATOM     14  C   UNL     1       0.501   1.520  24.135  0.00  0.00    +0.222 A 
ATOM     18  C   UNL     1      -0.562  -0.285  23.981  0.00  0.00    +0.252 A 
BRANCH  18  22
ATOM     22  C   UNL     1      -1.711  -1.137  24.096  0.00  0.00    +0.080 A 
ATOM     23  C   UNL     1      -2.995  -0.639  23.881  0.00  0.00    +0.132 A 
ATOM     24  C   UNL     1      -1.531  -2.479  24.430  0.00  0.00    +0.017 A 
ATOM     26  C   UNL     1      -4.100  -1.483  23.999  0.00  0.00    +0.046 A 
ATOM     27  C   UNL     1      -2.634  -3.323  24.548  0.00  0.00    +0.001 A 
ATOM     28  C   UNL     1      -3.919  -2.825  24.333  0.00  0.00    +0.004 A 
BRANCH  23   5
ATOM      5  O   UNL     1      -3.202   0.669  23.554  0.00  0.00    -0.494 OA
ATOM     29  C   UNL     1      -2.832   1.073  22.238  0.00  0.00    +0.277 C 
ENDBRANCH  23   5
ENDBRANCH  18  22
ENDBRANCH   9  14
BRANCH   6  13
ATOM     13  C   UNL     1      -1.670   5.699  25.158  0.00  0.00    +0.119 C 
BRANCH  13  15
ATOM     15  C   UNL     1      -2.833   4.756  25.312  0.00  0.00    -0.033 A 
ATOM     16  C   UNL     1      -3.192   4.292  26.578  0.00  0.00    +0.007 A 
ATOM     17  C   UNL     1      -3.552   4.345  24.189  0.00  0.00    +0.007 A 
ATOM     19  C   UNL     1      -4.269   3.417  26.721  0.00  0.00    +0.027 A 
ATOM     20  C   UNL     1      -4.629   3.470  24.332  0.00  0.00    +0.027 A 
ATOM     21  C   UNL     1      -4.987   3.006  25.598  0.00  0.00    +0.088 A 
BRANCH  21   1
ATOM      1  S   UNL     1      -6.336   1.912  25.778  0.00  0.00    -0.006 S 
ATOM      3  O   UNL     1      -6.974   2.158  27.064  0.00  0.00    -0.170 OA
ATOM      4  O   UNL     1      -7.126   1.970  24.556  0.00  0.00    -0.170 OA
ATOM     25  C   UNL     1      -5.589   0.301  25.870  0.00  0.00    +0.200 C 
ENDBRANCH  21   1
ENDBRANCH  13  15
ENDBRANCH   6  13
TORSDOF 6
ENDMDL
MODEL 5
REMARK VINA RESULT:       2.4      2.294      5.415
REMARK  Name = 51137482
REMARK  8 active torsions:
REMARK  status: ('A' for Active; 'I' for Inactive)
REMARK    1  A    between atoms: S_1  and  C_21
REMARK    2  A    between atoms: S_1  and  C_25
REMARK    3  A    between atoms: O_5  and  C_23
REMARK    4  A    between atoms: O_5  and  C_29
REMARK    5  A    between atoms: N_6  and  C_13
REMARK    6  A    between atoms: C_9  and  C_14
REMARK    7  A    between atoms: C_13  and  C_15
REMARK    8  A    between atoms: C_18  and  C_22
REMARK                            x       y       z     vdW  Elec       q    Type
REMARK                         _______ _______ _______ _____ _____    ______ ____
ROOT
ATOM      6  N   UNL     1      -4.167   3.899  25.282  0.00  0.00    -0.297 NA
ATOM      9  C   UNL     1      -1.888   4.121  25.789  0.00  0.00    +0.092 C 
ATOM     10  C   UNL     1      -2.231   4.990  24.565  0.00  0.00    +0.029 C 
ATOM     11  C   UNL     1      -3.080   3.165  25.932  0.00  0.00    +0.097 C 
ATOM     12  C   UNL     1      -3.571   4.463  24.071  0.00  0.00    +0.085 C 
ENDROOT
BRANCH   9  14
ATOM      2  O   UNL     1      -0.328   2.670  24.583  0.00  0.00    -0.420 OA
ATOM      7  N   UNL     1       0.426   3.369  26.569  0.00  0.00    -0.112 NA
ATOM      8  N   UNL     1       1.397   2.565  26.003  0.00  0.00    -0.107 NA
ATOM     14  C   UNL     1      -0.562   3.402  25.706  0.00  0.00    +0.222 A 
ATOM     18  C   UNL     1       0.914   2.180  24.845  0.00  0.00    +0.252 A 
BRANCH  18  22
ATOM     22  C   UNL     1       1.483   1.338  23.833  0.00  0.00    +0.080 A 
ATOM     23  C   UNL     1       0.779   0.244  23.332  0.00  0.00    +0.132 A 
ATOM     24  C   UNL     1       2.760   1.625  23.350  0.00  0.00    +0.017 A 
ATOM     26  C   UNL     1       1.351  -0.563  22.348  0.00  0.00    +0.046 A 
ATOM     27  C   UNL     1       3.331   0.819  22.366  0.00  0.00    +0.001 A 
ATOM     28  C   UNL     1       2.627  -0.275  21.866  0.00  0.00    +0.004 A 
BRANCH  23   5
ATOM      5  O   UNL     1      -0.471  -0.062  23.785  0.00  0.00    -0.494 OA
ATOM     29  C   UNL     1      -0.559  -0.727  25.043  0.00  0.00    +0.277 C 
ENDBRANCH  23   5
ENDBRANCH  18  22
ENDBRANCH   9  14
BRANCH   6  13
ATOM     13  C   UNL     1      -5.315   3.052  24.992  0.00  0.00    +0.119 C 
BRANCH  13  15
ATOM     15  C   UNL     1      -4.919   1.609  24.829  0.00  0.00    -0.033 A 
ATOM     16  C   UNL     1      -5.227   0.685  25.827  0.00  0.00    +0.007 A 
ATOM     17  C   UNL     1      -4.243   1.196  23.680  0.00  0.00    +0.007 A 
ATOM     19  C   UNL     1      -4.859  -0.653  25.677  0.00  0.00    +0.027 A 
ATOM     20  C   UNL     1      -3.876  -0.141  23.529  0.00  0.00    +0.027 A 
ATOM     21  C   UNL     1      -4.184  -1.065  24.528  0.00  0.00    +0.088 A 
BRANCH  21   1
ATOM      1  S   UNL     1      -3.725  -2.739  24.339  0.00  0.00    -0.006 S 
ATOM      3  O   UNL     1      -3.577  -3.339  25.659  0.00  0.00    -0.170 OA
ATOM      4  O   UNL     1      -4.625  -3.344  23.368  0.00  0.00    -0.170 OA
ATOM     25  C   UNL     1      -2.102  -2.674  23.615  0.00  0.00    +0.200 C 
ENDBRANCH  21   1
ENDBRANCH  13  15
ENDBRANCH   6  13
TORSDOF 6
ENDMDL
MODEL 6
REMARK VINA RESULT:       2.7      2.822      5.141
REMARK  Name = 51137482
REMARK  8 active torsions:
REMARK  status: ('A' for Active; 'I' for Inactive)
REMARK    1  A    between atoms: S_1  and  C_21
REMARK    2  A    between atoms: S_1  and  C_25
REMARK    3  A    between atoms: O_5  and  C_23
REMARK    4  A    between atoms: O_5  and  C_29
REMARK    5  A    between atoms: N_6  and  C_13
REMARK    6  A    between atoms: C_9  and  C_14
REMARK    7  A    between atoms: C_13  and  C_15
REMARK    8  A    between atoms: C_18  and  C_22
REMARK                            x       y       z     vdW  Elec       q    Type
REMARK                         _______ _______ _______ _____ _____    ______ ____
ROOT
ATOM      6  N   UNL     1      -0.501   4.900  24.841  0.00  0.00    -0.297 NA
ATOM      9  C   UNL     1       0.617   2.888  24.389  0.00  0.00    +0.092 C 
ATOM     10  C   UNL     1       0.782   3.848  23.198  0.00  0.00    +0.029 C 
ATOM     11  C   UNL     1      -0.535   3.483  25.211  0.00  0.00    +0.097 C 
ATOM     12  C   UNL     1      -0.294   4.907  23.393  0.00  0.00    +0.085 C 
ENDROOT
BRANCH   9  14
ATOM      2  O   UNL     1      -0.838   0.922  24.291  0.00  0.00    -0.420 OA
ATOM      7  N   UNL     1       1.207   0.585  23.451  0.00  0.00    -0.112 NA
ATOM      8  N   UNL     1       0.497  -0.595  23.334  0.00  0.00    -0.107 NA
ATOM     14  C   UNL     1       0.388   1.443  24.014  0.00  0.00    +0.222 A 
ATOM     18  C   UNL     1      -0.690  -0.352  23.837  0.00  0.00    +0.252 A 
BRANCH  18  22
ATOM     22  C   UNL     1      -1.834  -1.206  23.978  0.00  0.00    +0.080 A 
ATOM     23  C   UNL     1      -1.722  -2.459  24.578  0.00  0.00    +0.132 A 
ATOM     24  C   UNL     1      -3.071  -0.768  23.504  0.00  0.00    +0.017 A 
ATOM     26  C   UNL     1      -2.847  -3.276  24.704  0.00  0.00    +0.046 A 
ATOM     27  C   UNL     1      -4.195  -1.584  23.630  0.00  0.00    +0.001 A 
ATOM     28  C   UNL     1      -4.082  -2.837  24.230  0.00  0.00    +0.004 A 
BRANCH  23   5
ATOM      5  O   UNL     1      -0.526  -2.914  25.051  0.00  0.00    -0.494 OA
ATOM     29  C   UNL     1       0.063  -2.188  26.127  0.00  0.00    +0.277 C 
ENDBRANCH  23   5
ENDBRANCH  18  22
ENDBRANCH   9  14
BRANCH   6  13
ATOM     13  C   UNL     1      -1.712   5.605  25.232  0.00  0.00    +0.119 C 
BRANCH  13  15
ATOM     15  C   UNL     1      -2.890   4.675  25.347  0.00  0.00    -0.033 A 
ATOM     16  C   UNL     1      -3.401   4.349  26.604  0.00  0.00    +0.007 A 
ATOM     17  C   UNL     1      -3.471   4.137  24.198  0.00  0.00    +0.007 A 
ATOM     19  C   UNL     1      -4.492   3.486  26.712  0.00  0.00    +0.027 A 
ATOM     20  C   UNL     1      -4.561   3.274  24.305  0.00  0.00    +0.027 A 
ATOM     21  C   UNL     1      -5.071   2.949  25.562  0.00  0.00    +0.088 A 
BRANCH  21   1
ATOM      1  S   UNL     1      -6.437   1.869  25.697  0.00  0.00    -0.006 S 
ATOM      3  O   UNL     1      -7.030   2.022  27.019  0.00  0.00    -0.170 OA
ATOM      4  O   UNL     1      -7.263   2.041  24.511  0.00  0.00    -0.170 OA
ATOM     25  C   UNL     1      -5.723   0.242  25.635  0.00  0.00    +0.200 C 
ENDBRANCH  21   1
ENDBRANCH  13  15
ENDBRANCH   6  13
TORSDOF 6
ENDMDL
MODEL 7
REMARK VINA RESULT:       3.4      2.782      5.363
REMARK  Name = 51137482
REMARK  8 active torsions:
REMARK  status: ('A' for Active; 'I' for Inactive)
REMARK    1  A    between atoms: S_1  and  C_21
REMARK    2  A    between atoms: S_1  and  C_25
REMARK    3  A    between atoms: O_5  and  C_23
REMARK    4  A    between atoms: O_5  and  C_29
REMARK    5  A    between atoms: N_6  and  C_13
REMARK    6  A    between atoms: C_9  and  C_14
REMARK    7  A    between atoms: C_13  and  C_15
REMARK    8  A    between atoms: C_18  and  C_22
REMARK                            x       y       z     vdW  Elec       q    Type
REMARK                         _______ _______ _______ _____ _____    ______ ____
ROOT
ATOM      6  N   UNL     1      -5.414   0.275  24.987  0.00  0.00    -0.297 NA
ATOM      9  C   UNL     1      -3.855  -1.437  24.615  0.00  0.00    +0.092 C 
ATOM     10  C   UNL     1      -4.204  -1.375  26.113  0.00  0.00    +0.029 C 
ATOM     11  C   UNL     1      -4.363  -0.107  24.042  0.00  0.00    +0.097 C 
ATOM     12  C   UNL     1      -4.857  -0.013  26.308  0.00  0.00    +0.085 C 
ENDROOT
BRANCH   9  14
ATOM      2  O   UNL     1      -1.622  -0.602  24.058  0.00  0.00    -0.420 OA
ATOM      7  N   UNL     1      -1.741  -2.827  24.250  0.00  0.00    -0.112 NA
ATOM      8  N   UNL     1      -0.437  -2.495  23.936  0.00  0.00    -0.107 NA
ATOM     14  C   UNL     1      -2.397  -1.692  24.312  0.00  0.00    +0.222 A 
ATOM     18  C   UNL     1      -0.415  -1.186  23.833  0.00  0.00    +0.252 A 
BRANCH  18  22
ATOM     22  C   UNL     1       0.667  -0.295  23.527  0.00  0.00    +0.080 A 
ATOM     23  C   UNL     1       0.678   1.011  24.015  0.00  0.00    +0.132 A 
ATOM     24  C   UNL     1       1.717  -0.750  22.730  0.00  0.00    +0.017 A 
ATOM     26  C   UNL     1       1.739   1.863  23.705  0.00  0.00    +0.046 A 
ATOM     27  C   UNL     1       2.778   0.100  22.420  0.00  0.00    +0.001 A 
ATOM     28  C   UNL     1       2.788   1.407  22.907  0.00  0.00    +0.004 A 
BRANCH  23   5
ATOM      5  O   UNL     1      -0.335   1.484  24.797  0.00  0.00    -0.494 OA
ATOM     29  C   UNL     1       0.017   1.958  26.094  0.00  0.00    +0.277 C 
ENDBRANCH  23   5
ENDBRANCH  18  22
ENDBRANCH   9  14
BRANCH   6  13
ATOM     13  C   UNL     1      -5.811   1.668  24.844  0.00  0.00    +0.119 C 
BRANCH  13  15
ATOM     15  C   UNL     1      -4.621   2.590  24.821  0.00  0.00    -0.033 A 
ATOM     16  C   UNL     1      -3.860   2.716  23.658  0.00  0.00    +0.007 A 
ATOM     17  C   UNL     1      -4.277   3.316  25.961  0.00  0.00    +0.007 A 
ATOM     19  C   UNL     1      -2.756   3.569  23.636  0.00  0.00    +0.027 A 
ATOM     20  C   UNL     1      -3.175   4.169  25.939  0.00  0.00    +0.027 A 
ATOM     21  C   UNL     1      -2.414   4.296  24.777  0.00  0.00    +0.088 A 
BRANCH  21   1
ATOM      1  S   UNL     1      -1.033   5.364  24.748  0.00  0.00    -0.006 S 
ATOM      3  O   UNL     1      -1.502   6.742  24.796  0.00  0.00    -0.170 OA
ATOM      4  O   UNL     1      -0.079   4.891  25.741  0.00  0.00    -0.170 OA
ATOM     25  C   UNL     1      -0.316   5.117  23.140  0.00  0.00    +0.200 C 
ENDBRANCH  21   1
ENDBRANCH  13  15
ENDBRANCH   6  13
TORSDOF 6
ENDMDL
