MODEL 1
REMARK VINA RESULT:       1.8      0.000      0.000
REMARK  Name = 11886261
REMARK  6 active torsions:
REMARK  status: ('A' for Active; 'I' for Inactive)
REMARK    1  A    between atoms: O_3  and  C_20
REMARK    2  A    between atoms: O_3  and  C_22
REMARK    3  A    between atoms: N_5  and  C_16
REMARK    4  A    between atoms: N_6  and  C_17
REMARK    5  A    between atoms: N_10  and  C_23
REMARK    6  A    between atoms: N_11  and  C_30
REMARK                            x       y       z     vdW  Elec       q    Type
REMARK                         _______ _______ _______ _____ _____    ______ ____
ROOT
ATOM      1  O   UNL     1      -4.282  -0.772  23.543  0.00  0.00    -0.370 OA
ATOM      2  O   UNL     1      -2.073  -0.383  25.748  0.00  0.00    -0.370 OA
ATOM     14  C   UNL     1      -2.811   0.520  24.903  0.00  0.00    +0.176 C 
ATOM     15  C   UNL     1      -2.982  -0.162  23.560  0.00  0.00    +0.172 C 
ATOM     16  C   UNL     1      -4.222   0.685  25.433  0.00  0.00    +0.171 C 
ATOM     17  C   UNL     1      -1.905  -1.225  23.540  0.00  0.00    +0.131 C 
ATOM     18  C   UNL     1      -4.979  -0.450  24.754  0.00  0.00    +0.190 C 
ATOM     19  C   UNL     1      -1.770  -1.575  25.010  0.00  0.00    +0.185 C 
ENDROOT
BRANCH  17   6
ATOM      4  O   UNL     1       0.706  -1.524  24.679  0.00  0.00    -0.252 OA
ATOM      6  N   UNL     1      -0.668  -0.704  23.011  0.00  0.00    -0.292 N 
ATOM     10  N   UNL     1       1.586  -0.279  22.894  0.00  0.00    -0.269 N 
ATOM     21  C   UNL     1       0.571  -0.895  23.632  0.00  0.00    +0.304 C 
ATOM     36  H   UNL     1      -0.688  -0.231  22.113  0.00  0.00    +0.151 HD
ATOM     37  H   UNL     1       1.303   0.205  22.046  0.00  0.00    +0.156 HD
BRANCH  10  23
ATOM     23  C   UNL     1       2.970  -0.242  23.184  0.00  0.00    +0.035 A 
ATOM     26  C   UNL     1       3.589  -1.376  23.684  0.00  0.00    +0.023 A 
ATOM     27  C   UNL     1       3.679   0.927  22.962  0.00  0.00    +0.023 A 
ATOM     31  C   UNL     1       4.954  -1.340  23.968  0.00  0.00    +0.002 A 
ATOM     32  C   UNL     1       5.044   0.963  23.247  0.00  0.00    +0.002 A 
ATOM     33  C   UNL     1       5.682  -0.171  23.750  0.00  0.00    +0.000 A 
ENDBRANCH  10  23
ENDBRANCH  17   6
BRANCH  16   5
ATOM      5  N   UNL     1      -4.761   2.025  25.187  0.00  0.00    -0.187 N 
ATOM      7  N   UNL     1      -6.048   2.299  25.421  0.00  0.00    -0.041 NA
ATOM      8  N   UNL     1      -4.990   4.108  24.657  0.00  0.00    -0.071 NA
ATOM      9  N   UNL     1      -6.184   3.579  25.094  0.00  0.00    -0.020 NA
ATOM     20  C   UNL     1      -4.121   3.124  24.724  0.00  0.00    +0.342 A 
BRANCH  20   3
ATOM      3  O   UNL     1      -2.843   3.178  24.400  0.00  0.00    -0.423 OA
BRANCH   3  22
ATOM     22  C   UNL     1      -1.828   3.047  25.337  0.00  0.00    +0.132 A 
ATOM     24  C   UNL     1      -0.622   2.497  24.948  0.00  0.00    +0.048 A 
ATOM     25  C   UNL     1      -2.054   3.471  26.632  0.00  0.00    +0.048 A 
ATOM     28  C   UNL     1       0.398   2.366  25.890  0.00  0.00    +0.031 A 
ATOM     29  C   UNL     1      -1.033   3.340  27.575  0.00  0.00    +0.031 A 
ATOM     30  C   UNL     1       0.193   2.788  27.203  0.00  0.00    +0.067 A 
BRANCH  30  11
ATOM     11  N   UNL     1       1.204   2.657  28.137  0.00  0.00    -0.220 N 
ATOM     12  N   UNL     1       2.436   3.156  27.930  0.00  0.00    -0.154 NA
ATOM     13  N   UNL     1       2.291   2.117  29.964  0.00  0.00    -0.222 NA
ATOM     34  C   UNL     1       1.131   2.041  29.352  0.00  0.00    +0.225 A 
ATOM     35  C   UNL     1       3.052   2.803  29.060  0.00  0.00    +0.245 A 
ENDBRANCH  30  11
ENDBRANCH   3  22
ENDBRANCH  20   3
ENDBRANCH  16   5
TORSDOF 6
ENDMDL
