MODEL 1
REMARK VINA RESULT:      -2.7      0.000      0.000
REMARK  Name = 38029363
REMARK  12 active torsions:
REMARK  status: ('A' for Active; 'I' for Inactive)
REMARK    1  A    between atoms: N_3  and  C_14
REMARK    2  A    between atoms: N_4  and  C_21
REMARK    3  A    between atoms: C_7  and  C_11
REMARK    4  A    between atoms: C_8  and  C_14
REMARK    5  A    between atoms: C_10  and  C_15
REMARK    6  A    between atoms: C_11  and  C_16
REMARK    7  A    between atoms: C_11  and  C_17
REMARK    8  A    between atoms: C_12  and  C_18
REMARK    9  A    between atoms: C_15  and  C_19
REMARK   10  A    between atoms: C_20  and  C_22
REMARK   11  A    between atoms: C_21  and  C_23
REMARK   12  A    between atoms: C_32  and  C_33
REMARK                            x       y       z     vdW  Elec       q    Type
REMARK                         _______ _______ _______ _____ _____    ______ ____
ROOT
ATOM      7  C   UNL     1      -1.968   0.166  24.922  0.00  0.00    +0.000 C 
ATOM      8  C   UNL     1      -1.010  -0.986  24.527  0.00  0.00    +0.032 C 
ATOM      9  C   UNL     1      -3.045  -0.341  25.894  0.00  0.00    +0.012 C 
ATOM     10  C   UNL     1      -3.880  -1.486  25.291  0.00  0.00    +0.023 C 
ATOM     12  C   UNL     1      -3.006  -2.539  24.640  0.00  0.00    -0.073 C 
ATOM     13  C   UNL     1      -1.723  -2.302  24.318  0.00  0.00    -0.022 C 
ATOM     18  C   UNL     1      -3.631  -3.887  24.408  0.00  0.00    +0.039 C 
ENDROOT
BRANCH   7  11
ATOM     11  C   UNL     1      -1.215   1.342  25.551  0.00  0.00    -0.013 C 
ATOM     16  C   UNL     1      -0.322   0.855  26.690  0.00  0.00    +0.007 C 
ATOM     17  C   UNL     1      -0.394   2.073  24.495  0.00  0.00    +0.007 C 
ENDBRANCH   7  11
BRANCH   8  14
ATOM     14  C   UNL     1      -0.210  -0.633  23.269  0.00  0.00    +0.112 C 
BRANCH  14   3
ATOM      2  O   UNL     1       1.923  -0.235  21.387  0.00  0.00    -0.269 OA
ATOM      3  N   UNL     1       1.184  -0.525  23.568  0.00  0.00    -0.310 N 
ATOM     20  C   UNL     1       2.158  -0.330  22.588  0.00  0.00    +0.262 C 
ATOM     34  H   UNL     1       1.474  -0.551  24.541  0.00  0.00    +0.149 HD
BRANCH  20  22
ATOM      5  N   UNL     1       4.049  -1.393  23.625  0.00  0.00    -0.250 NA
ATOM     22  C   UNL     1       3.565  -0.263  23.061  0.00  0.00    +0.125 A 
ATOM     24  C   UNL     1       4.297   0.903  22.909  0.00  0.00    +0.033 A 
ATOM     27  C   UNL     1       5.609   0.911  23.367  0.00  0.00    +0.004 A 
ATOM     28  C   UNL     1       5.328  -1.348  24.058  0.00  0.00    +0.111 A 
ATOM     31  C   UNL     1       6.143  -0.232  23.953  0.00  0.00    +0.020 A 
ENDBRANCH  20  22
ENDBRANCH  14   3
ENDBRANCH   8  14
BRANCH  10  15
ATOM     15  C   UNL     1      -4.921  -0.949  24.302  0.00  0.00    +0.103 C 
BRANCH  15  19
ATOM      1  O   UNL     1      -4.233   1.226  23.493  0.00  0.00    -0.276 OA
ATOM      4  N   UNL     1      -5.830   1.083  25.176  0.00  0.00    -0.311 N 
ATOM     19  C   UNL     1      -4.933   0.563  24.254  0.00  0.00    +0.214 C 
ATOM     35  H   UNL     1      -6.369   0.452  25.762  0.00  0.00    +0.149 HD
BRANCH   4  21
ATOM     21  C   UNL     1      -6.049   2.500  25.351  0.00  0.00    +0.139 C 
BRANCH  21  23
ATOM     23  C   UNL     1      -4.773   3.284  25.242  0.00  0.00    -0.030 A 
ATOM     25  C   UNL     1      -4.000   3.520  26.379  0.00  0.00    +0.006 A 
ATOM     26  C   UNL     1      -4.361   3.776  24.003  0.00  0.00    +0.006 A 
ATOM     29  C   UNL     1      -2.815   4.248  26.278  0.00  0.00    +0.019 A 
ATOM     30  C   UNL     1      -3.175   4.504  23.902  0.00  0.00    +0.019 A 
ATOM     32  C   UNL     1      -2.402   4.740  25.039  0.00  0.00    +0.052 A 
BRANCH  32  33
ATOM      6  N   UNL     1      -0.202   6.092  24.850  0.00  0.00    -0.191 NA
ATOM     33  C   UNL     1      -1.188   5.485  24.935  0.00  0.00    +0.099 C 
ENDBRANCH  32  33
ENDBRANCH  21  23
ENDBRANCH   4  21
ENDBRANCH  15  19
ENDBRANCH  10  15
TORSDOF 9
ENDMDL
MODEL 2
REMARK VINA RESULT:      -0.6      1.898      7.538
REMARK  Name = 38029363
REMARK  12 active torsions:
REMARK  status: ('A' for Active; 'I' for Inactive)
REMARK    1  A    between atoms: N_3  and  C_14
REMARK    2  A    between atoms: N_4  and  C_21
REMARK    3  A    between atoms: C_7  and  C_11
REMARK    4  A    between atoms: C_8  and  C_14
REMARK    5  A    between atoms: C_10  and  C_15
REMARK    6  A    between atoms: C_11  and  C_16
REMARK    7  A    between atoms: C_11  and  C_17
REMARK    8  A    between atoms: C_12  and  C_18
REMARK    9  A    between atoms: C_15  and  C_19
REMARK   10  A    between atoms: C_20  and  C_22
REMARK   11  A    between atoms: C_21  and  C_23
REMARK   12  A    between atoms: C_32  and  C_33
REMARK                            x       y       z     vdW  Elec       q    Type
REMARK                         _______ _______ _______ _____ _____    ______ ____
ROOT
ATOM      7  C   UNL     1      -3.600   3.427  25.612  0.00  0.00    +0.000 C 
ATOM      8  C   UNL     1      -3.582   3.809  24.110  0.00  0.00    +0.032 C 
ATOM      9  C   UNL     1      -2.507   4.192  26.374  0.00  0.00    +0.012 C 
ATOM     10  C   UNL     1      -1.100   3.906  25.815  0.00  0.00    +0.023 C 
ATOM     12  C   UNL     1      -1.065   4.003  24.303  0.00  0.00    -0.073 C 
ATOM     13  C   UNL     1      -2.184   3.971  23.559  0.00  0.00    -0.022 C 
ATOM     18  C   UNL     1       0.287   4.181  23.668  0.00  0.00    +0.039 C 
ENDROOT
BRANCH   7  11
ATOM     11  C   UNL     1      -4.965   3.700  26.251  0.00  0.00    -0.013 C 
ATOM     16  C   UNL     1      -5.790   4.631  25.368  0.00  0.00    +0.007 C 
ATOM     17  C   UNL     1      -5.707   2.392  26.500  0.00  0.00    +0.007 C 
ENDBRANCH   7  11
BRANCH   8  14
ATOM     14  C   UNL     1      -4.347   2.783  23.268  0.00  0.00    +0.112 C 
BRANCH  14   3
ATOM      2  O   UNL     1      -5.971   0.767  24.511  0.00  0.00    -0.269 OA
ATOM      3  N   UNL     1      -3.948   1.453  23.604  0.00  0.00    -0.310 N 
ATOM     20  C   UNL     1      -4.805   0.532  24.208  0.00  0.00    +0.262 C 
ATOM     34  H   UNL     1      -3.010   1.151  23.355  0.00  0.00    +0.149 HD
BRANCH  20  22
ATOM      5  N   UNL     1      -4.301  -1.716  23.522  0.00  0.00    -0.250 NA
ATOM     22  C   UNL     1      -4.229  -0.803  24.516  0.00  0.00    +0.125 A 
ATOM     24  C   UNL     1      -3.662  -1.049  25.756  0.00  0.00    +0.033 A 
ATOM     27  C   UNL     1      -3.136  -2.314  25.991  0.00  0.00    +0.004 A 
ATOM     28  C   UNL     1      -3.779  -2.935  23.787  0.00  0.00    +0.111 A 
ATOM     31  C   UNL     1      -3.191  -3.281  24.993  0.00  0.00    +0.020 A 
ENDBRANCH  20  22
ENDBRANCH  14   3
ENDBRANCH   8  14
BRANCH  10  15
ATOM     15  C   UNL     1      -0.582   2.545  26.290  0.00  0.00    +0.103 C 
BRANCH  15  19
ATOM      1  O   UNL     1      -1.554   0.854  24.857  0.00  0.00    -0.276 OA
ATOM      4  N   UNL     1       0.679   1.439  24.586  0.00  0.00    -0.311 N 
ATOM     19  C   UNL     1      -0.573   1.519  25.178  0.00  0.00    +0.214 C 
ATOM     35  H   UNL     1       1.431   2.034  24.920  0.00  0.00    +0.149 HD
BRANCH   4  21
ATOM     21  C   UNL     1       0.980   0.540  23.496  0.00  0.00    +0.139 C 
BRANCH  21  23
ATOM     23  C   UNL     1       2.456   0.302  23.353  0.00  0.00    -0.030 A 
ATOM     25  C   UNL     1       3.287   1.328  22.907  0.00  0.00    +0.006 A 
ATOM     26  C   UNL     1       2.994  -0.946  23.669  0.00  0.00    +0.006 A 
ATOM     29  C   UNL     1       4.658   1.108  22.775  0.00  0.00    +0.019 A 
ATOM     30  C   UNL     1       4.365  -1.166  23.537  0.00  0.00    +0.019 A 
ATOM     32  C   UNL     1       5.198  -0.140  23.090  0.00  0.00    +0.052 A 
BRANCH  32  33
ATOM      6  N   UNL     1       7.742  -0.551  22.845  0.00  0.00    -0.191 NA
ATOM     33  C   UNL     1       6.601  -0.366  22.955  0.00  0.00    +0.099 C 
ENDBRANCH  32  33
ENDBRANCH  21  23
ENDBRANCH   4  21
ENDBRANCH  15  19
ENDBRANCH  10  15
TORSDOF 9
ENDMDL
MODEL 3
REMARK VINA RESULT:       0.3      1.766      5.008
REMARK  Name = 38029363
REMARK  12 active torsions:
REMARK  status: ('A' for Active; 'I' for Inactive)
REMARK    1  A    between atoms: N_3  and  C_14
REMARK    2  A    between atoms: N_4  and  C_21
REMARK    3  A    between atoms: C_7  and  C_11
REMARK    4  A    between atoms: C_8  and  C_14
REMARK    5  A    between atoms: C_10  and  C_15
REMARK    6  A    between atoms: C_11  and  C_16
REMARK    7  A    between atoms: C_11  and  C_17
REMARK    8  A    between atoms: C_12  and  C_18
REMARK    9  A    between atoms: C_15  and  C_19
REMARK   10  A    between atoms: C_20  and  C_22
REMARK   11  A    between atoms: C_21  and  C_23
REMARK   12  A    between atoms: C_32  and  C_33
REMARK                            x       y       z     vdW  Elec       q    Type
REMARK                         _______ _______ _______ _____ _____    ______ ____
ROOT
ATOM      7  C   UNL     1      -2.576   2.597  23.479  0.00  0.00    +0.000 C 
ATOM      8  C   UNL     1      -1.053   2.326  23.397  0.00  0.00    +0.032 C 
ATOM      9  C   UNL     1      -2.850   4.107  23.539  0.00  0.00    +0.012 C 
ATOM     10  C   UNL     1      -2.169   4.775  24.749  0.00  0.00    +0.023 C 
ATOM     12  C   UNL     1      -0.723   4.343  24.891  0.00  0.00    -0.073 C 
ATOM     13  C   UNL     1      -0.239   3.254  24.268  0.00  0.00    -0.022 C 
ATOM     18  C   UNL     1       0.165   5.219  25.730  0.00  0.00    +0.039 C 
ENDROOT
BRANCH   7  11
ATOM     11  C   UNL     1      -3.329   1.980  22.296  0.00  0.00    -0.013 C 
ATOM     16  C   UNL     1      -4.233   3.020  21.640  0.00  0.00    +0.007 C 
ATOM     17  C   UNL     1      -2.346   1.401  21.285  0.00  0.00    +0.007 C 
ENDBRANCH   7  11
BRANCH   8  14
ATOM     14  C   UNL     1      -0.729   0.872  23.757  0.00  0.00    +0.112 C 
BRANCH  14   3
ATOM      2  O   UNL     1       0.989  -0.364  21.816  0.00  0.00    -0.269 OA
ATOM      3  N   UNL     1       0.683   0.679  23.866  0.00  0.00    -0.310 N 
ATOM     20  C   UNL     1       1.445   0.067  22.871  0.00  0.00    +0.262 C 
ATOM     34  H   UNL     1       1.159   1.039  24.688  0.00  0.00    +0.149 HD
BRANCH  20  22
ATOM      5  N   UNL     1       3.287  -1.291  23.610  0.00  0.00    -0.250 NA
ATOM     22  C   UNL     1       2.897  -0.081  23.148  0.00  0.00    +0.125 A 
ATOM     24  C   UNL     1       3.761   0.980  22.931  0.00  0.00    +0.033 A 
ATOM     27  C   UNL     1       5.109   0.788  23.205  0.00  0.00    +0.004 A 
ATOM     28  C   UNL     1       4.605  -1.441  23.864  0.00  0.00    +0.111 A 
ATOM     31  C   UNL     1       5.549  -0.443  23.681  0.00  0.00    +0.020 A 
ENDBRANCH  20  22
ENDBRANCH  14   3
ENDBRANCH   8  14
BRANCH  10  15
ATOM     15  C   UNL     1      -2.951   4.508  26.040  0.00  0.00    +0.103 C 
BRANCH  15  19
ATOM      1  O   UNL     1      -5.269   4.115  25.468  0.00  0.00    -0.276 OA
ATOM      4  N   UNL     1      -3.899   2.313  25.996  0.00  0.00    -0.311 N 
ATOM     19  C   UNL     1      -4.178   3.658  25.797  0.00  0.00    +0.214 C 
ATOM     35  H   UNL     1      -2.962   2.030  26.265  0.00  0.00    +0.149 HD
BRANCH   4  21
ATOM     21  C   UNL     1      -4.886   1.270  25.835  0.00  0.00    +0.139 C 
BRANCH  21  23
ATOM     23  C   UNL     1      -4.290   0.013  25.271  0.00  0.00    -0.030 A 
ATOM     25  C   UNL     1      -4.802  -0.535  24.096  0.00  0.00    +0.006 A 
ATOM     26  C   UNL     1      -3.222  -0.605  25.923  0.00  0.00    +0.006 A 
ATOM     29  C   UNL     1      -4.248  -1.703  23.572  0.00  0.00    +0.019 A 
ATOM     30  C   UNL     1      -2.668  -1.773  25.399  0.00  0.00    +0.019 A 
ATOM     32  C   UNL     1      -3.180  -2.322  24.223  0.00  0.00    +0.052 A 
BRANCH  32  33
ATOM      6  N   UNL     1      -2.150  -4.490  23.251  0.00  0.00    -0.191 NA
ATOM     33  C   UNL     1      -2.612  -3.518  23.687  0.00  0.00    +0.099 C 
ENDBRANCH  32  33
ENDBRANCH  21  23
ENDBRANCH   4  21
ENDBRANCH  15  19
ENDBRANCH  10  15
TORSDOF 9
ENDMDL
MODEL 4
REMARK VINA RESULT:       0.5      2.074      5.334
REMARK  Name = 38029363
REMARK  12 active torsions:
REMARK  status: ('A' for Active; 'I' for Inactive)
REMARK    1  A    between atoms: N_3  and  C_14
REMARK    2  A    between atoms: N_4  and  C_21
REMARK    3  A    between atoms: C_7  and  C_11
REMARK    4  A    between atoms: C_8  and  C_14
REMARK    5  A    between atoms: C_10  and  C_15
REMARK    6  A    between atoms: C_11  and  C_16
REMARK    7  A    between atoms: C_11  and  C_17
REMARK    8  A    between atoms: C_12  and  C_18
REMARK    9  A    between atoms: C_15  and  C_19
REMARK   10  A    between atoms: C_20  and  C_22
REMARK   11  A    between atoms: C_21  and  C_23
REMARK   12  A    between atoms: C_32  and  C_33
REMARK                            x       y       z     vdW  Elec       q    Type
REMARK                         _______ _______ _______ _____ _____    ______ ____
ROOT
ATOM      7  C   UNL     1      -2.571   1.882  24.581  0.00  0.00    +0.000 C 
ATOM      8  C   UNL     1      -1.870   2.023  23.206  0.00  0.00    +0.032 C 
ATOM      9  C   UNL     1      -2.820   3.265  25.201  0.00  0.00    +0.012 C 
ATOM     10  C   UNL     1      -1.515   4.059  25.398  0.00  0.00    +0.023 C 
ATOM     12  C   UNL     1      -0.640   4.020  24.161  0.00  0.00    -0.073 C 
ATOM     13  C   UNL     1      -0.822   3.112  23.186  0.00  0.00    -0.022 C 
ATOM     18  C   UNL     1       0.422   5.078  24.050  0.00  0.00    +0.039 C 
ENDROOT
BRANCH   7  11
ATOM     11  C   UNL     1      -3.894   1.118  24.470  0.00  0.00    -0.013 C 
ATOM     16  C   UNL     1      -5.074   2.066  24.660  0.00  0.00    +0.007 C 
ATOM     17  C   UNL     1      -3.984   0.404  23.125  0.00  0.00    +0.007 C 
ENDBRANCH   7  11
BRANCH   8  14
ATOM     14  C   UNL     1      -1.239   0.698  22.768  0.00  0.00    +0.112 C 
BRANCH  14   3
ATOM      2  O   UNL     1       0.824  -0.675  21.315  0.00  0.00    -0.269 OA
ATOM      3  N   UNL     1       0.155   0.671  23.084  0.00  0.00    -0.310 N 
ATOM     20  C   UNL     1       1.093  -0.024  22.321  0.00  0.00    +0.262 C 
ATOM     34  H   UNL     1       0.482   1.214  23.878  0.00  0.00    +0.149 HD
BRANCH  20  22
ATOM      5  N   UNL     1       2.969  -1.110  23.361  0.00  0.00    -0.250 NA
ATOM     22  C   UNL     1       2.500   0.026  22.798  0.00  0.00    +0.125 A 
ATOM     24  C   UNL     1       3.245   1.185  22.652  0.00  0.00    +0.033 A 
ATOM     27  C   UNL     1       4.555   1.178  23.115  0.00  0.00    +0.004 A 
ATOM     28  C   UNL     1       4.248  -1.079  23.798  0.00  0.00    +0.111 A 
ATOM     31  C   UNL     1       5.075   0.028  23.699  0.00  0.00    +0.020 A 
ENDBRANCH  20  22
ENDBRANCH  14   3
ENDBRANCH   8  14
BRANCH  10  15
ATOM     15  C   UNL     1      -0.747   3.564  26.629  0.00  0.00    +0.103 C 
BRANCH  15  19
ATOM      1  O   UNL     1       0.939   2.076  25.735  0.00  0.00    -0.276 OA
ATOM      4  N   UNL     1      -0.804   1.203  27.001  0.00  0.00    -0.311 N 
ATOM     19  C   UNL     1      -0.090   2.223  26.389  0.00  0.00    +0.214 C 
ATOM     35  H   UNL     1      -1.645   1.424  27.525  0.00  0.00    +0.149 HD
BRANCH   4  21
ATOM     21  C   UNL     1      -0.408  -0.185  26.937  0.00  0.00    +0.139 C 
BRANCH  21  23
ATOM     23  C   UNL     1      -1.364  -1.006  26.120  0.00  0.00    -0.030 A 
ATOM     25  C   UNL     1      -2.713  -1.058  26.468  0.00  0.00    +0.006 A 
ATOM     26  C   UNL     1      -0.901  -1.714  25.010  0.00  0.00    +0.006 A 
ATOM     29  C   UNL     1      -3.601  -1.820  25.709  0.00  0.00    +0.019 A 
ATOM     30  C   UNL     1      -1.789  -2.476  24.251  0.00  0.00    +0.019 A 
ATOM     32  C   UNL     1      -3.139  -2.529  24.600  0.00  0.00    +0.052 A 
BRANCH  32  33
ATOM      6  N   UNL     1      -4.786  -3.944  23.189  0.00  0.00    -0.191 NA
ATOM     33  C   UNL     1      -4.048  -3.309  23.822  0.00  0.00    +0.099 C 
ENDBRANCH  32  33
ENDBRANCH  21  23
ENDBRANCH   4  21
ENDBRANCH  15  19
ENDBRANCH  10  15
TORSDOF 9
ENDMDL
MODEL 5
REMARK VINA RESULT:       0.6      1.594      4.757
REMARK  Name = 38029363
REMARK  12 active torsions:
REMARK  status: ('A' for Active; 'I' for Inactive)
REMARK    1  A    between atoms: N_3  and  C_14
REMARK    2  A    between atoms: N_4  and  C_21
REMARK    3  A    between atoms: C_7  and  C_11
REMARK    4  A    between atoms: C_8  and  C_14
REMARK    5  A    between atoms: C_10  and  C_15
REMARK    6  A    between atoms: C_11  and  C_16
REMARK    7  A    between atoms: C_11  and  C_17
REMARK    8  A    between atoms: C_12  and  C_18
REMARK    9  A    between atoms: C_15  and  C_19
REMARK   10  A    between atoms: C_20  and  C_22
REMARK   11  A    between atoms: C_21  and  C_23
REMARK   12  A    between atoms: C_32  and  C_33
REMARK                            x       y       z     vdW  Elec       q    Type
REMARK                         _______ _______ _______ _____ _____    ______ ____
ROOT
ATOM      7  C   UNL     1      -2.871   2.790  23.448  0.00  0.00    +0.000 C 
ATOM      8  C   UNL     1      -1.580   2.635  24.292  0.00  0.00    +0.032 C 
ATOM      9  C   UNL     1      -3.545   4.139  23.743  0.00  0.00    +0.012 C 
ATOM     10  C   UNL     1      -3.913   4.293  25.231  0.00  0.00    +0.023 C 
ATOM     12  C   UNL     1      -2.765   3.899  26.138  0.00  0.00    -0.073 C 
ATOM     13  C   UNL     1      -1.725   3.169  25.698  0.00  0.00    -0.022 C 
ATOM     18  C   UNL     1      -2.819   4.401  27.554  0.00  0.00    +0.039 C 
ENDROOT
BRANCH   7  11
ATOM     11  C   UNL     1      -2.588   2.668  21.948  0.00  0.00    -0.013 C 
ATOM     16  C   UNL     1      -2.494   1.201  21.542  0.00  0.00    +0.007 C 
ATOM     17  C   UNL     1      -3.667   3.385  21.144  0.00  0.00    +0.007 C 
ENDBRANCH   7  11
BRANCH   8  14
ATOM     14  C   UNL     1      -1.126   1.173  24.345  0.00  0.00    +0.112 C 
BRANCH  14   3
ATOM      2  O   UNL     1       0.257  -0.630  22.589  0.00  0.00    -0.269 OA
ATOM      3  N   UNL     1       0.288   1.074  24.164  0.00  0.00    -0.310 N 
ATOM     20  C   UNL     1       0.880   0.166  23.286  0.00  0.00    +0.262 C 
ATOM     34  H   UNL     1       0.888   1.721  24.669  0.00  0.00    +0.149 HD
BRANCH  20  22
ATOM      5  N   UNL     1       2.970  -0.977  23.611  0.00  0.00    -0.250 NA
ATOM     22  C   UNL     1       2.365   0.171  23.232  0.00  0.00    +0.125 A 
ATOM     24  C   UNL     1       3.044   1.303  22.811  0.00  0.00    +0.033 A 
ATOM     27  C   UNL     1       4.432   1.254  22.779  0.00  0.00    +0.004 A 
ATOM     28  C   UNL     1       4.321  -0.987  23.566  0.00  0.00    +0.111 A 
ATOM     31  C   UNL     1       5.091   0.090  23.161  0.00  0.00    +0.020 A 
ENDBRANCH  20  22
ENDBRANCH  14   3
ENDBRANCH   8  14
BRANCH  10  15
ATOM     15  C   UNL     1      -5.180   3.502  25.573  0.00  0.00    +0.103 C 
BRANCH  15  19
ATOM      1  O   UNL     1      -5.507   2.177  23.574  0.00  0.00    -0.276 OA
ATOM      4  N   UNL     1      -5.081   1.113  25.596  0.00  0.00    -0.311 N 
ATOM     19  C   UNL     1      -5.279   2.217  24.780  0.00  0.00    +0.214 C 
ATOM     35  H   UNL     1      -4.894   1.248  26.585  0.00  0.00    +0.149 HD
BRANCH   4  21
ATOM     21  C   UNL     1      -5.121  -0.246  25.108  0.00  0.00    +0.139 C 
BRANCH  21  23
ATOM     23  C   UNL     1      -3.777  -0.911  25.181  0.00  0.00    -0.030 A 
ATOM     25  C   UNL     1      -3.430  -1.889  24.251  0.00  0.00    +0.006 A 
ATOM     26  C   UNL     1      -2.873  -0.547  26.181  0.00  0.00    +0.006 A 
ATOM     29  C   UNL     1      -2.181  -2.506  24.319  0.00  0.00    +0.019 A 
ATOM     30  C   UNL     1      -1.624  -1.164  26.249  0.00  0.00    +0.019 A 
ATOM     32  C   UNL     1      -1.278  -2.144  25.318  0.00  0.00    +0.052 A 
BRANCH  32  33
ATOM      6  N   UNL     1       1.041  -3.288  25.446  0.00  0.00    -0.191 NA
ATOM     33  C   UNL     1       0.001  -2.775  25.388  0.00  0.00    +0.099 C 
ENDBRANCH  32  33
ENDBRANCH  21  23
ENDBRANCH   4  21
ENDBRANCH  15  19
ENDBRANCH  10  15
TORSDOF 9
ENDMDL
