MODEL 1
REMARK VINA RESULT:       2.2      0.000      0.000
REMARK  Name = 56774566
REMARK  9 active torsions:
REMARK  status: ('A' for Active; 'I' for Inactive)
REMARK    1  A    between atoms: O_2  and  C_10
REMARK    2  A    between atoms: N_5  and  C_12
REMARK    3  A    between atoms: N_6  and  C_21
REMARK    4  A    between atoms: N_7  and  C_26
REMARK    5  A    between atoms: C_9  and  C_10
REMARK    6  A    between atoms: C_10  and  C_13
REMARK    7  A    between atoms: C_12  and  C_16
REMARK    8  A    between atoms: C_22  and  C_23
REMARK    9  A    between atoms: C_25  and  C_27
REMARK                            x       y       z     vdW  Elec       q    Type
REMARK                         _______ _______ _______ _____ _____    ______ ____
ROOT
ATOM     13  C   UNL     1      -1.801   2.453  24.193  0.00  0.00    -0.017 A 
ATOM     17  C   UNL     1      -0.741   3.188  24.727  0.00  0.00    +0.008 A 
ATOM     18  C   UNL     1      -1.560   1.216  23.595  0.00  0.00    +0.008 A 
ATOM     19  C   UNL     1       0.559   2.687  24.661  0.00  0.00    +0.023 A 
ATOM     20  C   UNL     1      -0.260   0.715  23.529  0.00  0.00    +0.023 A 
ATOM     21  C   UNL     1       0.799   1.450  24.063  0.00  0.00    +0.034 A 
ENDROOT
BRANCH  21   6
ATOM      4  O   UNL     1       2.243   0.100  21.809  0.00  0.00    -0.268 OA
ATOM      6  N   UNL     1       2.099   0.948  23.997  0.00  0.00    -0.280 N 
ATOM     22  C   UNL     1       2.729   0.323  22.913  0.00  0.00    +0.266 C 
ATOM     29  H   UNL     1       2.642   1.053  24.851  0.00  0.00    +0.155 HD
BRANCH  22  23
ATOM      7  N   UNL     1       4.546  -1.255  23.707  0.00  0.00    -0.262 N 
ATOM      8  N   UNL     1       5.881  -1.379  23.801  0.00  0.00    -0.176 NA
ATOM     23  C   UNL     1       4.141  -0.081  23.142  0.00  0.00    +0.124 A 
ATOM     24  C   UNL     1       5.291   0.611  22.847  0.00  0.00    +0.057 A 
ATOM     25  C   UNL     1       6.330  -0.237  23.275  0.00  0.00    +0.061 A 
ATOM     26  C   UNL     1       3.702  -2.324  24.188  0.00  0.00    +0.173 C 
ATOM     27  C   UNL     1       7.780   0.013  23.196  0.00  0.00    +0.067 C 
ENDBRANCH  22  23
ENDBRANCH  21   6
BRANCH  13  10
ATOM     10  C   UNL     1      -3.206   2.995  24.266  0.00  0.00    +0.167 C 
BRANCH  10   9
ATOM      1  O   UNL     1      -5.415   4.365  25.627  0.00  0.00    -0.369 OA
ATOM      3  O   UNL     1      -7.297   1.543  24.386  0.00  0.00    -0.273 OA
ATOM      5  N   UNL     1      -5.083   1.631  25.100  0.00  0.00    -0.292 N 
ATOM      9  C   UNL     1      -3.953   2.477  25.498  0.00  0.00    +0.135 C 
ATOM     11  C   UNL     1      -4.445   3.631  26.366  0.00  0.00    +0.185 C 
ATOM     14  C   UNL     1      -6.354   2.162  24.883  0.00  0.00    +0.242 C 
ATOM     15  C   UNL     1      -6.565   3.584  25.389  0.00  0.00    +0.255 C 
BRANCH   5  12
ATOM     12  C   UNL     1      -4.798   0.243  24.759  0.00  0.00    +0.105 C 
ATOM     16  C   UNL     1      -3.828  -0.382  25.740  0.00  0.00    +0.024 C 
ENDBRANCH   5  12
ENDBRANCH  10   9
BRANCH  10   2
ATOM      2  O   UNL     1      -3.920   2.622  23.092  0.00  0.00    -0.385 OA
ATOM     28  H   UNL     1      -4.603   3.287  22.907  0.00  0.00    +0.210 HD
ENDBRANCH  10   2
ENDBRANCH  13  10
TORSDOF 6
ENDMDL
MODEL 2
REMARK VINA RESULT:       2.4      1.713      2.896
REMARK  Name = 56774566
REMARK  9 active torsions:
REMARK  status: ('A' for Active; 'I' for Inactive)
REMARK    1  A    between atoms: O_2  and  C_10
REMARK    2  A    between atoms: N_5  and  C_12
REMARK    3  A    between atoms: N_6  and  C_21
REMARK    4  A    between atoms: N_7  and  C_26
REMARK    5  A    between atoms: C_9  and  C_10
REMARK    6  A    between atoms: C_10  and  C_13
REMARK    7  A    between atoms: C_12  and  C_16
REMARK    8  A    between atoms: C_22  and  C_23
REMARK    9  A    between atoms: C_25  and  C_27
REMARK                            x       y       z     vdW  Elec       q    Type
REMARK                         _______ _______ _______ _____ _____    ______ ____
ROOT
ATOM     13  C   UNL     1      -3.137   0.145  24.830  0.00  0.00    -0.017 A 
ATOM     17  C   UNL     1      -2.601  -0.842  24.001  0.00  0.00    +0.008 A 
ATOM     18  C   UNL     1      -2.291   1.033  25.494  0.00  0.00    +0.008 A 
ATOM     19  C   UNL     1      -1.219  -0.940  23.836  0.00  0.00    +0.023 A 
ATOM     20  C   UNL     1      -0.909   0.935  25.329  0.00  0.00    +0.023 A 
ATOM     21  C   UNL     1      -0.373  -0.051  24.499  0.00  0.00    +0.034 A 
ENDROOT
BRANCH  21   6
ATOM      4  O   UNL     1       1.273  -0.226  22.000  0.00  0.00    -0.268 OA
ATOM      6  N   UNL     1       1.009  -0.148  24.335  0.00  0.00    -0.280 N 
ATOM     22  C   UNL     1       1.732  -0.228  23.138  0.00  0.00    +0.266 C 
ATOM     29  H   UNL     1       1.542  -0.167  25.201  0.00  0.00    +0.155 HD
BRANCH  22  23
ATOM      7  N   UNL     1       4.086   0.690  22.941  0.00  0.00    -0.262 N 
ATOM      8  N   UNL     1       5.372   0.381  23.180  0.00  0.00    -0.176 NA
ATOM     23  C   UNL     1       3.209  -0.295  23.289  0.00  0.00    +0.124 A 
ATOM     24  C   UNL     1       3.975  -1.320  23.790  0.00  0.00    +0.057 A 
ATOM     25  C   UNL     1       5.298  -0.848  23.698  0.00  0.00    +0.061 A 
ATOM     26  C   UNL     1       3.764   1.975  22.366  0.00  0.00    +0.173 C 
ATOM     27  C   UNL     1       6.529  -1.548  24.100  0.00  0.00    +0.067 C 
ENDBRANCH  22  23
ENDBRANCH  21   6
BRANCH  13  10
ATOM     10  C   UNL     1      -4.630   0.251  25.007  0.00  0.00    +0.167 C 
BRANCH  10   9
ATOM      1  O   UNL     1      -5.828   2.639  26.221  0.00  0.00    -0.369 OA
ATOM      3  O   UNL     1      -2.931   4.241  24.777  0.00  0.00    -0.273 OA
ATOM      5  N   UNL     1      -4.166   2.440  23.971  0.00  0.00    -0.292 N 
ATOM      9  C   UNL     1      -5.210   1.445  24.244  0.00  0.00    +0.135 C 
ATOM     11  C   UNL     1      -6.354   2.089  25.020  0.00  0.00    +0.185 C 
ATOM     14  C   UNL     1      -3.897   3.480  24.859  0.00  0.00    +0.242 C 
ATOM     15  C   UNL     1      -4.944   3.703  25.944  0.00  0.00    +0.255 C 
BRANCH   5  12
ATOM     12  C   UNL     1      -3.294   2.205  22.828  0.00  0.00    +0.105 C 
ATOM     16  C   UNL     1      -3.647   3.109  21.665  0.00  0.00    +0.024 C 
ENDBRANCH   5  12
ENDBRANCH  10   9
BRANCH  10   2
ATOM      2  O   UNL     1      -4.936   0.383  26.391  0.00  0.00    -0.385 OA
ATOM     28  H   UNL     1      -5.044  -0.499  26.781  0.00  0.00    +0.210 HD
ENDBRANCH  10   2
ENDBRANCH  13  10
TORSDOF 6
ENDMDL
MODEL 3
REMARK VINA RESULT:       3.0      1.366      2.268
REMARK  Name = 56774566
REMARK  9 active torsions:
REMARK  status: ('A' for Active; 'I' for Inactive)
REMARK    1  A    between atoms: O_2  and  C_10
REMARK    2  A    between atoms: N_5  and  C_12
REMARK    3  A    between atoms: N_6  and  C_21
REMARK    4  A    between atoms: N_7  and  C_26
REMARK    5  A    between atoms: C_9  and  C_10
REMARK    6  A    between atoms: C_10  and  C_13
REMARK    7  A    between atoms: C_12  and  C_16
REMARK    8  A    between atoms: C_22  and  C_23
REMARK    9  A    between atoms: C_25  and  C_27
REMARK                            x       y       z     vdW  Elec       q    Type
REMARK                         _______ _______ _______ _____ _____    ______ ____
ROOT
ATOM     13  C   UNL     1      -2.067   2.874  25.075  0.00  0.00    -0.017 A 
ATOM     17  C   UNL     1      -1.766   1.599  25.558  0.00  0.00    +0.008 A 
ATOM     18  C   UNL     1      -1.107   3.597  24.368  0.00  0.00    +0.008 A 
ATOM     19  C   UNL     1      -0.504   1.049  25.333  0.00  0.00    +0.023 A 
ATOM     20  C   UNL     1       0.155   3.047  24.142  0.00  0.00    +0.023 A 
ATOM     21  C   UNL     1       0.456   1.772  24.624  0.00  0.00    +0.034 A 
ENDROOT
BRANCH  21   6
ATOM      4  O   UNL     1       1.464   0.104  22.347  0.00  0.00    -0.268 OA
ATOM      6  N   UNL     1       1.718   1.222  24.399  0.00  0.00    -0.280 N 
ATOM     22  C   UNL     1       2.140   0.446  23.312  0.00  0.00    +0.266 C 
ATOM     29  H   UNL     1       2.404   1.414  25.126  0.00  0.00    +0.155 HD
BRANCH  22  23
ATOM      7  N   UNL     1       4.022  -1.193  23.751  0.00  0.00    -0.262 N 
ATOM      8  N   UNL     1       5.358  -1.323  23.682  0.00  0.00    -0.176 NA
ATOM     23  C   UNL     1       3.565   0.026  23.344  0.00  0.00    +0.124 A 
ATOM     24  C   UNL     1       4.680   0.744  22.984  0.00  0.00    +0.057 A 
ATOM     25  C   UNL     1       5.754  -0.136  23.214  0.00  0.00    +0.061 A 
ATOM     26  C   UNL     1       3.229  -2.303  24.226  0.00  0.00    +0.173 C 
ATOM     27  C   UNL     1       7.188   0.123  22.995  0.00  0.00    +0.067 C 
ENDBRANCH  22  23
ENDBRANCH  21   6
BRANCH  13  10
ATOM     10  C   UNL     1      -3.432   3.468  25.318  0.00  0.00    +0.167 C 
BRANCH  10   9
ATOM      1  O   UNL     1      -2.881   2.410  22.636  0.00  0.00    -0.369 OA
ATOM      3  O   UNL     1      -3.928  -0.690  24.165  0.00  0.00    -0.273 OA
ATOM      5  N   UNL     1      -4.679   1.475  24.574  0.00  0.00    -0.292 N 
ATOM      9  C   UNL     1      -4.476   2.910  24.346  0.00  0.00    +0.135 C 
ATOM     11  C   UNL     1      -4.065   3.155  22.898  0.00  0.00    +0.185 C 
ATOM     14  C   UNL     1      -3.929   0.514  23.899  0.00  0.00    +0.242 C 
ATOM     15  C   UNL     1      -3.133   1.024  22.704  0.00  0.00    +0.255 C 
BRANCH   5  12
ATOM     12  C   UNL     1      -5.565   1.085  25.663  0.00  0.00    +0.105 C 
ATOM     16  C   UNL     1      -6.365   2.264  26.178  0.00  0.00    +0.024 C 
ENDBRANCH   5  12
ENDBRANCH  10   9
BRANCH  10   2
ATOM      2  O   UNL     1      -3.366   4.883  25.176  0.00  0.00    -0.385 OA
ATOM     28  H   UNL     1      -2.636   5.112  24.577  0.00  0.00    +0.210 HD
ENDBRANCH  10   2
ENDBRANCH  13  10
TORSDOF 6
ENDMDL
