MODEL 1
REMARK VINA RESULT:      -5.5      0.000      0.000
REMARK  Name = 75536824
REMARK  7 active torsions:
REMARK  status: ('A' for Active; 'I' for Inactive)
REMARK    1  A    between atoms: O_3  and  C_10
REMARK    2  A    between atoms: N_5  and  C_8
REMARK    3  A    between atoms: N_5  and  C_9
REMARK    4  A    between atoms: N_6  and  C_18
REMARK    5  A    between atoms: N_7  and  C_17
REMARK    6  A    between atoms: C_11  and  C_17
REMARK    7  A    between atoms: C_19  and  C_20
REMARK                            x       y       z     vdW  Elec       q    Type
REMARK                         _______ _______ _______ _____ _____    ______ ____
ROOT
ATOM      2  O   UNL     1      -1.648  -2.583  23.791  0.00  0.00    -0.371 OA
ATOM      8  C   UNL     1      -0.033  -1.025  24.568  0.00  0.00    +0.111 C 
ATOM     10  C   UNL     1      -1.262  -0.948  25.455  0.00  0.00    +0.164 C 
ATOM     11  C   UNL     1      -1.911  -2.296  25.175  0.00  0.00    +0.165 C 
ATOM     14  C   UNL     1      -0.594  -1.717  23.337  0.00  0.00    +0.181 C 
ENDROOT
BRANCH  10   3
ATOM      3  O   UNL     1      -0.939  -0.791  26.823  0.00  0.00    -0.388 OA
ATOM     27  H   UNL     1      -1.225   0.095  27.105  0.00  0.00    +0.210 HD
ENDBRANCH  10   3
BRANCH   8   5
ATOM      5  N   UNL     1       0.554   0.272  24.271  0.00  0.00    -0.306 NA
ATOM     26  H   UNL     1       0.847   0.312  23.295  0.00  0.00    +0.123 HD
BRANCH   5   9
ATOM      6  N   UNL     1      -0.921   4.193  24.990  0.00  0.00    -0.305 NA
ATOM      9  C   UNL     1      -0.394   1.347  24.551  0.00  0.00    +0.056 C 
ATOM     12  C   UNL     1      -0.394   2.364  23.407  0.00  0.00    +0.034 C 
ATOM     13  C   UNL     1      -0.058   2.046  25.871  0.00  0.00    +0.034 C 
ATOM     15  C   UNL     1      -1.308   3.550  23.726  0.00  0.00    +0.085 C 
ATOM     16  C   UNL     1      -0.983   3.243  26.110  0.00  0.00    +0.085 C 
ATOM     18  C   UNL     1      -1.772   5.352  25.257  0.00  0.00    +0.104 C 
ENDBRANCH   5   9
ENDBRANCH   8   5
BRANCH  11  17
ATOM     17  C   UNL     1      -3.409  -2.305  25.425  0.00  0.00    +0.138 C 
BRANCH  17   7
ATOM      4  O   UNL     1      -3.994  -0.441  23.321  0.00  0.00    -0.270 OA
ATOM      7  N   UNL     1      -3.920  -0.974  25.578  0.00  0.00    -0.309 N 
ATOM     19  C   UNL     1      -4.176  -0.136  24.496  0.00  0.00    +0.244 C 
ATOM     28  H   UNL     1      -4.027  -0.634  26.527  0.00  0.00    +0.149 HD
BRANCH  19  20
ATOM      1  F   UNL     1      -6.082   4.999  25.731  0.00  0.00    -0.205 F 
ATOM     20  C   UNL     1      -4.680   1.223  24.823  0.00  0.00    +0.037 A 
ATOM     21  C   UNL     1      -4.164   2.336  24.159  0.00  0.00    +0.016 A 
ATOM     22  C   UNL     1      -5.669   1.385  25.793  0.00  0.00    +0.016 A 
ATOM     23  C   UNL     1      -4.638   3.611  24.466  0.00  0.00    +0.039 A 
ATOM     24  C   UNL     1      -6.143   2.661  26.101  0.00  0.00    +0.039 A 
ATOM     25  C   UNL     1      -5.627   3.774  25.436  0.00  0.00    +0.123 A 
ENDBRANCH  19  20
ENDBRANCH  17   7
ENDBRANCH  11  17
TORSDOF 6
ENDMDL
MODEL 2
REMARK VINA RESULT:      -4.8     18.164     20.401
REMARK  Name = 75536824
REMARK  7 active torsions:
REMARK  status: ('A' for Active; 'I' for Inactive)
REMARK    1  A    between atoms: O_3  and  C_10
REMARK    2  A    between atoms: N_5  and  C_8
REMARK    3  A    between atoms: N_5  and  C_9
REMARK    4  A    between atoms: N_6  and  C_18
REMARK    5  A    between atoms: N_7  and  C_17
REMARK    6  A    between atoms: C_11  and  C_17
REMARK    7  A    between atoms: C_19  and  C_20
REMARK                            x       y       z     vdW  Elec       q    Type
REMARK                         _______ _______ _______ _____ _____    ______ ____
ROOT
ATOM      2  O   UNL     1      15.667  -8.853  27.316  0.00  0.00    -0.371 OA
ATOM      8  C   UNL     1      15.074  -8.209  29.524  0.00  0.00    +0.111 C 
ATOM     10  C   UNL     1      16.184  -7.303  29.025  0.00  0.00    +0.164 C 
ATOM     11  C   UNL     1      16.058  -7.484  27.520  0.00  0.00    +0.165 C 
ATOM     14  C   UNL     1      15.191  -9.382  28.565  0.00  0.00    +0.181 C 
ENDROOT
BRANCH  10   3
ATOM      3  O   UNL     1      16.004  -5.954  29.412  0.00  0.00    -0.388 OA
ATOM     27  H   UNL     1      15.348  -5.552  28.817  0.00  0.00    +0.210 HD
ENDBRANCH  10   3
BRANCH   8   5
ATOM      5  N   UNL     1      15.220  -8.599  30.917  0.00  0.00    -0.306 NA
ATOM     26  H   UNL     1      15.919  -8.015  31.376  0.00  0.00    +0.123 HD
BRANCH   5   9
ATOM      6  N   UNL     1      11.022  -8.648  31.580  0.00  0.00    -0.305 NA
ATOM      9  C   UNL     1      13.945  -8.495  31.622  0.00  0.00    +0.056 C 
ATOM     12  C   UNL     1      13.198  -9.829  31.564  0.00  0.00    +0.034 C 
ATOM     13  C   UNL     1      13.077  -7.384  31.024  0.00  0.00    +0.034 C 
ATOM     15  C   UNL     1      11.815  -9.713  32.211  0.00  0.00    +0.085 C 
ATOM     16  C   UNL     1      11.698  -7.347  31.688  0.00  0.00    +0.085 C 
ATOM     18  C   UNL     1       9.688  -8.582  32.175  0.00  0.00    +0.104 C 
ENDBRANCH   5   9
ENDBRANCH   8   5
BRANCH  11  17
ATOM     17  C   UNL     1      17.349  -7.202  26.770  0.00  0.00    +0.138 C 
BRANCH  17   7
ATOM      4  O   UNL     1      17.405  -4.409  27.433  0.00  0.00    -0.270 OA
ATOM      7  N   UNL     1      17.194  -6.103  25.861  0.00  0.00    -0.309 N 
ATOM     19  C   UNL     1      17.237  -4.774  26.273  0.00  0.00    +0.244 C 
ATOM     28  H   UNL     1      16.981  -6.336  24.898  0.00  0.00    +0.149 HD
BRANCH  19  20
ATOM      1  F   UNL     1      16.473  -0.914  22.268  0.00  0.00    -0.205 F 
ATOM     20  C   UNL     1      17.035  -3.752  25.214  0.00  0.00    +0.037 A 
ATOM     21  C   UNL     1      17.031  -2.397  25.543  0.00  0.00    +0.016 A 
ATOM     22  C   UNL     1      16.848  -4.148  23.889  0.00  0.00    +0.016 A 
ATOM     23  C   UNL     1      16.842  -1.439  24.548  0.00  0.00    +0.039 A 
ATOM     24  C   UNL     1      16.658  -3.189  22.894  0.00  0.00    +0.039 A 
ATOM     25  C   UNL     1      16.655  -1.834  23.224  0.00  0.00    +0.123 A 
ENDBRANCH  19  20
ENDBRANCH  17   7
ENDBRANCH  11  17
TORSDOF 6
ENDMDL
MODEL 3
REMARK VINA RESULT:      -4.6     18.916     20.529
REMARK  Name = 75536824
REMARK  7 active torsions:
REMARK  status: ('A' for Active; 'I' for Inactive)
REMARK    1  A    between atoms: O_3  and  C_10
REMARK    2  A    between atoms: N_5  and  C_8
REMARK    3  A    between atoms: N_5  and  C_9
REMARK    4  A    between atoms: N_6  and  C_18
REMARK    5  A    between atoms: N_7  and  C_17
REMARK    6  A    between atoms: C_11  and  C_17
REMARK    7  A    between atoms: C_19  and  C_20
REMARK                            x       y       z     vdW  Elec       q    Type
REMARK                         _______ _______ _______ _____ _____    ______ ____
ROOT
ATOM      2  O   UNL     1      17.380  -6.947  27.433  0.00  0.00    -0.371 OA
ATOM      8  C   UNL     1      16.087  -8.677  28.420  0.00  0.00    +0.111 C 
ATOM     10  C   UNL     1      16.017  -8.807  26.910  0.00  0.00    +0.164 C 
ATOM     11  C   UNL     1      17.253  -8.025  26.490  0.00  0.00    +0.165 C 
ATOM     14  C   UNL     1      16.560  -7.241  28.576  0.00  0.00    +0.181 C 
ENDROOT
BRANCH  10   3
ATOM      3  O   UNL     1      16.070 -10.152  26.474  0.00  0.00    -0.388 OA
ATOM     27  H   UNL     1      16.547 -10.671  27.144  0.00  0.00    +0.210 HD
ENDBRANCH  10   3
BRANCH   8   5
ATOM      5  N   UNL     1      14.820  -8.933  29.087  0.00  0.00    -0.306 NA
ATOM     26  H   UNL     1      14.801  -9.883  29.454  0.00  0.00    +0.123 HD
BRANCH   5   9
ATOM      6  N   UNL     1      12.757  -6.386  31.792  0.00  0.00    -0.305 NA
ATOM      9  C   UNL     1      14.601  -7.976  30.169  0.00  0.00    +0.056 C 
ATOM     12  C   UNL     1      13.726  -8.600  31.258  0.00  0.00    +0.034 C 
ATOM     13  C   UNL     1      13.949  -6.694  29.644  0.00  0.00    +0.034 C 
ATOM     15  C   UNL     1      13.402  -7.581  32.354  0.00  0.00    +0.085 C 
ATOM     16  C   UNL     1      13.617  -5.737  30.793  0.00  0.00    +0.085 C 
ATOM     18  C   UNL     1      12.410  -5.444  32.856  0.00  0.00    +0.104 C 
ENDBRANCH   5   9
ENDBRANCH   8   5
BRANCH  11  17
ATOM     17  C   UNL     1      17.161  -7.466  25.080  0.00  0.00    +0.138 C 
BRANCH  17   7
ATOM      4  O   UNL     1      17.398  -5.715  22.817  0.00  0.00    -0.270 OA
ATOM      7  N   UNL     1      17.075  -6.035  25.092  0.00  0.00    -0.309 N 
ATOM     19  C   UNL     1      17.201  -5.262  23.941  0.00  0.00    +0.244 C 
ATOM     28  H   UNL     1      16.983  -5.592  26.000  0.00  0.00    +0.149 HD
BRANCH  19  20
ATOM      1  F   UNL     1      16.867   0.299  24.637  0.00  0.00    -0.205 F 
ATOM     20  C   UNL     1      17.113  -3.791  24.124  0.00  0.00    +0.037 A 
ATOM     21  C   UNL     1      17.084  -2.950  23.012  0.00  0.00    +0.016 A 
ATOM     22  C   UNL     1      17.060  -3.250  25.410  0.00  0.00    +0.016 A 
ATOM     23  C   UNL     1      17.000  -1.568  23.186  0.00  0.00    +0.039 A 
ATOM     24  C   UNL     1      16.977  -1.868  25.583  0.00  0.00    +0.039 A 
ATOM     25  C   UNL     1      16.947  -1.028  24.470  0.00  0.00    +0.123 A 
ENDBRANCH  19  20
ENDBRANCH  17   7
ENDBRANCH  11  17
TORSDOF 6
ENDMDL
MODEL 4
REMARK VINA RESULT:      -3.8      2.553      5.078
REMARK  Name = 75536824
REMARK  7 active torsions:
REMARK  status: ('A' for Active; 'I' for Inactive)
REMARK    1  A    between atoms: O_3  and  C_10
REMARK    2  A    between atoms: N_5  and  C_8
REMARK    3  A    between atoms: N_5  and  C_9
REMARK    4  A    between atoms: N_6  and  C_18
REMARK    5  A    between atoms: N_7  and  C_17
REMARK    6  A    between atoms: C_11  and  C_17
REMARK    7  A    between atoms: C_19  and  C_20
REMARK                            x       y       z     vdW  Elec       q    Type
REMARK                         _______ _______ _______ _____ _____    ______ ____
ROOT
ATOM      2  O   UNL     1       0.522   3.450  23.515  0.00  0.00    -0.371 OA
ATOM      8  C   UNL     1      -0.790   4.239  25.330  0.00  0.00    +0.111 C 
ATOM     10  C   UNL     1      -0.517   2.759  25.524  0.00  0.00    +0.164 C 
ATOM     11  C   UNL     1       0.703   2.567  24.635  0.00  0.00    +0.165 C 
ATOM     14  C   UNL     1      -0.497   4.408  23.849  0.00  0.00    +0.181 C 
ENDROOT
BRANCH  10   3
ATOM      3  O   UNL     1      -0.248   2.425  26.872  0.00  0.00    -0.388 OA
ATOM     27  H   UNL     1      -1.019   1.952  27.229  0.00  0.00    +0.210 HD
ENDBRANCH  10   3
BRANCH   8   5
ATOM      5  N   UNL     1      -2.143   4.635  25.690  0.00  0.00    -0.306 NA
ATOM     26  H   UNL     1      -2.431   5.445  25.141  0.00  0.00    +0.123 HD
BRANCH   5   9
ATOM      6  N   UNL     1      -5.785   2.609  24.858  0.00  0.00    -0.305 NA
ATOM      9  C   UNL     1      -3.079   3.533  25.480  0.00  0.00    +0.056 C 
ATOM     12  C   UNL     1      -3.657   3.592  24.064  0.00  0.00    +0.034 C 
ATOM     13  C   UNL     1      -4.211   3.572  26.509  0.00  0.00    +0.034 C 
ATOM     15  C   UNL     1      -4.715   2.505  23.857  0.00  0.00    +0.085 C 
ATOM     16  C   UNL     1      -5.251   2.485  26.222  0.00  0.00    +0.085 C 
ATOM     18  C   UNL     1      -6.812   1.595  24.618  0.00  0.00    +0.104 C 
ENDBRANCH   5   9
ENDBRANCH   8   5
BRANCH  11  17
ATOM     17  C   UNL     1       0.869   1.140  24.142  0.00  0.00    +0.138 C 
BRANCH  17   7
ATOM      4  O   UNL     1       0.106  -1.352  25.347  0.00  0.00    -0.270 OA
ATOM      7  N   UNL     1      -0.399   0.481  24.017  0.00  0.00    -0.309 N 
ATOM     19  C   UNL     1      -0.683  -0.731  24.640  0.00  0.00    +0.244 C 
ATOM     28  H   UNL     1      -1.072   0.906  23.390  0.00  0.00    +0.149 HD
BRANCH  19  20
ATOM      1  F   UNL     1      -5.787  -2.872  23.699  0.00  0.00    -0.205 F 
ATOM     20  C   UNL     1      -2.034  -1.296  24.392  0.00  0.00    +0.037 A 
ATOM     21  C   UNL     1      -3.112  -0.446  24.148  0.00  0.00    +0.016 A 
ATOM     22  C   UNL     1      -2.223  -2.679  24.402  0.00  0.00    +0.016 A 
ATOM     23  C   UNL     1      -4.380  -0.979  23.914  0.00  0.00    +0.039 A 
ATOM     24  C   UNL     1      -3.492  -3.211  24.169  0.00  0.00    +0.039 A 
ATOM     25  C   UNL     1      -4.570  -2.360  23.924  0.00  0.00    +0.123 A 
ENDBRANCH  19  20
ENDBRANCH  17   7
ENDBRANCH  11  17
TORSDOF 6
ENDMDL
MODEL 5
REMARK VINA RESULT:      -3.7     14.809     17.484
REMARK  Name = 75536824
REMARK  7 active torsions:
REMARK  status: ('A' for Active; 'I' for Inactive)
REMARK    1  A    between atoms: O_3  and  C_10
REMARK    2  A    between atoms: N_5  and  C_8
REMARK    3  A    between atoms: N_5  and  C_9
REMARK    4  A    between atoms: N_6  and  C_18
REMARK    5  A    between atoms: N_7  and  C_17
REMARK    6  A    between atoms: C_11  and  C_17
REMARK    7  A    between atoms: C_19  and  C_20
REMARK                            x       y       z     vdW  Elec       q    Type
REMARK                         _______ _______ _______ _____ _____    ______ ____
ROOT
ATOM      2  O   UNL     1      -6.199  -8.777  10.388  0.00  0.00    -0.371 OA
ATOM      8  C   UNL     1      -7.139  -9.828  12.299  0.00  0.00    +0.111 C 
ATOM     10  C   UNL     1      -5.800 -10.472  11.989  0.00  0.00    +0.164 C 
ATOM     11  C   UNL     1      -5.141  -9.389  11.147  0.00  0.00    +0.165 C 
ATOM     14  C   UNL     1      -7.457  -9.144  10.980  0.00  0.00    +0.181 C 
ENDROOT
BRANCH  10   3
ATOM      3  O   UNL     1      -5.052 -10.766  13.152  0.00  0.00    -0.388 OA
ATOM     27  H   UNL     1      -5.664 -11.089  13.835  0.00  0.00    +0.210 HD
ENDBRANCH  10   3
BRANCH   8   5
ATOM      5  N   UNL     1      -8.162 -10.778  12.707  0.00  0.00    -0.306 NA
ATOM     26  H   UNL     1      -7.762 -11.711  12.797  0.00  0.00    +0.123 HD
BRANCH   5   9
ATOM      6  N   UNL     1      -9.391  -8.272  15.912  0.00  0.00    -0.305 NA
ATOM      9  C   UNL     1      -8.771 -10.373  13.971  0.00  0.00    +0.056 C 
ATOM     12  C   UNL     1      -9.861  -9.327  13.723  0.00  0.00    +0.034 C 
ATOM     13  C   UNL     1      -7.719  -9.814  14.933  0.00  0.00    +0.034 C 
ATOM     15  C   UNL     1     -10.443  -8.817  15.044  0.00  0.00    +0.085 C 
ATOM     16  C   UNL     1      -8.372  -9.287  16.214  0.00  0.00    +0.085 C 
ATOM     18  C   UNL     1      -9.968  -7.744  17.148  0.00  0.00    +0.104 C 
ENDBRANCH   5   9
ENDBRANCH   8   5
BRANCH  11  17
ATOM     17  C   UNL     1      -4.077  -9.923  10.205  0.00  0.00    +0.138 C 
BRANCH  17   7
ATOM      4  O   UNL     1      -2.122 -10.622  12.188  0.00  0.00    -0.270 OA
ATOM      7  N   UNL     1      -2.814  -9.281  10.427  0.00  0.00    -0.309 N 
ATOM     19  C   UNL     1      -1.924  -9.689  11.415  0.00  0.00    +0.244 C 
ATOM     28  H   UNL     1      -2.619  -8.457   9.869  0.00  0.00    +0.149 HD
BRANCH  19  20
ATOM      1  F   UNL     1       2.822  -6.722  11.863  0.00  0.00    -0.205 F 
ATOM     20  C   UNL     1      -0.669  -8.903  11.534  0.00  0.00    +0.037 A 
ATOM     21  C   UNL     1      -0.538  -7.945  12.539  0.00  0.00    +0.016 A 
ATOM     22  C   UNL     1       0.380  -9.125  10.641  0.00  0.00    +0.016 A 
ATOM     23  C   UNL     1       0.641  -7.208  12.650  0.00  0.00    +0.039 A 
ATOM     24  C   UNL     1       1.559  -8.387  10.751  0.00  0.00    +0.039 A 
ATOM     25  C   UNL     1       1.689  -7.429  11.757  0.00  0.00    +0.123 A 
ENDBRANCH  19  20
ENDBRANCH  17   7
ENDBRANCH  11  17
TORSDOF 6
ENDMDL
MODEL 6
REMARK VINA RESULT:      -3.3      2.756      5.256
REMARK  Name = 75536824
REMARK  7 active torsions:
REMARK  status: ('A' for Active; 'I' for Inactive)
REMARK    1  A    between atoms: O_3  and  C_10
REMARK    2  A    between atoms: N_5  and  C_8
REMARK    3  A    between atoms: N_5  and  C_9
REMARK    4  A    between atoms: N_6  and  C_18
REMARK    5  A    between atoms: N_7  and  C_17
REMARK    6  A    between atoms: C_11  and  C_17
REMARK    7  A    between atoms: C_19  and  C_20
REMARK                            x       y       z     vdW  Elec       q    Type
REMARK                         _______ _______ _______ _____ _____    ______ ____
ROOT
ATOM      2  O   UNL     1      -4.291   4.127  26.989  0.00  0.00    -0.371 OA
ATOM      8  C   UNL     1      -2.484   4.654  25.541  0.00  0.00    +0.111 C 
ATOM     10  C   UNL     1      -3.602   4.027  24.729  0.00  0.00    +0.164 C 
ATOM     11  C   UNL     1      -4.794   4.252  25.648  0.00  0.00    +0.165 C 
ATOM     14  C   UNL     1      -2.857   4.222  26.950  0.00  0.00    +0.181 C 
ENDROOT
BRANCH  10   3
ATOM      3  O   UNL     1      -3.779   4.650  23.472  0.00  0.00    -0.388 OA
ATOM     27  H   UNL     1      -3.970   3.959  22.814  0.00  0.00    +0.210 HD
ENDBRANCH  10   3
BRANCH   8   5
ATOM      5  N   UNL     1      -1.156   4.212  25.145  0.00  0.00    -0.306 NA
ATOM     26  H   UNL     1      -0.495   4.353  25.908  0.00  0.00    +0.123 HD
BRANCH   5   9
ATOM      6  N   UNL     1       0.271   0.304  24.273  0.00  0.00    -0.305 NA
ATOM      9  C   UNL     1      -1.173   2.804  24.756  0.00  0.00    +0.056 C 
ATOM     12  C   UNL     1      -0.645   1.932  25.897  0.00  0.00    +0.034 C 
ATOM     13  C   UNL     1      -0.338   2.574  23.493  0.00  0.00    +0.034 C 
ATOM     15  C   UNL     1      -0.562   0.463  25.474  0.00  0.00    +0.085 C 
ATOM     16  C   UNL     1      -0.264   1.084  23.148  0.00  0.00    +0.085 C 
ATOM     18  C   UNL     1       0.381  -1.108  23.910  0.00  0.00    +0.104 C 
ENDBRANCH   5   9
ENDBRANCH   8   5
BRANCH  11  17
ATOM     17  C   UNL     1      -5.920   3.256  25.428  0.00  0.00    +0.138 C 
BRANCH  17   7
ATOM      4  O   UNL     1      -4.290   1.932  23.469  0.00  0.00    -0.270 OA
ATOM      7  N   UNL     1      -5.439   1.906  25.484  0.00  0.00    -0.309 N 
ATOM     19  C   UNL     1      -4.650   1.344  24.485  0.00  0.00    +0.244 C 
ATOM     28  H   UNL     1      -5.759   1.342  26.264  0.00  0.00    +0.149 HD
BRANCH  19  20
ATOM      1  F   UNL     1      -3.154  -4.017  25.223  0.00  0.00    -0.205 F 
ATOM     20  C   UNL     1      -4.255  -0.074  24.680  0.00  0.00    +0.037 A 
ATOM     21  C   UNL     1      -4.435  -0.997  23.649  0.00  0.00    +0.016 A 
ATOM     22  C   UNL     1      -3.703  -0.484  25.894  0.00  0.00    +0.016 A 
ATOM     23  C   UNL     1      -4.063  -2.328  23.833  0.00  0.00    +0.039 A 
ATOM     24  C   UNL     1      -3.331  -1.816  26.078  0.00  0.00    +0.039 A 
ATOM     25  C   UNL     1      -3.511  -2.738  25.046  0.00  0.00    +0.123 A 
ENDBRANCH  19  20
ENDBRANCH  17   7
ENDBRANCH  11  17
TORSDOF 6
ENDMDL
MODEL 7
REMARK VINA RESULT:      -3.0      2.239      3.532
REMARK  Name = 75536824
REMARK  7 active torsions:
REMARK  status: ('A' for Active; 'I' for Inactive)
REMARK    1  A    between atoms: O_3  and  C_10
REMARK    2  A    between atoms: N_5  and  C_8
REMARK    3  A    between atoms: N_5  and  C_9
REMARK    4  A    between atoms: N_6  and  C_18
REMARK    5  A    between atoms: N_7  and  C_17
REMARK    6  A    between atoms: C_11  and  C_17
REMARK    7  A    between atoms: C_19  and  C_20
REMARK                            x       y       z     vdW  Elec       q    Type
REMARK                         _______ _______ _______ _____ _____    ______ ____
ROOT
ATOM      2  O   UNL     1      -1.619  -2.801  23.982  0.00  0.00    -0.371 OA
ATOM      8  C   UNL     1      -0.037  -1.038  24.151  0.00  0.00    +0.111 C 
ATOM     10  C   UNL     1      -1.196  -0.754  25.087  0.00  0.00    +0.164 C 
ATOM     11  C   UNL     1      -1.791  -2.146  25.250  0.00  0.00    +0.165 C 
ATOM     14  C   UNL     1      -0.652  -2.065  23.214  0.00  0.00    +0.181 C 
ENDROOT
BRANCH  10   3
ATOM      3  O   UNL     1      -0.779  -0.210  26.324  0.00  0.00    -0.388 OA
ATOM     27  H   UNL     1      -0.172  -0.842  26.746  0.00  0.00    +0.210 HD
ENDBRANCH  10   3
BRANCH   8   5
ATOM      5  N   UNL     1       0.454   0.141  23.456  0.00  0.00    -0.306 NA
ATOM     26  H   UNL     1       0.403   0.957  24.065  0.00  0.00    +0.123 HD
BRANCH   5   9
ATOM      6  N   UNL     1       4.702   0.043  23.554  0.00  0.00    -0.305 NA
ATOM      9  C   UNL     1       1.829  -0.058  23.005  0.00  0.00    +0.056 C 
ATOM     12  C   UNL     1       2.530  -1.097  23.883  0.00  0.00    +0.034 C 
ATOM     13  C   UNL     1       2.611   1.259  23.029  0.00  0.00    +0.034 C 
ATOM     15  C   UNL     1       4.002  -1.247  23.489  0.00  0.00    +0.085 C 
ATOM     16  C   UNL     1       4.080   1.032  22.663  0.00  0.00    +0.085 C 
ATOM     18  C   UNL     1       6.117  -0.125  23.223  0.00  0.00    +0.104 C 
ENDBRANCH   5   9
ENDBRANCH   8   5
BRANCH  11  17
ATOM     17  C   UNL     1      -3.263  -2.131  25.625  0.00  0.00    +0.138 C 
BRANCH  17   7
ATOM      4  O   UNL     1      -4.157  -0.462  23.466  0.00  0.00    -0.270 OA
ATOM      7  N   UNL     1      -3.761  -0.790  25.729  0.00  0.00    -0.309 N 
ATOM     19  C   UNL     1      -4.175  -0.052  24.623  0.00  0.00    +0.244 C 
ATOM     28  H   UNL     1      -3.736  -0.366  26.649  0.00  0.00    +0.149 HD
BRANCH  19  20
ATOM      1  F   UNL     1      -5.935   5.180  25.649  0.00  0.00    -0.205 F 
ATOM     20  C   UNL     1      -4.641   1.332  24.895  0.00  0.00    +0.037 A 
ATOM     21  C   UNL     1      -5.865   1.544  25.529  0.00  0.00    +0.016 A 
ATOM     22  C   UNL     1      -3.854   2.420  24.516  0.00  0.00    +0.016 A 
ATOM     23  C   UNL     1      -6.302   2.844  25.784  0.00  0.00    +0.039 A 
ATOM     24  C   UNL     1      -4.291   3.720  24.770  0.00  0.00    +0.039 A 
ATOM     25  C   UNL     1      -5.516   3.931  25.405  0.00  0.00    +0.123 A 
ENDBRANCH  19  20
ENDBRANCH  17   7
ENDBRANCH  11  17
TORSDOF 6
ENDMDL
MODEL 8
REMARK VINA RESULT:      -2.0      3.039      6.275
REMARK  Name = 75536824
REMARK  7 active torsions:
REMARK  status: ('A' for Active; 'I' for Inactive)
REMARK    1  A    between atoms: O_3  and  C_10
REMARK    2  A    between atoms: N_5  and  C_8
REMARK    3  A    between atoms: N_5  and  C_9
REMARK    4  A    between atoms: N_6  and  C_18
REMARK    5  A    between atoms: N_7  and  C_17
REMARK    6  A    between atoms: C_11  and  C_17
REMARK    7  A    between atoms: C_19  and  C_20
REMARK                            x       y       z     vdW  Elec       q    Type
REMARK                         _______ _______ _______ _____ _____    ______ ____
ROOT
ATOM      2  O   UNL     1      -2.448   5.377  23.958  0.00  0.00    -0.371 OA
ATOM      8  C   UNL     1      -4.226   4.397  25.190  0.00  0.00    +0.111 C 
ATOM     10  C   UNL     1      -2.906   3.990  25.818  0.00  0.00    +0.164 C 
ATOM     11  C   UNL     1      -1.980   5.074  25.284  0.00  0.00    +0.165 C 
ATOM     14  C   UNL     1      -3.776   4.847  23.810  0.00  0.00    +0.181 C 
ENDROOT
BRANCH  10   3
ATOM      3  O   UNL     1      -2.952   3.985  27.232  0.00  0.00    -0.388 OA
ATOM     27  H   UNL     1      -2.092   3.675  27.564  0.00  0.00    +0.210 HD
ENDBRANCH  10   3
BRANCH   8   5
ATOM      5  N   UNL     1      -5.205   3.323  25.144  0.00  0.00    -0.306 NA
ATOM     26  H   UNL     1      -5.823   3.442  24.342  0.00  0.00    +0.123 HD
BRANCH   5   9
ATOM      6  N   UNL     1      -4.537  -0.754  24.145  0.00  0.00    -0.305 NA
ATOM      9  C   UNL     1      -4.546   2.021  25.075  0.00  0.00    +0.056 C 
ATOM     12  C   UNL     1      -4.262   1.648  23.617  0.00  0.00    +0.034 C 
ATOM     13  C   UNL     1      -5.401   0.936  25.735  0.00  0.00    +0.034 C 
ATOM     15  C   UNL     1      -3.661   0.244  23.517  0.00  0.00    +0.085 C 
ATOM     16  C   UNL     1      -4.763  -0.445  25.564  0.00  0.00    +0.085 C 
ATOM     18  C   UNL     1      -3.973  -2.096  23.998  0.00  0.00    +0.104 C 
ENDBRANCH   5   9
ENDBRANCH   8   5
BRANCH  11  17
ATOM     17  C   UNL     1      -0.524   4.648  25.229  0.00  0.00    +0.138 C 
BRANCH  17   7
ATOM      4  O   UNL     1      -1.082   2.690  23.204  0.00  0.00    -0.270 OA
ATOM      7  N   UNL     1      -0.392   3.225  25.354  0.00  0.00    -0.309 N 
ATOM     19  C   UNL     1      -0.686   2.347  24.315  0.00  0.00    +0.244 C 
ATOM     28  H   UNL     1      -0.137   2.870  26.269  0.00  0.00    +0.149 HD
BRANCH  19  20
ATOM      1  F   UNL     1      -0.068  -3.121  25.432  0.00  0.00    -0.205 F 
ATOM     20  C   UNL     1      -0.523   0.901  24.611  0.00  0.00    +0.037 A 
ATOM     21  C   UNL     1      -1.091   0.355  25.762  0.00  0.00    +0.016 A 
ATOM     22  C   UNL     1       0.200   0.087  23.738  0.00  0.00    +0.016 A 
ATOM     23  C   UNL     1      -0.938  -1.003  26.039  0.00  0.00    +0.039 A 
ATOM     24  C   UNL     1       0.354  -1.272  24.015  0.00  0.00    +0.039 A 
ATOM     25  C   UNL     1      -0.216  -1.816  25.166  0.00  0.00    +0.123 A 
ENDBRANCH  19  20
ENDBRANCH  17   7
ENDBRANCH  11  17
TORSDOF 6
ENDMDL
MODEL 9
REMARK VINA RESULT:      -1.8      1.846      4.194
REMARK  Name = 75536824
REMARK  7 active torsions:
REMARK  status: ('A' for Active; 'I' for Inactive)
REMARK    1  A    between atoms: O_3  and  C_10
REMARK    2  A    between atoms: N_5  and  C_8
REMARK    3  A    between atoms: N_5  and  C_9
REMARK    4  A    between atoms: N_6  and  C_18
REMARK    5  A    between atoms: N_7  and  C_17
REMARK    6  A    between atoms: C_11  and  C_17
REMARK    7  A    between atoms: C_19  and  C_20
REMARK                            x       y       z     vdW  Elec       q    Type
REMARK                         _______ _______ _______ _____ _____    ______ ____
ROOT
ATOM      2  O   UNL     1      -2.231  -1.409  26.597  0.00  0.00    -0.371 OA
ATOM      8  C   UNL     1      -3.481  -2.376  24.824  0.00  0.00    +0.111 C 
ATOM     10  C   UNL     1      -2.067  -2.106  24.343  0.00  0.00    +0.164 C 
ATOM     11  C   UNL     1      -1.319  -2.016  25.665  0.00  0.00    +0.165 C 
ATOM     14  C   UNL     1      -3.558  -1.479  26.048  0.00  0.00    +0.181 C 
ENDROOT
BRANCH  10   3
ATOM      3  O   UNL     1      -1.563  -3.140  23.520  0.00  0.00    -0.388 OA
ATOM     27  H   UNL     1      -0.675  -2.884  23.218  0.00  0.00    +0.210 HD
ENDBRANCH  10   3
BRANCH   8   5
ATOM      5  N   UNL     1      -4.502  -2.072  23.833  0.00  0.00    -0.306 NA
ATOM     26  H   UNL     1      -5.382  -2.520  24.085  0.00  0.00    +0.123 HD
BRANCH   5   9
ATOM      6  N   UNL     1      -4.073   2.082  24.620  0.00  0.00    -0.305 NA
ATOM      9  C   UNL     1      -4.694  -0.630  23.711  0.00  0.00    +0.056 C 
ATOM     12  C   UNL     1      -3.365   0.056  23.386  0.00  0.00    +0.034 C 
ATOM     13  C   UNL     1      -5.284  -0.044  24.997  0.00  0.00    +0.034 C 
ATOM     15  C   UNL     1      -3.527   1.578  23.352  0.00  0.00    +0.085 C 
ATOM     16  C   UNL     1      -5.382   1.482  24.911  0.00  0.00    +0.085 C 
ATOM     18  C   UNL     1      -4.175   3.541  24.590  0.00  0.00    +0.104 C 
ENDBRANCH   5   9
ENDBRANCH   8   5
BRANCH  11  17
ATOM     17  C   UNL     1      -0.047  -1.191  25.582  0.00  0.00    +0.138 C 
BRANCH  17   7
ATOM      4  O   UNL     1       0.441   0.664  23.445  0.00  0.00    -0.270 OA
ATOM      7  N   UNL     1      -0.336   0.213  25.585  0.00  0.00    -0.309 N 
ATOM     19  C   UNL     1      -0.065   1.041  24.499  0.00  0.00    +0.244 C 
ATOM     28  H   UNL     1      -0.690   0.603  26.451  0.00  0.00    +0.149 HD
BRANCH  19  20
ATOM      1  F   UNL     1      -1.331   6.473  25.142  0.00  0.00    -0.205 F 
ATOM     20  C   UNL     1      -0.399   2.478  24.668  0.00  0.00    +0.037 A 
ATOM     21  C   UNL     1      -0.093   3.390  23.658  0.00  0.00    +0.016 A 
ATOM     22  C   UNL     1      -1.020   2.916  25.839  0.00  0.00    +0.016 A 
ATOM     23  C   UNL     1      -0.408   4.739  23.818  0.00  0.00    +0.039 A 
ATOM     24  C   UNL     1      -1.334   4.266  25.999  0.00  0.00    +0.039 A 
ATOM     25  C   UNL     1      -1.028   5.177  24.988  0.00  0.00    +0.123 A 
ENDBRANCH  19  20
ENDBRANCH  17   7
ENDBRANCH  11  17
TORSDOF 6
ENDMDL
