MODEL 1
REMARK VINA RESULT:       4.6      0.000      0.000
REMARK  Name = 44716382
REMARK  8 active torsions:
REMARK  status: ('A' for Active; 'I' for Inactive)
REMARK    1  A    between atoms: N_4  and  C_14
REMARK    2  A    between atoms: N_6  and  C_21
REMARK    3  A    between atoms: N_7  and  C_34
REMARK    4  A    between atoms: N_7  and  C_35
REMARK    5  A    between atoms: N_7  and  C_36
REMARK    6  A    between atoms: C_9  and  C_14
REMARK    7  A    between atoms: C_11  and  C_21
REMARK    8  A    between atoms: C_28  and  C_29
REMARK                            x       y       z     vdW  Elec       q    Type
REMARK                         _______ _______ _______ _____ _____    ______ ____
ROOT
ATOM      3  N   UNL     1      -2.717  -2.293  24.438  0.00  0.00    -0.298 NA
ATOM      8  C   UNL     1      -3.680  -0.467  26.020  0.00  0.00    -0.003 C 
ATOM      9  C   UNL     1      -4.653  -0.755  24.854  0.00  0.00    +0.020 C 
ATOM     10  C   UNL     1      -2.313  -0.044  25.452  0.00  0.00    +0.024 C 
ATOM     11  C   UNL     1      -1.715  -1.213  24.639  0.00  0.00    +0.074 C 
ATOM     12  C   UNL     1      -3.970  -1.735  23.874  0.00  0.00    +0.089 C 
ATOM     13  C   UNL     1      -3.471  -1.798  26.767  0.00  0.00    +0.019 C 
ATOM     15  C   UNL     1      -3.029  -2.879  25.764  0.00  0.00    +0.085 C 
ENDROOT
BRANCH   9  14
ATOM     14  C   UNL     1      -5.131   0.503  24.147  0.00  0.00    +0.089 C 
BRANCH  14   4
ATOM      1  O   UNL     1      -0.436   2.502  27.587  0.00  0.00    -0.268 OA
ATOM      4  N   UNL     1      -4.307   1.655  24.507  0.00  0.00    -0.301 NA
ATOM      5  N   UNL     1      -1.718   3.075  25.714  0.00  0.00    -0.312 N 
ATOM     16  C   UNL     1      -4.180   3.766  25.852  0.00  0.00    +0.024 C 
ATOM     17  C   UNL     1      -3.070   3.659  23.671  0.00  0.00    +0.050 C 
ATOM     18  C   UNL     1      -4.994   2.507  25.486  0.00  0.00    +0.089 C 
ATOM     19  C   UNL     1      -3.917   2.416  23.311  0.00  0.00    +0.094 C 
ATOM     20  C   UNL     1      -3.871   4.572  24.596  0.00  0.00    +0.017 C 
ATOM     22  C   UNL     1      -2.862   3.432  26.563  0.00  0.00    +0.130 C 
ATOM     23  C   UNL     1      -1.766   3.241  24.325  0.00  0.00    +0.026 A 
ATOM     24  C   UNL     1      -0.671   3.013  23.579  0.00  0.00    +0.022 A 
ATOM     25  C   UNL     1      -0.547   2.652  26.371  0.00  0.00    +0.251 A 
ATOM     26  C   UNL     1       0.554   2.576  24.187  0.00  0.00    +0.007 A 
ATOM     27  C   UNL     1       0.638   2.387  25.507  0.00  0.00    +0.070 A 
ENDBRANCH  14   4
ENDBRANCH   9  14
BRANCH  11  21
ATOM     21  C   UNL     1      -1.102  -0.732  23.320  0.00  0.00    +0.123 C 
BRANCH  21   6
ATOM      2  O   UNL     1       0.845  -0.629  21.213  0.00  0.00    -0.270 OA
ATOM      6  N   UNL     1       0.326  -0.504  23.468  0.00  0.00    -0.310 N 
ATOM     28  C   UNL     1       1.181  -0.473  22.384  0.00  0.00    +0.244 C 
ATOM     37  H   UNL     1       0.679  -0.435  24.416  0.00  0.00    +0.149 HD
BRANCH  28  29
ATOM     29  C   UNL     1       2.614  -0.257  22.705  0.00  0.00    +0.037 A 
ATOM     30  C   UNL     1       3.246   0.925  22.315  0.00  0.00    +0.015 A 
ATOM     31  C   UNL     1       3.330  -1.234  23.397  0.00  0.00    +0.015 A 
ATOM     32  C   UNL     1       4.592   1.128  22.615  0.00  0.00    +0.024 A 
ATOM     33  C   UNL     1       4.677  -1.031  23.697  0.00  0.00    +0.024 A 
ATOM     34  C   UNL     1       5.308   0.150  23.307  0.00  0.00    +0.029 A 
BRANCH  34   7
ATOM      7  N   UNL     1       6.669   0.355  23.611  0.00  0.00    -0.336 N 
ATOM     35  C   UNL     1       7.679  -0.555  23.108  0.00  0.00    +0.129 C 
ATOM     36  C   UNL     1       7.079   1.483  24.424  0.00  0.00    +0.129 C 
ENDBRANCH  34   7
ENDBRANCH  28  29
ENDBRANCH  21   6
ENDBRANCH  11  21
TORSDOF 6
ENDMDL
MODEL 2
REMARK VINA RESULT:       8.2      1.135      1.495
REMARK  Name = 44716382
REMARK  8 active torsions:
REMARK  status: ('A' for Active; 'I' for Inactive)
REMARK    1  A    between atoms: N_4  and  C_14
REMARK    2  A    between atoms: N_6  and  C_21
REMARK    3  A    between atoms: N_7  and  C_34
REMARK    4  A    between atoms: N_7  and  C_35
REMARK    5  A    between atoms: N_7  and  C_36
REMARK    6  A    between atoms: C_9  and  C_14
REMARK    7  A    between atoms: C_11  and  C_21
REMARK    8  A    between atoms: C_28  and  C_29
REMARK                            x       y       z     vdW  Elec       q    Type
REMARK                         _______ _______ _______ _____ _____    ______ ____
ROOT
ATOM      3  N   UNL     1      -2.433  -1.163  23.679  0.00  0.00    -0.298 NA
ATOM      8  C   UNL     1      -3.670  -2.017  25.802  0.00  0.00    -0.003 C 
ATOM      9  C   UNL     1      -4.531  -0.985  25.040  0.00  0.00    +0.020 C 
ATOM     10  C   UNL     1      -2.315  -1.383  26.167  0.00  0.00    +0.024 C 
ATOM     11  C   UNL     1      -1.555  -1.023  24.871  0.00  0.00    +0.074 C 
ATOM     12  C   UNL     1      -3.694  -0.408  23.877  0.00  0.00    +0.089 C 
ATOM     13  C   UNL     1      -3.383  -3.171  24.822  0.00  0.00    +0.019 C 
ATOM     15  C   UNL     1      -2.774  -2.599  23.529  0.00  0.00    +0.085 C 
ENDROOT
BRANCH   9  14
ATOM     14  C   UNL     1      -5.079   0.114  25.935  0.00  0.00    +0.089 C 
BRANCH  14   4
ATOM      1  O   UNL     1      -0.378   4.084  26.054  0.00  0.00    -0.268 OA
ATOM      4  N   UNL     1      -4.603   1.428  25.509  0.00  0.00    -0.301 NA
ATOM      5  N   UNL     1      -2.363   3.617  24.902  0.00  0.00    -0.312 N 
ATOM     16  C   UNL     1      -4.689   3.897  25.935  0.00  0.00    +0.024 C 
ATOM     17  C   UNL     1      -4.472   3.078  23.637  0.00  0.00    +0.050 C 
ATOM     18  C   UNL     1      -5.125   2.486  26.383  0.00  0.00    +0.089 C 
ATOM     19  C   UNL     1      -4.940   1.679  24.100  0.00  0.00    +0.094 C 
ATOM     20  C   UNL     1      -5.133   4.150  24.499  0.00  0.00    +0.017 C 
ATOM     22  C   UNL     1      -3.171   4.103  26.027  0.00  0.00    +0.130 C 
ATOM     23  C   UNL     1      -2.960   3.184  23.713  0.00  0.00    +0.026 A 
ATOM     24  C   UNL     1      -2.199   2.847  22.657  0.00  0.00    +0.022 A 
ATOM     25  C   UNL     1      -0.964   3.698  25.042  0.00  0.00    +0.251 A 
ATOM     26  C   UNL     1      -0.766   2.904  22.737  0.00  0.00    +0.007 A 
ATOM     27  C   UNL     1      -0.155   3.294  23.859  0.00  0.00    +0.070 A 
ENDBRANCH  14   4
ENDBRANCH   9  14
BRANCH  11  21
ATOM     21  C   UNL     1      -0.906   0.361  24.959  0.00  0.00    +0.123 C 
BRANCH  21   6
ATOM      2  O   UNL     1       0.363  -0.222  22.450  0.00  0.00    -0.270 OA
ATOM      6  N   UNL     1       0.524   0.277  24.707  0.00  0.00    -0.310 N 
ATOM     28  C   UNL     1       1.034  -0.011  23.457  0.00  0.00    +0.244 C 
ATOM     37  H   UNL     1       1.133   0.375  25.512  0.00  0.00    +0.149 HD
BRANCH  28  29
ATOM     29  C   UNL     1       2.515  -0.087  23.371  0.00  0.00    +0.037 A 
ATOM     30  C   UNL     1       3.238   0.982  22.841  0.00  0.00    +0.015 A 
ATOM     31  C   UNL     1       3.183  -1.226  23.820  0.00  0.00    +0.015 A 
ATOM     32  C   UNL     1       4.629   0.911  22.759  0.00  0.00    +0.024 A 
ATOM     33  C   UNL     1       4.573  -1.298  23.739  0.00  0.00    +0.024 A 
ATOM     34  C   UNL     1       5.297  -0.229  23.209  0.00  0.00    +0.029 A 
BRANCH  34   7
ATOM      7  N   UNL     1       6.702  -0.302  23.127  0.00  0.00    -0.336 N 
ATOM     35  C   UNL     1       7.530   0.628  23.870  0.00  0.00    +0.129 C 
ATOM     36  C   UNL     1       7.339  -1.312  22.305  0.00  0.00    +0.129 C 
ENDBRANCH  34   7
ENDBRANCH  28  29
ENDBRANCH  21   6
ENDBRANCH  11  21
TORSDOF 6
ENDMDL
