MODEL 1
REMARK VINA RESULT:      -0.1      0.000      0.000
REMARK  Name = 45360937
REMARK  10 active torsions:
REMARK  status: ('A' for Active; 'I' for Inactive)
REMARK    1  A    between atoms: O_3  and  C_31
REMARK    2  A    between atoms: O_3  and  C_32
REMARK    3  A    between atoms: N_4  and  C_17
REMARK    4  A    between atoms: N_5  and  C_19
REMARK    5  A    between atoms: N_9  and  C_25
REMARK    6  A    between atoms: C_14  and  C_18
REMARK    7  A    between atoms: C_17  and  C_21
REMARK    8  A    between atoms: C_18  and  C_20
REMARK    9  A    between atoms: C_20  and  C_22
REMARK   10  A    between atoms: C_25  and  C_26
REMARK                            x       y       z     vdW  Elec       q    Type
REMARK                         _______ _______ _______ _____ _____    ______ ____
ROOT
ATOM      1  O   UNL     1      -0.972   0.743  26.499  0.00  0.00    -0.274 OA
ATOM      4  N   UNL     1      -0.580   0.011  23.930  0.00  0.00    -0.283 NA
ATOM      5  N   UNL     1      -2.302   3.239  23.857  0.00  0.00    -0.296 NA
ATOM      6  N   UNL     1      -0.562   2.966  26.142  0.00  0.00    -0.312 N 
ATOM     10  C   UNL     1      -1.429   2.192  23.284  0.00  0.00    +0.084 C 
ATOM     11  C   UNL     1      -0.442   1.449  24.232  0.00  0.00    +0.161 C 
ATOM     12  C   UNL     1      -2.195   1.022  22.639  0.00  0.00    +0.036 C 
ATOM     13  C   UNL     1      -1.172  -0.092  22.601  0.00  0.00    +0.087 C 
ATOM     14  C   UNL     1      -1.574   4.416  24.407  0.00  0.00    +0.074 C 
ATOM     15  C   UNL     1      -0.699   1.656  25.722  0.00  0.00    +0.232 C 
ATOM     16  C   UNL     1      -0.322   4.073  25.239  0.00  0.00    +0.123 C 
ATOM     19  C   UNL     1      -3.310   3.677  22.874  0.00  0.00    +0.105 C 
ATOM     33  H   UNL     1      -0.698   3.169  27.127  0.00  0.00    +0.149 HD
ENDROOT
BRANCH   4  17
ATOM     17  C   UNL     1       0.675  -0.723  24.031  0.00  0.00    +0.159 C 
BRANCH  17  21
ATOM      7  N   UNL     1       2.603   0.823  23.640  0.00  0.00    -0.347 N 
ATOM      8  N   UNL     1       1.990  -0.419  21.904  0.00  0.00    -0.239 NA
ATOM     21  C   UNL     1       1.745  -0.128  23.162  0.00  0.00    +0.121 A 
ATOM     23  C   UNL     1       3.449   1.160  22.621  0.00  0.00    +0.104 A 
ATOM     24  C   UNL     1       3.051   0.382  21.560  0.00  0.00    +0.130 A 
ATOM     34  H   UNL     1       2.612   1.207  24.575  0.00  0.00    +0.167 HD
ENDBRANCH  17  21
ENDBRANCH   4  17
BRANCH  14  18
ATOM     18  C   UNL     1      -2.508   5.260  25.300  0.00  0.00    +0.029 C 
BRANCH  18  20
ATOM     20  C   UNL     1      -3.108   4.409  26.404  0.00  0.00    +0.097 C 
BRANCH  20  22
ATOM      2  O   UNL     1      -5.393   4.201  25.631  0.00  0.00    -0.276 OA
ATOM      9  N   UNL     1      -4.100   2.286  25.863  0.00  0.00    -0.311 N 
ATOM     22  C   UNL     1      -4.334   3.653  25.924  0.00  0.00    +0.213 C 
ATOM     35  H   UNL     1      -3.195   1.920  26.142  0.00  0.00    +0.149 HD
BRANCH   9  25
ATOM     25  C   UNL     1      -5.113   1.350  25.436  0.00  0.00    +0.139 C 
BRANCH  25  26
ATOM     26  C   UNL     1      -4.532   0.004  25.109  0.00  0.00    -0.030 A 
ATOM     27  C   UNL     1      -4.851  -0.619  23.902  0.00  0.00    +0.009 A 
ATOM     28  C   UNL     1      -3.675  -0.622  26.012  0.00  0.00    +0.009 A 
ATOM     29  C   UNL     1      -4.311  -1.869  23.599  0.00  0.00    +0.046 A 
ATOM     30  C   UNL     1      -3.135  -1.872  25.709  0.00  0.00    +0.046 A 
ATOM     31  C   UNL     1      -3.453  -2.495  24.503  0.00  0.00    +0.120 A 
BRANCH  31   3
ATOM      3  O   UNL     1      -2.926  -3.715  24.207  0.00  0.00    -0.495 OA
ATOM     32  C   UNL     1      -1.693  -3.733  23.489  0.00  0.00    +0.277 C 
ENDBRANCH  31   3
ENDBRANCH  25  26
ENDBRANCH   9  25
ENDBRANCH  20  22
ENDBRANCH  18  20
ENDBRANCH  14  18
TORSDOF 8
ENDMDL
MODEL 2
REMARK VINA RESULT:       0.5      1.977      4.906
REMARK  Name = 45360937
REMARK  10 active torsions:
REMARK  status: ('A' for Active; 'I' for Inactive)
REMARK    1  A    between atoms: O_3  and  C_31
REMARK    2  A    between atoms: O_3  and  C_32
REMARK    3  A    between atoms: N_4  and  C_17
REMARK    4  A    between atoms: N_5  and  C_19
REMARK    5  A    between atoms: N_9  and  C_25
REMARK    6  A    between atoms: C_14  and  C_18
REMARK    7  A    between atoms: C_17  and  C_21
REMARK    8  A    between atoms: C_18  and  C_20
REMARK    9  A    between atoms: C_20  and  C_22
REMARK   10  A    between atoms: C_25  and  C_26
REMARK                            x       y       z     vdW  Elec       q    Type
REMARK                         _______ _______ _______ _____ _____    ______ ____
ROOT
ATOM      1  O   UNL     1      -0.821  -1.256  22.014  0.00  0.00    -0.274 OA
ATOM      4  N   UNL     1       1.162   0.397  22.806  0.00  0.00    -0.283 NA
ATOM      5  N   UNL     1      -1.216   0.197  25.580  0.00  0.00    -0.296 NA
ATOM      6  N   UNL     1      -1.084  -2.251  24.058  0.00  0.00    -0.312 N 
ATOM     10  C   UNL     1       0.126   0.426  25.001  0.00  0.00    +0.084 C 
ATOM     11  C   UNL     1       0.599  -0.495  23.838  0.00  0.00    +0.161 C 
ATOM     12  C   UNL     1       0.314   1.830  24.396  0.00  0.00    +0.036 C 
ATOM     13  C   UNL     1       1.493   1.656  23.463  0.00  0.00    +0.087 C 
ATOM     14  C   UNL     1      -1.382  -1.126  26.245  0.00  0.00    +0.074 C 
ATOM     15  C   UNL     1      -0.499  -1.341  23.198  0.00  0.00    +0.232 C 
ATOM     16  C   UNL     1      -0.784  -2.319  25.474  0.00  0.00    +0.123 C 
ATOM     19  C   UNL     1      -1.579   1.283  26.508  0.00  0.00    +0.105 C 
ATOM     33  H   UNL     1      -1.807  -2.861  23.689  0.00  0.00    +0.149 HD
ENDROOT
BRANCH   4  17
ATOM     17  C   UNL     1       2.306  -0.177  22.110  0.00  0.00    +0.159 C 
BRANCH  17  21
ATOM      7  N   UNL     1       4.045  -1.146  23.625  0.00  0.00    -0.347 N 
ATOM      8  N   UNL     1       4.332   0.982  23.059  0.00  0.00    -0.239 NA
ATOM     21  C   UNL     1       3.565  -0.077  22.921  0.00  0.00    +0.121 A 
ATOM     23  C   UNL     1       5.190  -0.742  24.252  0.00  0.00    +0.104 A 
ATOM     24  C   UNL     1       5.347   0.574  23.888  0.00  0.00    +0.130 A 
ATOM     34  H   UNL     1       3.631  -2.067  23.674  0.00  0.00    +0.167 HD
ENDBRANCH  17  21
ENDBRANCH   4  17
BRANCH  14  18
ATOM     18  C   UNL     1      -2.877  -1.428  26.479  0.00  0.00    +0.029 C 
BRANCH  18  20
ATOM     20  C   UNL     1      -3.570  -1.758  25.171  0.00  0.00    +0.097 C 
BRANCH  20  22
ATOM      2  O   UNL     1      -3.720  -0.230  23.299  0.00  0.00    -0.276 OA
ATOM      9  N   UNL     1      -4.855   0.273  25.262  0.00  0.00    -0.311 N 
ATOM     22  C   UNL     1      -4.038  -0.505  24.453  0.00  0.00    +0.213 C 
ATOM     35  H   UNL     1      -5.049  -0.026  26.213  0.00  0.00    +0.149 HD
BRANCH   9  25
ATOM     25  C   UNL     1      -5.427   1.519  24.808  0.00  0.00    +0.139 C 
BRANCH  25  26
ATOM     26  C   UNL     1      -4.444   2.651  24.889  0.00  0.00    -0.030 A 
ATOM     27  C   UNL     1      -4.329   3.392  26.065  0.00  0.00    +0.009 A 
ATOM     28  C   UNL     1      -3.646   2.961  23.788  0.00  0.00    +0.009 A 
ATOM     29  C   UNL     1      -3.415   4.444  26.140  0.00  0.00    +0.046 A 
ATOM     30  C   UNL     1      -2.732   4.012  23.863  0.00  0.00    +0.046 A 
ATOM     31  C   UNL     1      -2.617   4.754  25.039  0.00  0.00    +0.120 A 
BRANCH  31   3
ATOM      3  O   UNL     1      -1.726   5.780  25.111  0.00  0.00    -0.495 OA
ATOM     32  C   UNL     1      -0.390   5.511  24.687  0.00  0.00    +0.277 C 
ENDBRANCH  31   3
ENDBRANCH  25  26
ENDBRANCH   9  25
ENDBRANCH  20  22
ENDBRANCH  18  20
ENDBRANCH  14  18
TORSDOF 8
ENDMDL
MODEL 3
REMARK VINA RESULT:       0.5      1.340      1.741
REMARK  Name = 45360937
REMARK  10 active torsions:
REMARK  status: ('A' for Active; 'I' for Inactive)
REMARK    1  A    between atoms: O_3  and  C_31
REMARK    2  A    between atoms: O_3  and  C_32
REMARK    3  A    between atoms: N_4  and  C_17
REMARK    4  A    between atoms: N_5  and  C_19
REMARK    5  A    between atoms: N_9  and  C_25
REMARK    6  A    between atoms: C_14  and  C_18
REMARK    7  A    between atoms: C_17  and  C_21
REMARK    8  A    between atoms: C_18  and  C_20
REMARK    9  A    between atoms: C_20  and  C_22
REMARK   10  A    between atoms: C_25  and  C_26
REMARK                            x       y       z     vdW  Elec       q    Type
REMARK                         _______ _______ _______ _____ _____    ______ ____
ROOT
ATOM      1  O   UNL     1      -1.089   2.024  26.653  0.00  0.00    -0.274 OA
ATOM      4  N   UNL     1      -0.110   1.527  24.186  0.00  0.00    -0.283 NA
ATOM      5  N   UNL     1      -3.364   3.137  23.726  0.00  0.00    -0.296 NA
ATOM      6  N   UNL     1      -2.007   4.047  26.104  0.00  0.00    -0.312 N 
ATOM     10  C   UNL     1      -1.997   2.768  23.296  0.00  0.00    +0.084 C 
ATOM     11  C   UNL     1      -0.856   2.789  24.356  0.00  0.00    +0.161 C 
ATOM     12  C   UNL     1      -1.883   1.340  22.732  0.00  0.00    +0.036 C 
ATOM     13  C   UNL     1      -0.407   1.030  22.848  0.00  0.00    +0.087 C 
ATOM     14  C   UNL     1      -3.503   4.544  24.193  0.00  0.00    +0.074 C 
ATOM     15  C   UNL     1      -1.323   2.883  25.805  0.00  0.00    +0.232 C 
ATOM     16  C   UNL     1      -2.368   5.039  25.111  0.00  0.00    +0.123 C 
ATOM     19  C   UNL     1      -4.342   2.854  22.661  0.00  0.00    +0.105 C 
ATOM     33  H   UNL     1      -2.326   4.183  27.058  0.00  0.00    +0.149 HD
ENDROOT
BRANCH   4  17
ATOM     17  C   UNL     1       1.322   1.669  24.415  0.00  0.00    +0.159 C 
BRANCH  17  21
ATOM      7  N   UNL     1       3.419   1.344  23.089  0.00  0.00    -0.347 N 
ATOM      8  N   UNL     1       1.741  -0.025  22.598  0.00  0.00    -0.239 NA
ATOM     21  C   UNL     1       2.131   0.973  23.359  0.00  0.00    +0.121 A 
ATOM     23  C   UNL     1       3.878   0.532  22.091  0.00  0.00    +0.104 A 
ATOM     24  C   UNL     1       2.826  -0.304  21.804  0.00  0.00    +0.130 A 
ATOM     34  H   UNL     1       3.938   2.084  23.544  0.00  0.00    +0.167 HD
ENDBRANCH  17  21
ENDBRANCH   4  17
BRANCH  14  18
ATOM     18  C   UNL     1      -4.831   4.730  24.958  0.00  0.00    +0.029 C 
BRANCH  18  20
ATOM     20  C   UNL     1      -4.789   4.006  26.291  0.00  0.00    +0.097 C 
BRANCH  20  22
ATOM      2  O   UNL     1      -6.455   2.349  26.872  0.00  0.00    -0.276 OA
ATOM      9  N   UNL     1      -4.818   1.808  25.316  0.00  0.00    -0.311 N 
ATOM     22  C   UNL     1      -5.463   2.648  26.213  0.00  0.00    +0.213 C 
ATOM     35  H   UNL     1      -3.991   2.138  24.827  0.00  0.00    +0.149 HD
BRANCH   9  25
ATOM     25  C   UNL     1      -5.268   0.460  25.064  0.00  0.00    +0.139 C 
BRANCH  25  26
ATOM     26  C   UNL     1      -4.122  -0.506  24.973  0.00  0.00    -0.030 A 
ATOM     27  C   UNL     1      -2.964  -0.289  25.719  0.00  0.00    +0.009 A 
ATOM     28  C   UNL     1      -4.216  -1.621  24.140  0.00  0.00    +0.009 A 
ATOM     29  C   UNL     1      -1.899  -1.186  25.633  0.00  0.00    +0.046 A 
ATOM     30  C   UNL     1      -3.152  -2.519  24.054  0.00  0.00    +0.046 A 
ATOM     31  C   UNL     1      -1.993  -2.301  24.800  0.00  0.00    +0.120 A 
BRANCH  31   3
ATOM      3  O   UNL     1      -0.955  -3.177  24.716  0.00  0.00    -0.495 OA
ATOM     32  C   UNL     1       0.262  -2.807  25.362  0.00  0.00    +0.277 C 
ENDBRANCH  31   3
ENDBRANCH  25  26
ENDBRANCH   9  25
ENDBRANCH  20  22
ENDBRANCH  18  20
ENDBRANCH  14  18
TORSDOF 8
ENDMDL
MODEL 4
REMARK VINA RESULT:       1.1      2.125      3.511
REMARK  Name = 45360937
REMARK  10 active torsions:
REMARK  status: ('A' for Active; 'I' for Inactive)
REMARK    1  A    between atoms: O_3  and  C_31
REMARK    2  A    between atoms: O_3  and  C_32
REMARK    3  A    between atoms: N_4  and  C_17
REMARK    4  A    between atoms: N_5  and  C_19
REMARK    5  A    between atoms: N_9  and  C_25
REMARK    6  A    between atoms: C_14  and  C_18
REMARK    7  A    between atoms: C_17  and  C_21
REMARK    8  A    between atoms: C_18  and  C_20
REMARK    9  A    between atoms: C_20  and  C_22
REMARK   10  A    between atoms: C_25  and  C_26
REMARK                            x       y       z     vdW  Elec       q    Type
REMARK                         _______ _______ _______ _____ _____    ______ ____
ROOT
ATOM      1  O   UNL     1      -1.723   3.211  27.469  0.00  0.00    -0.274 OA
ATOM      4  N   UNL     1       0.331   2.483  25.875  0.00  0.00    -0.283 NA
ATOM      5  N   UNL     1      -2.638   2.684  23.745  0.00  0.00    -0.296 NA
ATOM      6  N   UNL     1      -2.707   4.579  25.920  0.00  0.00    -0.312 N 
ATOM     10  C   UNL     1      -1.179   2.720  23.989  0.00  0.00    +0.084 C 
ATOM     11  C   UNL     1      -0.661   3.404  25.289  0.00  0.00    +0.161 C 
ATOM     12  C   UNL     1      -0.526   1.328  24.078  0.00  0.00    +0.036 C 
ATOM     13  C   UNL     1       0.773   1.593  24.808  0.00  0.00    +0.087 C 
ATOM     14  C   UNL     1      -3.266   4.024  23.572  0.00  0.00    +0.074 C 
ATOM     15  C   UNL     1      -1.732   3.692  26.337  0.00  0.00    +0.232 C 
ATOM     16  C   UNL     1      -2.790   5.097  24.570  0.00  0.00    +0.123 C 
ATOM     19  C   UNL     1      -2.956   1.819  22.596  0.00  0.00    +0.105 C 
ATOM     33  H   UNL     1      -3.438   4.831  26.579  0.00  0.00    +0.149 HD
ENDROOT
BRANCH   4  17
ATOM     17  C   UNL     1       1.445   3.168  26.516  0.00  0.00    +0.159 C 
BRANCH  17  21
ATOM      7  N   UNL     1       0.556   2.322  28.697  0.00  0.00    -0.347 N 
ATOM      8  N   UNL     1       2.740   2.718  28.631  0.00  0.00    -0.239 NA
ATOM     21  C   UNL     1       1.619   2.743  27.946  0.00  0.00    +0.121 A 
ATOM     23  C   UNL     1       1.032   2.009  29.939  0.00  0.00    +0.104 A 
ATOM     24  C   UNL     1       2.381   2.262  29.874  0.00  0.00    +0.130 A 
ATOM     34  H   UNL     1      -0.405   2.253  28.390  0.00  0.00    +0.167 HD
ENDBRANCH  17  21
ENDBRANCH   4  17
BRANCH  14  18
ATOM     18  C   UNL     1      -4.801   3.921  23.698  0.00  0.00    +0.029 C 
BRANCH  18  20
ATOM     20  C   UNL     1      -5.222   3.939  25.155  0.00  0.00    +0.097 C 
BRANCH  20  22
ATOM      2  O   UNL     1      -6.036   2.333  26.773  0.00  0.00    -0.276 OA
ATOM      9  N   UNL     1      -5.379   1.588  24.674  0.00  0.00    -0.311 N 
ATOM     22  C   UNL     1      -5.597   2.553  25.648  0.00  0.00    +0.213 C 
ATOM     35  H   UNL     1      -4.995   1.862  23.775  0.00  0.00    +0.149 HD
BRANCH   9  25
ATOM     25  C   UNL     1      -5.657   0.190  24.901  0.00  0.00    +0.139 C 
BRANCH  25  26
ATOM     26  C   UNL     1      -4.405  -0.640  24.892  0.00  0.00    -0.030 A 
ATOM     27  C   UNL     1      -4.308  -1.749  24.052  0.00  0.00    +0.009 A 
ATOM     28  C   UNL     1      -3.340  -0.301  25.726  0.00  0.00    +0.009 A 
ATOM     29  C   UNL     1      -3.145  -2.520  24.045  0.00  0.00    +0.046 A 
ATOM     30  C   UNL     1      -2.177  -1.072  25.720  0.00  0.00    +0.046 A 
ATOM     31  C   UNL     1      -2.080  -2.181  24.879  0.00  0.00    +0.120 A 
BRANCH  31   3
ATOM      3  O   UNL     1      -0.945  -2.932  24.873  0.00  0.00    -0.495 OA
ATOM     32  C   UNL     1       0.243  -2.318  25.370  0.00  0.00    +0.277 C 
ENDBRANCH  31   3
ENDBRANCH  25  26
ENDBRANCH   9  25
ENDBRANCH  20  22
ENDBRANCH  18  20
ENDBRANCH  14  18
TORSDOF 8
ENDMDL
MODEL 5
REMARK VINA RESULT:       2.0      1.767      4.983
REMARK  Name = 45360937
REMARK  10 active torsions:
REMARK  status: ('A' for Active; 'I' for Inactive)
REMARK    1  A    between atoms: O_3  and  C_31
REMARK    2  A    between atoms: O_3  and  C_32
REMARK    3  A    between atoms: N_4  and  C_17
REMARK    4  A    between atoms: N_5  and  C_19
REMARK    5  A    between atoms: N_9  and  C_25
REMARK    6  A    between atoms: C_14  and  C_18
REMARK    7  A    between atoms: C_17  and  C_21
REMARK    8  A    between atoms: C_18  and  C_20
REMARK    9  A    between atoms: C_20  and  C_22
REMARK   10  A    between atoms: C_25  and  C_26
REMARK                            x       y       z     vdW  Elec       q    Type
REMARK                         _______ _______ _______ _____ _____    ______ ____
ROOT
ATOM      1  O   UNL     1      -1.610   1.263  22.495  0.00  0.00    -0.274 OA
ATOM      4  N   UNL     1       0.104   2.045  24.430  0.00  0.00    -0.283 NA
ATOM      5  N   UNL     1      -1.757  -0.811  25.760  0.00  0.00    -0.296 NA
ATOM      6  N   UNL     1      -1.371  -0.976  22.906  0.00  0.00    -0.312 N 
ATOM     10  C   UNL     1      -0.585   0.090  25.693  0.00  0.00    +0.084 C 
ATOM     11  C   UNL     1      -0.116   0.592  24.295  0.00  0.00    +0.161 C 
ATOM     12  C   UNL     1      -0.767   1.411  26.464  0.00  0.00    +0.036 C 
ATOM     13  C   UNL     1       0.274   2.322  25.851  0.00  0.00    +0.087 C 
ATOM     14  C   UNL     1      -1.561  -2.127  25.091  0.00  0.00    +0.074 C 
ATOM     15  C   UNL     1      -1.108   0.357  23.159  0.00  0.00    +0.232 C 
ATOM     16  C   UNL     1      -0.860  -2.060  23.720  0.00  0.00    +0.123 C 
ATOM     19  C   UNL     1      -2.187  -1.008  27.156  0.00  0.00    +0.105 C 
ATOM     33  H   UNL     1      -2.006  -1.202  22.146  0.00  0.00    +0.149 HD
ENDROOT
BRANCH   4  17
ATOM     17  C   UNL     1       1.225   2.534  23.637  0.00  0.00    +0.159 C 
BRANCH  17  21
ATOM      7  N   UNL     1       3.484   1.529  23.255  0.00  0.00    -0.347 N 
ATOM      8  N   UNL     1       1.752   0.257  22.696  0.00  0.00    -0.239 NA
ATOM     21  C   UNL     1       2.123   1.418  23.186  0.00  0.00    +0.121 A 
ATOM     23  C   UNL     1       4.014   0.364  22.777  0.00  0.00    +0.104 A 
ATOM     24  C   UNL     1       2.926  -0.405  22.437  0.00  0.00    +0.130 A 
ATOM     34  H   UNL     1       4.005   2.326  23.597  0.00  0.00    +0.167 HD
ENDBRANCH  17  21
ENDBRANCH   4  17
BRANCH  14  18
ATOM     18  C   UNL     1      -2.918  -2.834  24.883  0.00  0.00    +0.029 C 
BRANCH  18  20
ATOM     20  C   UNL     1      -4.048  -2.011  25.473  0.00  0.00    +0.097 C 
BRANCH  20  22
ATOM      2  O   UNL     1      -4.264  -0.860  23.355  0.00  0.00    -0.276 OA
ATOM      9  N   UNL     1      -4.960   0.207  25.296  0.00  0.00    -0.311 N 
ATOM     22  C   UNL     1      -4.424  -0.849  24.573  0.00  0.00    +0.213 C 
ATOM     35  H   UNL     1      -5.038   0.133  26.306  0.00  0.00    +0.149 HD
BRANCH   9  25
ATOM     25  C   UNL     1      -5.395   1.431  24.666  0.00  0.00    +0.139 C 
BRANCH  25  26
ATOM     26  C   UNL     1      -4.401   2.542  24.851  0.00  0.00    -0.030 A 
ATOM     27  C   UNL     1      -4.147   3.045  26.127  0.00  0.00    +0.009 A 
ATOM     28  C   UNL     1      -3.733   3.070  23.747  0.00  0.00    +0.009 A 
ATOM     29  C   UNL     1      -3.224   4.077  26.299  0.00  0.00    +0.046 A 
ATOM     30  C   UNL     1      -2.811   4.102  23.919  0.00  0.00    +0.046 A 
ATOM     31  C   UNL     1      -2.556   4.605  25.195  0.00  0.00    +0.120 A 
BRANCH  31   3
ATOM      3  O   UNL     1      -1.656   5.612  25.362  0.00  0.00    -0.495 OA
ATOM     32  C   UNL     1      -0.490   5.584  24.539  0.00  0.00    +0.277 C 
ENDBRANCH  31   3
ENDBRANCH  25  26
ENDBRANCH   9  25
ENDBRANCH  20  22
ENDBRANCH  18  20
ENDBRANCH  14  18
TORSDOF 8
ENDMDL
MODEL 6
REMARK VINA RESULT:       2.0      1.941      4.835
REMARK  Name = 45360937
REMARK  10 active torsions:
REMARK  status: ('A' for Active; 'I' for Inactive)
REMARK    1  A    between atoms: O_3  and  C_31
REMARK    2  A    between atoms: O_3  and  C_32
REMARK    3  A    between atoms: N_4  and  C_17
REMARK    4  A    between atoms: N_5  and  C_19
REMARK    5  A    between atoms: N_9  and  C_25
REMARK    6  A    between atoms: C_14  and  C_18
REMARK    7  A    between atoms: C_17  and  C_21
REMARK    8  A    between atoms: C_18  and  C_20
REMARK    9  A    between atoms: C_20  and  C_22
REMARK   10  A    between atoms: C_25  and  C_26
REMARK                            x       y       z     vdW  Elec       q    Type
REMARK                         _______ _______ _______ _____ _____    ______ ____
ROOT
ATOM      1  O   UNL     1      -0.439   1.824  24.575  0.00  0.00    -0.274 OA
ATOM      4  N   UNL     1       0.762  -0.494  23.883  0.00  0.00    -0.283 NA
ATOM      5  N   UNL     1      -2.517  -1.370  25.251  0.00  0.00    -0.296 NA
ATOM      6  N   UNL     1      -2.529   1.180  23.901  0.00  0.00    -0.312 N 
ATOM     10  C   UNL     1      -1.326  -1.616  24.409  0.00  0.00    +0.084 C 
ATOM     11  C   UNL     1      -0.693  -0.412  23.650  0.00  0.00    +0.161 C 
ATOM     12  C   UNL     1      -0.118  -2.176  25.183  0.00  0.00    +0.036 C 
ATOM     13  C   UNL     1       1.055  -1.866  24.280  0.00  0.00    +0.087 C 
ATOM     14  C   UNL     1      -3.718  -0.909  24.499  0.00  0.00    +0.074 C 
ATOM     15  C   UNL     1      -1.178   0.963  24.102  0.00  0.00    +0.232 C 
ATOM     16  C   UNL     1      -3.439   0.159  23.423  0.00  0.00    +0.123 C 
ATOM     19  C   UNL     1      -2.845  -2.561  26.055  0.00  0.00    +0.105 C 
ATOM     33  H   UNL     1      -2.912   2.084  24.159  0.00  0.00    +0.149 HD
ENDROOT
BRANCH   4  17
ATOM     17  C   UNL     1       1.553  -0.072  22.735  0.00  0.00    +0.159 C 
BRANCH  17  21
ATOM      7  N   UNL     1       3.703  -1.075  23.530  0.00  0.00    -0.347 N 
ATOM      8  N   UNL     1       3.791   1.066  22.949  0.00  0.00    -0.239 NA
ATOM     21  C   UNL     1       3.017   0.010  23.061  0.00  0.00    +0.121 A 
ATOM     23  C   UNL     1       4.997  -0.686  23.731  0.00  0.00    +0.104 A 
ATOM     24  C   UNL     1       5.027   0.639  23.366  0.00  0.00    +0.130 A 
ATOM     34  H   UNL     1       3.324  -1.998  23.699  0.00  0.00    +0.167 HD
ENDBRANCH  17  21
ENDBRANCH   4  17
BRANCH  14  18
ATOM     18  C   UNL     1      -4.771  -0.329  25.467  0.00  0.00    +0.029 C 
BRANCH  18  20
ATOM     20  C   UNL     1      -5.839   0.432  24.705  0.00  0.00    +0.097 C 
BRANCH  20  22
ATOM      2  O   UNL     1      -5.109   2.450  23.584  0.00  0.00    -0.276 OA
ATOM      9  N   UNL     1      -5.732   2.561  25.819  0.00  0.00    -0.311 N 
ATOM     22  C   UNL     1      -5.514   1.912  24.612  0.00  0.00    +0.213 C 
ATOM     35  H   UNL     1      -6.052   2.029  26.623  0.00  0.00    +0.149 HD
BRANCH   9  25
ATOM     25  C   UNL     1      -5.494   3.975  25.987  0.00  0.00    +0.139 C 
BRANCH  25  26
ATOM     26  C   UNL     1      -4.083   4.353  25.636  0.00  0.00    -0.030 A 
ATOM     27  C   UNL     1      -3.023   3.895  26.419  0.00  0.00    +0.009 A 
ATOM     28  C   UNL     1      -3.834   5.162  24.528  0.00  0.00    +0.009 A 
ATOM     29  C   UNL     1      -1.713   4.247  26.093  0.00  0.00    +0.046 A 
ATOM     30  C   UNL     1      -2.524   5.513  24.202  0.00  0.00    +0.046 A 
ATOM     31  C   UNL     1      -1.464   5.056  24.984  0.00  0.00    +0.120 A 
BRANCH  31   3
ATOM      3  O   UNL     1      -0.186   5.399  24.665  0.00  0.00    -0.495 OA
ATOM     32  C   UNL     1       0.320   4.930  23.416  0.00  0.00    +0.277 C 
ENDBRANCH  31   3
ENDBRANCH  25  26
ENDBRANCH   9  25
ENDBRANCH  20  22
ENDBRANCH  18  20
ENDBRANCH  14  18
TORSDOF 8
ENDMDL
MODEL 7
REMARK VINA RESULT:       2.2      1.707      2.563
REMARK  Name = 45360937
REMARK  10 active torsions:
REMARK  status: ('A' for Active; 'I' for Inactive)
REMARK    1  A    between atoms: O_3  and  C_31
REMARK    2  A    between atoms: O_3  and  C_32
REMARK    3  A    between atoms: N_4  and  C_17
REMARK    4  A    between atoms: N_5  and  C_19
REMARK    5  A    between atoms: N_9  and  C_25
REMARK    6  A    between atoms: C_14  and  C_18
REMARK    7  A    between atoms: C_17  and  C_21
REMARK    8  A    between atoms: C_18  and  C_20
REMARK    9  A    between atoms: C_20  and  C_22
REMARK   10  A    between atoms: C_25  and  C_26
REMARK                            x       y       z     vdW  Elec       q    Type
REMARK                         _______ _______ _______ _____ _____    ______ ____
ROOT
ATOM      1  O   UNL     1      -0.655   3.124  21.944  0.00  0.00    -0.274 OA
ATOM      4  N   UNL     1       0.529   1.607  23.839  0.00  0.00    -0.283 NA
ATOM      5  N   UNL     1      -2.308   3.275  25.441  0.00  0.00    -0.296 NA
ATOM      6  N   UNL     1      -2.790   2.706  22.654  0.00  0.00    -0.312 N 
ATOM     10  C   UNL     1      -1.311   2.189  25.312  0.00  0.00    +0.084 C 
ATOM     11  C   UNL     1      -0.944   1.685  23.885  0.00  0.00    +0.161 C 
ATOM     12  C   UNL     1       0.071   2.536  25.895  0.00  0.00    +0.036 C 
ATOM     13  C   UNL     1       0.997   1.549  25.219  0.00  0.00    +0.087 C 
ATOM     14  C   UNL     1      -3.671   2.920  24.959  0.00  0.00    +0.074 C 
ATOM     15  C   UNL     1      -1.416   2.581  22.743  0.00  0.00    +0.232 C 
ATOM     16  C   UNL     1      -3.708   2.147  23.626  0.00  0.00    +0.123 C 
ATOM     19  C   UNL     1      -2.369   3.767  26.829  0.00  0.00    +0.105 C 
ATOM     33  H   UNL     1      -3.171   3.271  21.901  0.00  0.00    +0.149 HD
ENDROOT
BRANCH   4  17
ATOM     17  C   UNL     1       1.022   0.491  23.043  0.00  0.00    +0.159 C 
BRANCH  17  21
ATOM      7  N   UNL     1       3.147  -0.779  23.410  0.00  0.00    -0.347 N 
ATOM      8  N   UNL     1       3.381   1.351  22.828  0.00  0.00    -0.239 NA
ATOM     21  C   UNL     1       2.520   0.391  23.083  0.00  0.00    +0.121 A 
ATOM     23  C   UNL     1       4.493  -0.550  23.359  0.00  0.00    +0.104 A 
ATOM     24  C   UNL     1       4.613   0.770  22.999  0.00  0.00    +0.130 A 
ATOM     34  H   UNL     1       2.698  -1.655  23.645  0.00  0.00    +0.167 HD
ENDBRANCH  17  21
ENDBRANCH   4  17
BRANCH  14  18
ATOM     18  C   UNL     1      -4.529   4.191  24.781  0.00  0.00    +0.029 C 
BRANCH  18  20
ATOM     20  C   UNL     1      -5.878   4.027  25.456  0.00  0.00    +0.097 C 
BRANCH  20  22
ATOM      2  O   UNL     1      -6.342   2.292  27.079  0.00  0.00    -0.276 OA
ATOM      9  N   UNL     1      -6.010   1.702  24.857  0.00  0.00    -0.311 N 
ATOM     22  C   UNL     1      -6.106   2.598  25.913  0.00  0.00    +0.213 C 
ATOM     35  H   UNL     1      -5.793   2.046  23.927  0.00  0.00    +0.149 HD
BRANCH   9  25
ATOM     25  C   UNL     1      -6.187   0.280  25.035  0.00  0.00    +0.139 C 
BRANCH  25  26
ATOM     26  C   UNL     1      -4.885  -0.463  24.946  0.00  0.00    -0.030 A 
ATOM     27  C   UNL     1      -4.644  -1.323  23.874  0.00  0.00    +0.009 A 
ATOM     28  C   UNL     1      -3.917  -0.292  25.935  0.00  0.00    +0.009 A 
ATOM     29  C   UNL     1      -3.434  -2.013  23.792  0.00  0.00    +0.046 A 
ATOM     30  C   UNL     1      -2.707  -0.982  25.853  0.00  0.00    +0.046 A 
ATOM     31  C   UNL     1      -2.466  -1.842  24.781  0.00  0.00    +0.120 A 
BRANCH  31   3
ATOM      3  O   UNL     1      -1.286  -2.515  24.701  0.00  0.00    -0.495 OA
ATOM     32  C   UNL     1      -0.170  -1.955  25.393  0.00  0.00    +0.277 C 
ENDBRANCH  31   3
ENDBRANCH  25  26
ENDBRANCH   9  25
ENDBRANCH  20  22
ENDBRANCH  18  20
ENDBRANCH  14  18
TORSDOF 8
ENDMDL
MODEL 8
REMARK VINA RESULT:       2.4      1.991      4.581
REMARK  Name = 45360937
REMARK  10 active torsions:
REMARK  status: ('A' for Active; 'I' for Inactive)
REMARK    1  A    between atoms: O_3  and  C_31
REMARK    2  A    between atoms: O_3  and  C_32
REMARK    3  A    between atoms: N_4  and  C_17
REMARK    4  A    between atoms: N_5  and  C_19
REMARK    5  A    between atoms: N_9  and  C_25
REMARK    6  A    between atoms: C_14  and  C_18
REMARK    7  A    between atoms: C_17  and  C_21
REMARK    8  A    between atoms: C_18  and  C_20
REMARK    9  A    between atoms: C_20  and  C_22
REMARK   10  A    between atoms: C_25  and  C_26
REMARK                            x       y       z     vdW  Elec       q    Type
REMARK                         _______ _______ _______ _____ _____    ______ ____
ROOT
ATOM      1  O   UNL     1      -0.667   1.999  23.674  0.00  0.00    -0.274 OA
ATOM      4  N   UNL     1       0.415  -0.472  23.818  0.00  0.00    -0.283 NA
ATOM      5  N   UNL     1      -2.907  -0.683  25.340  0.00  0.00    -0.296 NA
ATOM      6  N   UNL     1      -2.786   1.266  23.216  0.00  0.00    -0.312 N 
ATOM     10  C   UNL     1      -1.728  -1.252  24.650  0.00  0.00    +0.084 C 
ATOM     11  C   UNL     1      -1.034  -0.403  23.545  0.00  0.00    +0.161 C 
ATOM     12  C   UNL     1      -0.552  -1.579  25.589  0.00  0.00    +0.036 C 
ATOM     13  C   UNL     1       0.638  -1.644  24.656  0.00  0.00    +0.087 C 
ATOM     14  C   UNL     1      -4.081  -0.443  24.455  0.00  0.00    +0.074 C 
ATOM     15  C   UNL     1      -1.449   1.065  23.503  0.00  0.00    +0.232 C 
ATOM     16  C   UNL     1      -3.747   0.189  23.090  0.00  0.00    +0.123 C 
ATOM     19  C   UNL     1      -3.296  -1.519  26.489  0.00  0.00    +0.105 C 
ATOM     33  H   UNL     1      -3.123   2.222  23.151  0.00  0.00    +0.149 HD
ENDROOT
BRANCH   4  17
ATOM     17  C   UNL     1       1.229  -0.496  22.610  0.00  0.00    +0.159 C 
BRANCH  17  21
ATOM      7  N   UNL     1       3.529  -1.074  23.408  0.00  0.00    -0.347 N 
ATOM      8  N   UNL     1       3.247   1.010  22.694  0.00  0.00    -0.239 NA
ATOM     21  C   UNL     1       2.662  -0.151  22.891  0.00  0.00    +0.121 A 
ATOM     23  C   UNL     1       4.742  -0.462  23.549  0.00  0.00    +0.104 A 
ATOM     24  C   UNL     1       4.544   0.822  23.103  0.00  0.00    +0.130 A 
ATOM     34  H   UNL     1       3.313  -2.034  23.642  0.00  0.00    +0.167 HD
ENDBRANCH  17  21
ENDBRANCH   4  17
BRANCH  14  18
ATOM     18  C   UNL     1      -5.104   0.477  25.154  0.00  0.00    +0.029 C 
BRANCH  18  20
ATOM     20  C   UNL     1      -5.645   1.512  24.186  0.00  0.00    +0.097 C 
BRANCH  20  22
ATOM      2  O   UNL     1      -4.458   3.323  23.102  0.00  0.00    -0.276 OA
ATOM      9  N   UNL     1      -4.372   3.141  25.416  0.00  0.00    -0.311 N 
ATOM     22  C   UNL     1      -4.768   2.751  24.144  0.00  0.00    +0.213 C 
ATOM     35  H   UNL     1      -4.664   2.595  26.221  0.00  0.00    +0.149 HD
BRANCH   9  25
ATOM     25  C   UNL     1      -3.531   4.293  25.641  0.00  0.00    +0.139 C 
BRANCH  25  26
ATOM     26  C   UNL     1      -2.124   3.901  25.991  0.00  0.00    -0.030 A 
ATOM     27  C   UNL     1      -1.048   4.555  25.391  0.00  0.00    +0.009 A 
ATOM     28  C   UNL     1      -1.895   2.882  26.915  0.00  0.00    +0.009 A 
ATOM     29  C   UNL     1       0.259   4.190  25.716  0.00  0.00    +0.046 A 
ATOM     30  C   UNL     1      -0.588   2.517  27.240  0.00  0.00    +0.046 A 
ATOM     31  C   UNL     1       0.488   3.171  26.640  0.00  0.00    +0.120 A 
BRANCH  31   3
ATOM      3  O   UNL     1       1.763   2.815  26.958  0.00  0.00    -0.495 OA
ATOM     32  C   UNL     1       2.117   2.832  28.340  0.00  0.00    +0.277 C 
ENDBRANCH  31   3
ENDBRANCH  25  26
ENDBRANCH   9  25
ENDBRANCH  20  22
ENDBRANCH  18  20
ENDBRANCH  14  18
TORSDOF 8
ENDMDL
MODEL 9
REMARK VINA RESULT:       3.7      2.039      5.652
REMARK  Name = 45360937
REMARK  10 active torsions:
REMARK  status: ('A' for Active; 'I' for Inactive)
REMARK    1  A    between atoms: O_3  and  C_31
REMARK    2  A    between atoms: O_3  and  C_32
REMARK    3  A    between atoms: N_4  and  C_17
REMARK    4  A    between atoms: N_5  and  C_19
REMARK    5  A    between atoms: N_9  and  C_25
REMARK    6  A    between atoms: C_14  and  C_18
REMARK    7  A    between atoms: C_17  and  C_21
REMARK    8  A    between atoms: C_18  and  C_20
REMARK    9  A    between atoms: C_20  and  C_22
REMARK   10  A    between atoms: C_25  and  C_26
REMARK                            x       y       z     vdW  Elec       q    Type
REMARK                         _______ _______ _______ _____ _____    ______ ____
ROOT
ATOM      1  O   UNL     1      -3.181   3.114  22.271  0.00  0.00    -0.274 OA
ATOM      4  N   UNL     1      -3.495   4.331  24.661  0.00  0.00    -0.283 NA
ATOM      5  N   UNL     1      -5.256   1.130  24.868  0.00  0.00    -0.296 NA
ATOM      6  N   UNL     1      -2.945   1.011  23.143  0.00  0.00    -0.312 N 
ATOM     10  C   UNL     1      -4.547   2.290  25.450  0.00  0.00    +0.084 C 
ATOM     11  C   UNL     1      -3.317   2.866  24.687  0.00  0.00    +0.161 C 
ATOM     12  C   UNL     1      -5.430   3.540  25.623  0.00  0.00    +0.036 C 
ATOM     13  C   UNL     1      -4.428   4.668  25.730  0.00  0.00    +0.087 C 
ATOM     14  C   UNL     1      -4.435  -0.110  24.774  0.00  0.00    +0.074 C 
ATOM     15  C   UNL     1      -3.158   2.373  23.252  0.00  0.00    +0.232 C 
ATOM     16  C   UNL     1      -2.994   0.102  24.271  0.00  0.00    +0.123 C 
ATOM     19  C   UNL     1      -6.507   0.859  25.598  0.00  0.00    +0.105 C 
ATOM     33  H   UNL     1      -2.809   0.621  22.216  0.00  0.00    +0.149 HD
ENDROOT
BRANCH   4  17
ATOM     17  C   UNL     1      -2.241   5.066  24.772  0.00  0.00    +0.159 C 
BRANCH  17  21
ATOM      7  N   UNL     1      -0.950   3.473  26.207  0.00  0.00    -0.347 N 
ATOM      8  N   UNL     1      -0.080   3.899  24.208  0.00  0.00    -0.239 NA
ATOM     21  C   UNL     1      -1.076   4.154  25.028  0.00  0.00    +0.121 A 
ATOM     23  C   UNL     1       0.199   2.738  26.134  0.00  0.00    +0.104 A 
ATOM     24  C   UNL     1       0.719   3.017  24.893  0.00  0.00    +0.130 A 
ATOM     34  H   UNL     1      -1.590   3.506  26.990  0.00  0.00    +0.167 HD
ENDBRANCH  17  21
ENDBRANCH   4  17
BRANCH  14  18
ATOM     18  C   UNL     1      -5.108  -1.133  23.835  0.00  0.00    +0.029 C 
BRANCH  18  20
ATOM     20  C   UNL     1      -4.328  -2.434  23.810  0.00  0.00    +0.097 C 
BRANCH  20  22
ATOM      2  O   UNL     1      -3.385  -2.585  26.035  0.00  0.00    -0.276 OA
ATOM      9  N   UNL     1      -1.968  -2.235  24.229  0.00  0.00    -0.311 N 
ATOM     22  C   UNL     1      -3.204  -2.432  24.830  0.00  0.00    +0.213 C 
ATOM     35  H   UNL     1      -1.916  -2.099  23.224  0.00  0.00    +0.149 HD
BRANCH   9  25
ATOM     25  C   UNL     1      -0.741  -2.191  24.988  0.00  0.00    +0.139 C 
BRANCH  25  26
ATOM     26  C   UNL     1       0.340  -1.440  24.265  0.00  0.00    -0.030 A 
ATOM     27  C   UNL     1       0.014  -0.344  23.466  0.00  0.00    +0.009 A 
ATOM     28  C   UNL     1       1.670  -1.840  24.392  0.00  0.00    +0.009 A 
ATOM     29  C   UNL     1       1.019   0.353  22.795  0.00  0.00    +0.046 A 
ATOM     30  C   UNL     1       2.675  -1.143  23.721  0.00  0.00    +0.046 A 
ATOM     31  C   UNL     1       2.349  -0.047  22.922  0.00  0.00    +0.120 A 
BRANCH  31   3
ATOM      3  O   UNL     1       3.329   0.633  22.267  0.00  0.00    -0.495 OA
ATOM     32  C   UNL     1       4.609   0.694  22.896  0.00  0.00    +0.277 C 
ENDBRANCH  31   3
ENDBRANCH  25  26
ENDBRANCH   9  25
ENDBRANCH  20  22
ENDBRANCH  18  20
ENDBRANCH  14  18
TORSDOF 8
ENDMDL
