MODEL 1
REMARK VINA RESULT:      -5.1      0.000      0.000
REMARK  Name = 71694015
REMARK  7 active torsions:
REMARK  status: ('A' for Active; 'I' for Inactive)
REMARK    1  A    between atoms: S_1  and  N_9
REMARK    2  A    between atoms: S_1  and  C_18
REMARK    3  A    between atoms: O_5  and  C_12
REMARK    4  A    between atoms: O_6  and  C_14
REMARK    5  A    between atoms: N_9  and  C_10
REMARK    6  A    between atoms: C_11  and  C_15
REMARK    7  A    between atoms: C_26  and  C_27
REMARK                            x       y       z     vdW  Elec       q    Type
REMARK                         _______ _______ _______ _____ _____    ______ ____
ROOT
ATOM      9  N   UNL     1      -3.131   3.016  24.483  0.00  0.00    -0.184 NA
ATOM     28  H   UNL     1      -3.351   3.404  23.558  0.00  0.00    +0.148 HD
ENDROOT
BRANCH   9  10
ATOM     10  C   UNL     1      -4.234   2.385  25.245  0.00  0.00    +0.115 C 
ATOM     11  C   UNL     1      -4.888   1.265  24.409  0.00  0.00    +0.043 C 
ATOM     12  C   UNL     1      -5.366   3.386  25.455  0.00  0.00    +0.162 C 
ATOM     13  C   UNL     1      -6.410   1.368  24.686  0.00  0.00    +0.043 C 
ATOM     14  C   UNL     1      -6.573   2.492  25.709  0.00  0.00    +0.145 C 
BRANCH  11  15
ATOM     15  C   UNL     1      -4.297  -0.102  24.685  0.00  0.00    -0.043 A 
ATOM     16  C   UNL     1      -3.641  -0.346  25.892  0.00  0.00    +0.004 A 
ATOM     17  C   UNL     1      -4.408  -1.115  23.734  0.00  0.00    +0.004 A 
ATOM     19  C   UNL     1      -3.097  -1.605  26.148  0.00  0.00    +0.000 A 
ATOM     20  C   UNL     1      -3.864  -2.373  23.988  0.00  0.00    +0.000 A 
ATOM     21  C   UNL     1      -3.207  -2.618  25.195  0.00  0.00    +0.000 A 
ENDBRANCH  11  15
BRANCH  12   5
ATOM      5  O   UNL     1      -5.124   4.244  26.554  0.00  0.00    -0.388 OA
ATOM     29  H   UNL     1      -5.987   4.503  26.919  0.00  0.00    +0.210 HD
ENDBRANCH  12   5
BRANCH  14   6
ATOM      6  O   UNL     1      -6.525   1.929  27.016  0.00  0.00    -0.389 OA
ATOM     30  H   UNL     1      -7.416   1.602  27.226  0.00  0.00    +0.210 HD
ENDBRANCH  14   6
ENDBRANCH   9  10
BRANCH   9   1
ATOM      1  S   UNL     1      -1.684   3.428  25.271  0.00  0.00    +0.059 S 
ATOM      7  O   UNL     1      -1.753   3.004  26.657  0.00  0.00    -0.153 OA
ATOM      8  O   UNL     1      -1.347   4.800  24.943  0.00  0.00    -0.153 OA
BRANCH   1  18
ATOM     18  C   UNL     1      -0.513   2.396  24.444  0.00  0.00    +0.105 A 
ATOM     22  C   UNL     1      -0.858   1.091  24.094  0.00  0.00    +0.029 A 
ATOM     23  C   UNL     1       0.758   2.886  24.142  0.00  0.00    +0.029 A 
ATOM     24  C   UNL     1       0.066   0.275  23.442  0.00  0.00    +0.014 A 
ATOM     25  C   UNL     1       1.683   2.070  23.489  0.00  0.00    +0.014 A 
ATOM     26  C   UNL     1       1.336   0.765  23.139  0.00  0.00    +0.055 A 
BRANCH  26  27
ATOM      2  F   UNL     1       1.809  -0.692  21.321  0.00  0.00    -0.166 F 
ATOM      3  F   UNL     1       3.443   0.558  22.025  0.00  0.00    -0.166 F 
ATOM      4  F   UNL     1       2.789  -1.135  23.212  0.00  0.00    -0.166 F 
ATOM     27  C   UNL     1       2.326  -0.107  22.441  0.00  0.00    +0.417 C 
ENDBRANCH  26  27
ENDBRANCH   1  18
ENDBRANCH   9   1
TORSDOF 7
ENDMDL
MODEL 2
REMARK VINA RESULT:      -4.9      2.767      5.213
REMARK  Name = 71694015
REMARK  7 active torsions:
REMARK  status: ('A' for Active; 'I' for Inactive)
REMARK    1  A    between atoms: S_1  and  N_9
REMARK    2  A    between atoms: S_1  and  C_18
REMARK    3  A    between atoms: O_5  and  C_12
REMARK    4  A    between atoms: O_6  and  C_14
REMARK    5  A    between atoms: N_9  and  C_10
REMARK    6  A    between atoms: C_11  and  C_15
REMARK    7  A    between atoms: C_26  and  C_27
REMARK                            x       y       z     vdW  Elec       q    Type
REMARK                         _______ _______ _______ _____ _____    ______ ____
ROOT
ATOM      9  N   UNL     1      -3.285   3.463  25.961  0.00  0.00    -0.184 NA
ATOM     28  H   UNL     1      -3.308   3.877  26.901  0.00  0.00    +0.148 HD
ENDROOT
BRANCH   9  10
ATOM     10  C   UNL     1      -2.056   3.655  25.155  0.00  0.00    +0.115 C 
ATOM     11  C   UNL     1      -0.865   2.933  25.818  0.00  0.00    +0.043 C 
ATOM     12  C   UNL     1      -1.644   5.123  25.170  0.00  0.00    +0.162 C 
ATOM     13  C   UNL     1       0.353   3.876  25.632  0.00  0.00    +0.043 C 
ATOM     14  C   UNL     1      -0.161   5.067  24.824  0.00  0.00    +0.145 C 
BRANCH  11  15
ATOM     15  C   UNL     1      -0.652   1.531  25.286  0.00  0.00    -0.043 A 
ATOM     16  C   UNL     1      -0.192   1.342  23.983  0.00  0.00    +0.004 A 
ATOM     17  C   UNL     1      -0.916   0.430  26.100  0.00  0.00    +0.004 A 
ATOM     19  C   UNL     1       0.004   0.051  23.493  0.00  0.00    +0.000 A 
ATOM     20  C   UNL     1      -0.720  -0.861  25.611  0.00  0.00    +0.000 A 
ATOM     21  C   UNL     1      -0.260  -1.051  24.307  0.00  0.00    +0.000 A 
ENDBRANCH  11  15
BRANCH  12   5
ATOM      5  O   UNL     1      -2.362   5.891  24.223  0.00  0.00    -0.388 OA
ATOM     29  H   UNL     1      -2.459   5.350  23.421  0.00  0.00    +0.210 HD
ENDBRANCH  12   5
BRANCH  14   6
ATOM      6  O   UNL     1       0.029   4.794  23.439  0.00  0.00    -0.389 OA
ATOM     30  H   UNL     1       0.937   4.462  23.329  0.00  0.00    +0.210 HD
ENDBRANCH  14   6
ENDBRANCH   9  10
BRANCH   9   1
ATOM      1  S   UNL     1      -4.715   2.935  25.213  0.00  0.00    +0.059 S 
ATOM      7  O   UNL     1      -4.851   3.581  23.921  0.00  0.00    -0.153 OA
ATOM      8  O   UNL     1      -5.798   2.996  26.177  0.00  0.00    -0.153 OA
BRANCH   1  18
ATOM     18  C   UNL     1      -4.370   1.225  24.932  0.00  0.00    +0.105 A 
ATOM     22  C   UNL     1      -4.493   0.309  25.977  0.00  0.00    +0.029 A 
ATOM     23  C   UNL     1      -3.973   0.791  23.667  0.00  0.00    +0.029 A 
ATOM     24  C   UNL     1      -4.219  -1.041  25.757  0.00  0.00    +0.014 A 
ATOM     25  C   UNL     1      -3.700  -0.559  23.447  0.00  0.00    +0.014 A 
ATOM     26  C   UNL     1      -3.823  -1.475  24.492  0.00  0.00    +0.055 A 
BRANCH  26  27
ATOM      2  F   UNL     1      -4.469  -3.521  23.467  0.00  0.00    -0.166 F 
ATOM      3  F   UNL     1      -2.334  -3.142  23.638  0.00  0.00    -0.166 F 
ATOM      4  F   UNL     1      -3.485  -3.662  25.401  0.00  0.00    -0.166 F 
ATOM     27  C   UNL     1      -3.531  -2.919  24.256  0.00  0.00    +0.417 C 
ENDBRANCH  26  27
ENDBRANCH   1  18
ENDBRANCH   9   1
TORSDOF 7
ENDMDL
MODEL 3
REMARK VINA RESULT:      -3.2      2.266      4.014
REMARK  Name = 71694015
REMARK  7 active torsions:
REMARK  status: ('A' for Active; 'I' for Inactive)
REMARK    1  A    between atoms: S_1  and  N_9
REMARK    2  A    between atoms: S_1  and  C_18
REMARK    3  A    between atoms: O_5  and  C_12
REMARK    4  A    between atoms: O_6  and  C_14
REMARK    5  A    between atoms: N_9  and  C_10
REMARK    6  A    between atoms: C_11  and  C_15
REMARK    7  A    between atoms: C_26  and  C_27
REMARK                            x       y       z     vdW  Elec       q    Type
REMARK                         _______ _______ _______ _____ _____    ______ ____
ROOT
ATOM      9  N   UNL     1      -3.947   0.375  25.950  0.00  0.00    -0.184 NA
ATOM     28  H   UNL     1      -4.187   0.213  26.936  0.00  0.00    +0.148 HD
ENDROOT
BRANCH   9  10
ATOM     10  C   UNL     1      -4.143   1.740  25.408  0.00  0.00    +0.115 C 
ATOM     11  C   UNL     1      -3.369   2.768  26.259  0.00  0.00    +0.043 C 
ATOM     12  C   UNL     1      -5.601   2.162  25.568  0.00  0.00    +0.162 C 
ATOM     13  C   UNL     1      -4.291   4.012  26.356  0.00  0.00    +0.043 C 
ATOM     14  C   UNL     1      -5.525   3.683  25.516  0.00  0.00    +0.145 C 
BRANCH  11  15
ATOM     15  C   UNL     1      -1.985   3.061  25.719  0.00  0.00    -0.043 A 
ATOM     16  C   UNL     1      -1.799   4.094  24.800  0.00  0.00    +0.004 A 
ATOM     17  C   UNL     1      -0.897   2.298  26.140  0.00  0.00    +0.004 A 
ATOM     19  C   UNL     1      -0.525   4.364  24.303  0.00  0.00    +0.000 A 
ATOM     20  C   UNL     1       0.378   2.567  25.643  0.00  0.00    +0.000 A 
ATOM     21  C   UNL     1       0.564   3.600  24.724  0.00  0.00    +0.000 A 
ENDBRANCH  11  15
BRANCH  12   5
ATOM      5  O   UNL     1      -6.422   1.655  24.533  0.00  0.00    -0.388 OA
ATOM     29  H   UNL     1      -7.087   2.333  24.329  0.00  0.00    +0.210 HD
ENDBRANCH  12   5
BRANCH  14   6
ATOM      6  O   UNL     1      -5.303   4.137  24.184  0.00  0.00    -0.389 OA
ATOM     30  H   UNL     1      -4.504   3.693  23.853  0.00  0.00    +0.210 HD
ENDBRANCH  14   6
ENDBRANCH   9  10
BRANCH   9   1
ATOM      1  S   UNL     1      -3.722  -0.933  24.890  0.00  0.00    +0.059 S 
ATOM      7  O   UNL     1      -4.635  -0.808  23.769  0.00  0.00    -0.153 OA
ATOM      8  O   UNL     1      -3.679  -2.160  25.663  0.00  0.00    -0.153 OA
BRANCH   1  18
ATOM     18  C   UNL     1      -2.085  -0.641  24.293  0.00  0.00    +0.105 A 
ATOM     22  C   UNL     1      -1.025  -1.419  24.758  0.00  0.00    +0.029 A 
ATOM     23  C   UNL     1      -1.852   0.369  23.360  0.00  0.00    +0.029 A 
ATOM     24  C   UNL     1       0.269  -1.189  24.289  0.00  0.00    +0.014 A 
ATOM     25  C   UNL     1      -0.559   0.599  22.889  0.00  0.00    +0.014 A 
ATOM     26  C   UNL     1       0.501  -0.180  23.355  0.00  0.00    +0.055 A 
BRANCH  26  27
ATOM      2  F   UNL     1       1.969  -0.015  21.491  0.00  0.00    -0.166 F 
ATOM      3  F   UNL     1       2.373   1.299  23.176  0.00  0.00    -0.166 F 
ATOM      4  F   UNL     1       2.807  -0.820  23.331  0.00  0.00    -0.166 F 
ATOM     27  C   UNL     1       1.884   0.066  22.851  0.00  0.00    +0.417 C 
ENDBRANCH  26  27
ENDBRANCH   1  18
ENDBRANCH   9   1
TORSDOF 7
ENDMDL
MODEL 4
REMARK VINA RESULT:      -3.2     18.531     19.862
REMARK  Name = 71694015
REMARK  7 active torsions:
REMARK  status: ('A' for Active; 'I' for Inactive)
REMARK    1  A    between atoms: S_1  and  N_9
REMARK    2  A    between atoms: S_1  and  C_18
REMARK    3  A    between atoms: O_5  and  C_12
REMARK    4  A    between atoms: O_6  and  C_14
REMARK    5  A    between atoms: N_9  and  C_10
REMARK    6  A    between atoms: C_11  and  C_15
REMARK    7  A    between atoms: C_26  and  C_27
REMARK                            x       y       z     vdW  Elec       q    Type
REMARK                         _______ _______ _______ _____ _____    ______ ____
ROOT
ATOM      9  N   UNL     1      15.165  -6.807  27.209  0.00  0.00    -0.184 NA
ATOM     28  H   UNL     1      14.479  -6.073  26.996  0.00  0.00    +0.148 HD
ENDROOT
BRANCH   9  10
ATOM     10  C   UNL     1      14.717  -7.949  28.040  0.00  0.00    +0.115 C 
ATOM     11  C   UNL     1      15.137  -7.737  29.509  0.00  0.00    +0.043 C 
ATOM     12  C   UNL     1      15.459  -9.217  27.631  0.00  0.00    +0.162 C 
ATOM     13  C   UNL     1      15.576  -9.132  30.026  0.00  0.00    +0.043 C 
ATOM     14  C   UNL     1      15.337 -10.100  28.867  0.00  0.00    +0.145 C 
BRANCH  11  15
ATOM     15  C   UNL     1      14.060  -7.075  30.343  0.00  0.00    -0.043 A 
ATOM     16  C   UNL     1      12.866  -7.749  30.602  0.00  0.00    +0.004 A 
ATOM     17  C   UNL     1      14.262  -5.793  30.852  0.00  0.00    +0.004 A 
ATOM     19  C   UNL     1      11.874  -7.140  31.370  0.00  0.00    +0.000 A 
ATOM     20  C   UNL     1      13.270  -5.183  31.620  0.00  0.00    +0.000 A 
ATOM     21  C   UNL     1      12.076  -5.857  31.879  0.00  0.00    +0.000 A 
ENDBRANCH  11  15
BRANCH  12   5
ATOM      5  O   UNL     1      14.876  -9.837  26.500  0.00  0.00    -0.388 OA
ATOM     29  H   UNL     1      14.323 -10.570  26.821  0.00  0.00    +0.210 HD
ENDBRANCH  12   5
BRANCH  14   6
ATOM      6  O   UNL     1      14.022 -10.635  28.984  0.00  0.00    -0.389 OA
ATOM     30  H   UNL     1      13.801 -10.661  29.931  0.00  0.00    +0.210 HD
ENDBRANCH  14   6
ENDBRANCH   9  10
BRANCH   9   1
ATOM      1  S   UNL     1      16.824  -6.535  26.968  0.00  0.00    +0.059 S 
ATOM      7  O   UNL     1      17.405  -7.674  26.282  0.00  0.00    -0.153 OA
ATOM      8  O   UNL     1      17.405  -6.056  28.208  0.00  0.00    -0.153 OA
BRANCH   1  18
ATOM     18  C   UNL     1      16.810  -5.172  25.844  0.00  0.00    +0.105 A 
ATOM     22  C   UNL     1      16.475  -5.376  24.505  0.00  0.00    +0.029 A 
ATOM     23  C   UNL     1      17.135  -3.892  26.294  0.00  0.00    +0.029 A 
ATOM     24  C   UNL     1      16.465  -4.301  23.616  0.00  0.00    +0.014 A 
ATOM     25  C   UNL     1      17.124  -2.817  25.405  0.00  0.00    +0.014 A 
ATOM     26  C   UNL     1      16.789  -3.022  24.067  0.00  0.00    +0.055 A 
BRANCH  26  27
ATOM      2  F   UNL     1      17.397  -0.766  23.624  0.00  0.00    -0.166 F 
ATOM      3  F   UNL     1      17.405  -2.132  21.933  0.00  0.00    -0.166 F 
ATOM      4  F   UNL     1      15.521  -1.460  22.771  0.00  0.00    -0.166 F 
ATOM     27  C   UNL     1      16.777  -1.871  23.117  0.00  0.00    +0.417 C 
ENDBRANCH  26  27
ENDBRANCH   1  18
ENDBRANCH   9   1
TORSDOF 7
ENDMDL
MODEL 5
REMARK VINA RESULT:      -3.0      4.213      6.951
REMARK  Name = 71694015
REMARK  7 active torsions:
REMARK  status: ('A' for Active; 'I' for Inactive)
REMARK    1  A    between atoms: S_1  and  N_9
REMARK    2  A    between atoms: S_1  and  C_18
REMARK    3  A    between atoms: O_5  and  C_12
REMARK    4  A    between atoms: O_6  and  C_14
REMARK    5  A    between atoms: N_9  and  C_10
REMARK    6  A    between atoms: C_11  and  C_15
REMARK    7  A    between atoms: C_26  and  C_27
REMARK                            x       y       z     vdW  Elec       q    Type
REMARK                         _______ _______ _______ _____ _____    ______ ____
ROOT
ATOM      9  N   UNL     1       0.083   2.124  23.559  0.00  0.00    -0.184 NA
ATOM     28  H   UNL     1      -0.161   2.169  22.562  0.00  0.00    +0.148 HD
ENDROOT
BRANCH   9  10
ATOM     10  C   UNL     1       0.352   0.788  24.142  0.00  0.00    +0.115 C 
ATOM     11  C   UNL     1       1.025  -0.125  23.095  0.00  0.00    +0.043 C 
ATOM     12  C   UNL     1      -0.962   0.077  24.450  0.00  0.00    +0.162 C 
ATOM     13  C   UNL     1       0.398  -1.529  23.298  0.00  0.00    +0.043 C 
ATOM     14  C   UNL     1      -0.558  -1.392  24.482  0.00  0.00    +0.145 C 
BRANCH  11  15
ATOM     15  C   UNL     1       2.537  -0.101  23.175  0.00  0.00    -0.043 A 
ATOM     16  C   UNL     1       3.227  -1.207  23.671  0.00  0.00    +0.004 A 
ATOM     17  C   UNL     1       3.239   1.027  22.751  0.00  0.00    +0.004 A 
ATOM     19  C   UNL     1       4.620  -1.185  23.743  0.00  0.00    +0.000 A 
ATOM     20  C   UNL     1       4.632   1.050  22.823  0.00  0.00    +0.000 A 
ATOM     21  C   UNL     1       5.322  -0.057  23.320  0.00  0.00    +0.000 A 
ENDBRANCH  11  15
BRANCH  12   5
ATOM      5  O   UNL     1      -1.513   0.484  25.688  0.00  0.00    -0.388 OA
ATOM     29  H   UNL     1      -2.331   0.975  25.497  0.00  0.00    +0.210 HD
ENDBRANCH  12   5
BRANCH  14   6
ATOM      6  O   UNL     1       0.150  -1.700  25.679  0.00  0.00    -0.389 OA
ATOM     30  H   UNL     1      -0.471  -2.146  26.279  0.00  0.00    +0.210 HD
ENDBRANCH  14   6
ENDBRANCH   9  10
BRANCH   9   1
ATOM      1  S   UNL     1      -0.200   3.451  24.580  0.00  0.00    +0.059 S 
ATOM      7  O   UNL     1       0.028   4.682  23.846  0.00  0.00    -0.153 OA
ATOM      8  O   UNL     1       0.473   3.221  25.844  0.00  0.00    -0.153 OA
BRANCH   1  18
ATOM     18  C   UNL     1      -1.934   3.312  24.886  0.00  0.00    +0.105 A 
ATOM     22  C   UNL     1      -2.470   3.779  26.087  0.00  0.00    +0.029 A 
ATOM     23  C   UNL     1      -2.768   2.735  23.929  0.00  0.00    +0.029 A 
ATOM     24  C   UNL     1      -3.838   3.669  26.331  0.00  0.00    +0.014 A 
ATOM     25  C   UNL     1      -4.137   2.626  24.171  0.00  0.00    +0.014 A 
ATOM     26  C   UNL     1      -4.672   3.093  25.373  0.00  0.00    +0.055 A 
BRANCH  26  27
ATOM      2  F   UNL     1      -6.760   4.190  25.676  0.00  0.00    -0.166 F 
ATOM      3  F   UNL     1      -6.805   2.255  24.684  0.00  0.00    -0.166 F 
ATOM      4  F   UNL     1      -6.436   2.367  26.818  0.00  0.00    -0.166 F 
ATOM     27  C   UNL     1      -6.137   2.975  25.632  0.00  0.00    +0.417 C 
ENDBRANCH  26  27
ENDBRANCH   1  18
ENDBRANCH   9   1
TORSDOF 7
ENDMDL
MODEL 6
REMARK VINA RESULT:      -2.6      4.427      7.288
REMARK  Name = 71694015
REMARK  7 active torsions:
REMARK  status: ('A' for Active; 'I' for Inactive)
REMARK    1  A    between atoms: S_1  and  N_9
REMARK    2  A    between atoms: S_1  and  C_18
REMARK    3  A    between atoms: O_5  and  C_12
REMARK    4  A    between atoms: O_6  and  C_14
REMARK    5  A    between atoms: N_9  and  C_10
REMARK    6  A    between atoms: C_11  and  C_15
REMARK    7  A    between atoms: C_26  and  C_27
REMARK                            x       y       z     vdW  Elec       q    Type
REMARK                         _______ _______ _______ _____ _____    ______ ____
ROOT
ATOM      9  N   UNL     1      -0.027  -0.965  23.241  0.00  0.00    -0.184 NA
ATOM     28  H   UNL     1      -0.087  -1.239  22.252  0.00  0.00    +0.148 HD
ENDROOT
BRANCH   9  10
ATOM     10  C   UNL     1       1.112  -0.110  23.650  0.00  0.00    +0.115 C 
ATOM     11  C   UNL     1       0.874   1.347  23.202  0.00  0.00    +0.043 C 
ATOM     12  C   UNL     1       2.372  -0.520  22.895  0.00  0.00    +0.162 C 
ATOM     13  C   UNL     1       2.255   1.871  22.728  0.00  0.00    +0.043 C 
ATOM     14  C   UNL     1       3.241   0.730  22.974  0.00  0.00    +0.145 C 
BRANCH  11  15
ATOM     15  C   UNL     1       0.221   2.196  24.273  0.00  0.00    -0.043 A 
ATOM     16  C   UNL     1      -0.370   3.413  23.933  0.00  0.00    +0.004 A 
ATOM     17  C   UNL     1       0.209   1.760  25.597  0.00  0.00    +0.004 A 
ATOM     19  C   UNL     1      -0.972   4.195  24.919  0.00  0.00    +0.000 A 
ATOM     20  C   UNL     1      -0.393   2.541  26.583  0.00  0.00    +0.000 A 
ATOM     21  C   UNL     1      -0.983   3.760  26.244  0.00  0.00    +0.000 A 
ENDBRANCH  11  15
BRANCH  12   5
ATOM      5  O   UNL     1       3.017  -1.630  23.491  0.00  0.00    -0.388 OA
ATOM     29  H   UNL     1       2.724  -1.675  24.417  0.00  0.00    +0.210 HD
ENDBRANCH  12   5
BRANCH  14   6
ATOM      6  O   UNL     1       3.798   0.882  24.276  0.00  0.00    -0.389 OA
ATOM     30  H   UNL     1       4.514   1.537  24.212  0.00  0.00    +0.210 HD
ENDBRANCH  14   6
ENDBRANCH   9  10
BRANCH   9   1
ATOM      1  S   UNL     1      -0.948  -1.771  24.418  0.00  0.00    +0.059 S 
ATOM      7  O   UNL     1      -0.209  -1.808  25.666  0.00  0.00    -0.153 OA
ATOM      8  O   UNL     1      -1.474  -2.995  23.845  0.00  0.00    -0.153 OA
BRANCH   1  18
ATOM     18  C   UNL     1      -2.314  -0.670  24.628  0.00  0.00    +0.105 A 
ATOM     22  C   UNL     1      -2.456   0.433  23.786  0.00  0.00    +0.029 A 
ATOM     23  C   UNL     1      -3.250  -0.903  25.635  0.00  0.00    +0.029 A 
ATOM     24  C   UNL     1      -3.533   1.303  23.951  0.00  0.00    +0.014 A 
ATOM     25  C   UNL     1      -4.329  -0.034  25.800  0.00  0.00    +0.014 A 
ATOM     26  C   UNL     1      -4.470   1.069  24.958  0.00  0.00    +0.055 A 
BRANCH  26  27
ATOM      2  F   UNL     1      -5.352   3.261  24.689  0.00  0.00    -0.166 F 
ATOM      3  F   UNL     1      -6.748   1.609  24.466  0.00  0.00    -0.166 F 
ATOM      4  F   UNL     1      -6.014   2.145  26.435  0.00  0.00    -0.166 F 
ATOM     27  C   UNL     1      -5.623   1.999  25.134  0.00  0.00    +0.417 C 
ENDBRANCH  26  27
ENDBRANCH   1  18
ENDBRANCH   9   1
TORSDOF 7
ENDMDL
MODEL 7
REMARK VINA RESULT:      -2.5      4.128      5.443
REMARK  Name = 71694015
REMARK  7 active torsions:
REMARK  status: ('A' for Active; 'I' for Inactive)
REMARK    1  A    between atoms: S_1  and  N_9
REMARK    2  A    between atoms: S_1  and  C_18
REMARK    3  A    between atoms: O_5  and  C_12
REMARK    4  A    between atoms: O_6  and  C_14
REMARK    5  A    between atoms: N_9  and  C_10
REMARK    6  A    between atoms: C_11  and  C_15
REMARK    7  A    between atoms: C_26  and  C_27
REMARK                            x       y       z     vdW  Elec       q    Type
REMARK                         _______ _______ _______ _____ _____    ______ ____
ROOT
ATOM      9  N   UNL     1      -0.383  -1.022  24.662  0.00  0.00    -0.184 NA
ATOM     28  H   UNL     1       0.079  -1.561  25.405  0.00  0.00    +0.148 HD
ENDROOT
BRANCH   9  10
ATOM     10  C   UNL     1      -1.783  -1.371  24.327  0.00  0.00    +0.115 C 
ATOM     11  C   UNL     1      -2.754  -0.696  25.318  0.00  0.00    +0.043 C 
ATOM     12  C   UNL     1      -2.018  -2.862  24.547  0.00  0.00    +0.162 C 
ATOM     13  C   UNL     1      -3.863  -1.743  25.597  0.00  0.00    +0.043 C 
ATOM     14  C   UNL     1      -3.530  -2.949  24.719  0.00  0.00    +0.145 C 
BRANCH  11  15
ATOM     15  C   UNL     1      -3.269   0.640  24.826  0.00  0.00    -0.043 A 
ATOM     16  C   UNL     1      -3.259   0.931  23.461  0.00  0.00    +0.004 A 
ATOM     17  C   UNL     1      -3.754   1.578  25.735  0.00  0.00    +0.004 A 
ATOM     19  C   UNL     1      -3.733   2.161  23.007  0.00  0.00    +0.000 A 
ATOM     20  C   UNL     1      -4.229   2.809  25.282  0.00  0.00    +0.000 A 
ATOM     21  C   UNL     1      -4.218   3.100  23.917  0.00  0.00    +0.000 A 
ENDBRANCH  11  15
BRANCH  12   5
ATOM      5  O   UNL     1      -1.582  -3.641  23.450  0.00  0.00    -0.388 OA
ATOM     29  H   UNL     1      -2.024  -4.505  23.511  0.00  0.00    +0.210 HD
ENDBRANCH  12   5
BRANCH  14   6
ATOM      6  O   UNL     1      -4.194  -2.799  23.468  0.00  0.00    -0.389 OA
ATOM     30  H   UNL     1      -4.524  -3.675  23.206  0.00  0.00    +0.210 HD
ENDBRANCH  14   6
ENDBRANCH   9  10
BRANCH   9   1
ATOM      1  S   UNL     1       0.528  -0.058  23.601  0.00  0.00    +0.059 S 
ATOM      7  O   UNL     1       0.119  -0.326  22.235  0.00  0.00    -0.153 OA
ATOM      8  O   UNL     1       1.927  -0.145  23.973  0.00  0.00    -0.153 OA
BRANCH   1  18
ATOM     18  C   UNL     1      -0.019   1.567  24.024  0.00  0.00    +0.105 A 
ATOM     22  C   UNL     1      -0.125   1.940  25.364  0.00  0.00    +0.029 A 
ATOM     23  C   UNL     1      -0.346   2.478  23.020  0.00  0.00    +0.029 A 
ATOM     24  C   UNL     1      -0.558   3.222  25.701  0.00  0.00    +0.014 A 
ATOM     25  C   UNL     1      -0.778   3.761  23.355  0.00  0.00    +0.014 A 
ATOM     26  C   UNL     1      -0.884   4.133  24.696  0.00  0.00    +0.055 A 
BRANCH  26  27
ATOM      2  F   UNL     1      -2.062   5.531  26.216  0.00  0.00    -0.166 F 
ATOM      3  F   UNL     1      -0.327   6.397  25.233  0.00  0.00    -0.166 F 
ATOM      4  F   UNL     1      -2.156   6.074  24.112  0.00  0.00    -0.166 F 
ATOM     27  C   UNL     1      -1.346   5.506  25.054  0.00  0.00    +0.417 C 
ENDBRANCH  26  27
ENDBRANCH   1  18
ENDBRANCH   9   1
TORSDOF 7
ENDMDL
MODEL 8
REMARK VINA RESULT:      -2.4      4.070      6.205
REMARK  Name = 71694015
REMARK  7 active torsions:
REMARK  status: ('A' for Active; 'I' for Inactive)
REMARK    1  A    between atoms: S_1  and  N_9
REMARK    2  A    between atoms: S_1  and  C_18
REMARK    3  A    between atoms: O_5  and  C_12
REMARK    4  A    between atoms: O_6  and  C_14
REMARK    5  A    between atoms: N_9  and  C_10
REMARK    6  A    between atoms: C_11  and  C_15
REMARK    7  A    between atoms: C_26  and  C_27
REMARK                            x       y       z     vdW  Elec       q    Type
REMARK                         _______ _______ _______ _____ _____    ______ ____
ROOT
ATOM      9  N   UNL     1       0.371   2.318  25.040  0.00  0.00    -0.184 NA
ATOM     28  H   UNL     1       1.037   2.255  25.819  0.00  0.00    +0.148 HD
ENDROOT
BRANCH   9  10
ATOM     10  C   UNL     1       0.309   1.180  24.093  0.00  0.00    +0.115 C 
ATOM     11  C   UNL     1      -0.199  -0.086  24.813  0.00  0.00    +0.043 C 
ATOM     12  C   UNL     1       1.714   0.799  23.640  0.00  0.00    +0.162 C 
ATOM     13  C   UNL     1       0.638  -1.259  24.240  0.00  0.00    +0.043 C 
ATOM     14  C   UNL     1       1.547  -0.643  23.177  0.00  0.00    +0.145 C 
BRANCH  11  15
ATOM     15  C   UNL     1      -1.697  -0.274  24.693  0.00  0.00    -0.043 A 
ATOM     16  C   UNL     1      -2.470  -0.461  25.839  0.00  0.00    +0.004 A 
ATOM     17  C   UNL     1      -2.304  -0.258  23.438  0.00  0.00    +0.004 A 
ATOM     19  C   UNL     1      -3.850  -0.634  25.729  0.00  0.00    +0.000 A 
ATOM     20  C   UNL     1      -3.683  -0.431  23.327  0.00  0.00    +0.000 A 
ATOM     21  C   UNL     1      -4.456  -0.619  24.473  0.00  0.00    +0.000 A 
ENDBRANCH  11  15
BRANCH  12   5
ATOM      5  O   UNL     1       2.180   1.623  22.588  0.00  0.00    -0.388 OA
ATOM     29  H   UNL     1       1.507   2.308  22.433  0.00  0.00    +0.210 HD
ENDBRANCH  12   5
BRANCH  14   6
ATOM      6  O   UNL     1       0.881  -0.701  21.919  0.00  0.00    -0.389 OA
ATOM     30  H   UNL     1       1.456  -0.269  21.265  0.00  0.00    +0.210 HD
ENDBRANCH  14   6
ENDBRANCH   9  10
BRANCH   9   1
ATOM      1  S   UNL     1      -0.332   3.807  24.622  0.00  0.00    +0.059 S 
ATOM      7  O   UNL     1      -0.147   4.047  23.203  0.00  0.00    -0.153 OA
ATOM      8  O   UNL     1       0.078   4.806  25.590  0.00  0.00    -0.153 OA
BRANCH   1  18
ATOM     18  C   UNL     1      -2.048   3.491  24.902  0.00  0.00    +0.105 A 
ATOM     22  C   UNL     1      -2.872   3.124  23.837  0.00  0.00    +0.029 A 
ATOM     23  C   UNL     1      -2.579   3.609  26.186  0.00  0.00    +0.029 A 
ATOM     24  C   UNL     1      -4.226   2.875  24.056  0.00  0.00    +0.014 A 
ATOM     25  C   UNL     1      -3.934   3.359  26.406  0.00  0.00    +0.014 A 
ATOM     26  C   UNL     1      -4.757   2.993  25.341  0.00  0.00    +0.055 A 
BRANCH  26  27
ATOM      2  F   UNL     1      -6.938   3.872  25.695  0.00  0.00    -0.166 F 
ATOM      3  F   UNL     1      -6.802   2.014  24.574  0.00  0.00    -0.166 F 
ATOM      4  F   UNL     1      -6.453   2.013  26.715  0.00  0.00    -0.166 F 
ATOM     27  C   UNL     1      -6.206   2.725  25.576  0.00  0.00    +0.417 C 
ENDBRANCH  26  27
ENDBRANCH   1  18
ENDBRANCH   9   1
TORSDOF 7
ENDMDL
MODEL 9
REMARK VINA RESULT:      -2.0      2.838      5.567
REMARK  Name = 71694015
REMARK  7 active torsions:
REMARK  status: ('A' for Active; 'I' for Inactive)
REMARK    1  A    between atoms: S_1  and  N_9
REMARK    2  A    between atoms: S_1  and  C_18
REMARK    3  A    between atoms: O_5  and  C_12
REMARK    4  A    between atoms: O_6  and  C_14
REMARK    5  A    between atoms: N_9  and  C_10
REMARK    6  A    between atoms: C_11  and  C_15
REMARK    7  A    between atoms: C_26  and  C_27
REMARK                            x       y       z     vdW  Elec       q    Type
REMARK                         _______ _______ _______ _____ _____    ______ ____
ROOT
ATOM      9  N   UNL     1      -1.693   3.335  23.308  0.00  0.00    -0.184 NA
ATOM     28  H   UNL     1      -1.338   3.487  22.356  0.00  0.00    +0.148 HD
ENDROOT
BRANCH   9  10
ATOM     10  C   UNL     1      -0.717   2.949  24.353  0.00  0.00    +0.115 C 
ATOM     11  C   UNL     1      -0.558   1.415  24.395  0.00  0.00    +0.043 C 
ATOM     12  C   UNL     1      -1.265   3.293  25.735  0.00  0.00    +0.162 C 
ATOM     13  C   UNL     1      -0.442   1.046  25.897  0.00  0.00    +0.043 C 
ATOM     14  C   UNL     1      -0.476   2.371  26.657  0.00  0.00    +0.145 C 
BRANCH  11  15
ATOM     15  C   UNL     1       0.589   0.916  23.541  0.00  0.00    -0.043 A 
ATOM     16  C   UNL     1       0.379  -0.113  22.623  0.00  0.00    +0.004 A 
ATOM     17  C   UNL     1       1.855   1.486  23.672  0.00  0.00    +0.004 A 
ATOM     19  C   UNL     1       1.435  -0.573  21.836  0.00  0.00    +0.000 A 
ATOM     20  C   UNL     1       2.911   1.027  22.886  0.00  0.00    +0.000 A 
ATOM     21  C   UNL     1       2.701  -0.003  21.968  0.00  0.00    +0.000 A 
ENDBRANCH  11  15
BRANCH  12   5
ATOM      5  O   UNL     1      -1.057   4.652  26.070  0.00  0.00    -0.388 OA
ATOM     29  H   UNL     1      -1.603   5.189  25.471  0.00  0.00    +0.210 HD
ENDBRANCH  12   5
BRANCH  14   6
ATOM      6  O   UNL     1       0.860   2.837  26.822  0.00  0.00    -0.389 OA
ATOM     30  H   UNL     1       1.317   2.718  25.972  0.00  0.00    +0.210 HD
ENDBRANCH  14   6
ENDBRANCH   9  10
BRANCH   9   1
ATOM      1  S   UNL     1      -3.357   3.138  23.589  0.00  0.00    +0.059 S 
ATOM      7  O   UNL     1      -4.092   3.463  22.381  0.00  0.00    -0.153 OA
ATOM      8  O   UNL     1      -3.698   3.778  24.845  0.00  0.00    -0.153 OA
BRANCH   1  18
ATOM     18  C   UNL     1      -3.478   1.395  23.848  0.00  0.00    +0.105 A 
ATOM     22  C   UNL     1      -3.111   0.512  22.832  0.00  0.00    +0.029 A 
ATOM     23  C   UNL     1      -3.942   0.900  25.066  0.00  0.00    +0.029 A 
ATOM     24  C   UNL     1      -3.207  -0.865  23.034  0.00  0.00    +0.014 A 
ATOM     25  C   UNL     1      -4.038  -0.477  25.270  0.00  0.00    +0.014 A 
ATOM     26  C   UNL     1      -3.670  -1.359  24.253  0.00  0.00    +0.055 A 
BRANCH  26  27
ATOM      2  F   UNL     1      -4.936  -3.354  23.982  0.00  0.00    -0.166 F 
ATOM      3  F   UNL     1      -2.772  -3.544  23.875  0.00  0.00    -0.166 F 
ATOM      4  F   UNL     1      -3.733  -3.194  25.787  0.00  0.00    -0.166 F 
ATOM     27  C   UNL     1      -3.773  -2.831  24.471  0.00  0.00    +0.417 C 
ENDBRANCH  26  27
ENDBRANCH   1  18
ENDBRANCH   9   1
TORSDOF 7
ENDMDL
MODEL 10
REMARK VINA RESULT:      -2.0     19.110     20.392
REMARK  Name = 71694015
REMARK  7 active torsions:
REMARK  status: ('A' for Active; 'I' for Inactive)
REMARK    1  A    between atoms: S_1  and  N_9
REMARK    2  A    between atoms: S_1  and  C_18
REMARK    3  A    between atoms: O_5  and  C_12
REMARK    4  A    between atoms: O_6  and  C_14
REMARK    5  A    between atoms: N_9  and  C_10
REMARK    6  A    between atoms: C_11  and  C_15
REMARK    7  A    between atoms: C_26  and  C_27
REMARK                            x       y       z     vdW  Elec       q    Type
REMARK                         _______ _______ _______ _____ _____    ______ ____
ROOT
ATOM      9  N   UNL     1      15.054  -7.331  27.591  0.00  0.00    -0.184 NA
ATOM     28  H   UNL     1      14.471  -6.493  27.483  0.00  0.00    +0.148 HD
ENDROOT
BRANCH   9  10
ATOM     10  C   UNL     1      15.209  -7.891  28.954  0.00  0.00    +0.115 C 
ATOM     11  C   UNL     1      16.171  -7.016  29.785  0.00  0.00    +0.043 C 
ATOM     12  C   UNL     1      15.916  -9.242  28.888  0.00  0.00    +0.162 C 
ATOM     13  C   UNL     1      17.023  -8.006  30.620  0.00  0.00    +0.043 C 
ATOM     14  C   UNL     1      16.488  -9.399  30.292  0.00  0.00    +0.145 C 
BRANCH  11  15
ATOM     15  C   UNL     1      15.453  -5.965  30.606  0.00  0.00    -0.043 A 
ATOM     16  C   UNL     1      16.070  -4.741  30.864  0.00  0.00    +0.004 A 
ATOM     17  C   UNL     1      14.176  -6.221  31.102  0.00  0.00    +0.004 A 
ATOM     19  C   UNL     1      15.410  -3.773  31.620  0.00  0.00    +0.000 A 
ATOM     20  C   UNL     1      13.515  -5.254  31.859  0.00  0.00    +0.000 A 
ATOM     21  C   UNL     1      14.132  -4.029  32.118  0.00  0.00    +0.000 A 
ENDBRANCH  11  15
BRANCH  12   5
ATOM      5  O   UNL     1      15.026 -10.297  28.578  0.00  0.00    -0.388 OA
ATOM     29  H   UNL     1      14.230 -10.179  29.123  0.00  0.00    +0.210 HD
ENDBRANCH  12   5
BRANCH  14   6
ATOM      6  O   UNL     1      15.464  -9.725  31.226  0.00  0.00    -0.389 OA
ATOM     30  H   UNL     1      15.897 -10.067  32.027  0.00  0.00    +0.210 HD
ENDBRANCH  14   6
ENDBRANCH   9  10
BRANCH   9   1
ATOM      1  S   UNL     1      16.109  -7.816  26.351  0.00  0.00    +0.059 S 
ATOM      7  O   UNL     1      15.445  -8.790  25.506  0.00  0.00    -0.153 OA
ATOM      8  O   UNL     1      17.405  -8.115  26.930  0.00  0.00    -0.153 OA
BRANCH   1  18
ATOM     18  C   UNL     1      16.291  -6.324  25.424  0.00  0.00    +0.105 A 
ATOM     22  C   UNL     1      15.834  -5.115  25.951  0.00  0.00    +0.029 A 
ATOM     23  C   UNL     1      16.890  -6.352  24.165  0.00  0.00    +0.029 A 
ATOM     24  C   UNL     1      15.975  -3.936  25.219  0.00  0.00    +0.014 A 
ATOM     25  C   UNL     1      17.033  -5.173  23.433  0.00  0.00    +0.014 A 
ATOM     26  C   UNL     1      16.575  -3.965  23.960  0.00  0.00    +0.055 A 
BRANCH  26  27
ATOM      2  F   UNL     1      15.527  -2.152  22.834  0.00  0.00    -0.166 F 
ATOM      3  F   UNL     1      17.405  -1.724  23.845  0.00  0.00    -0.166 F 
ATOM      4  F   UNL     1      17.405  -2.868  22.003  0.00  0.00    -0.166 F 
ATOM     27  C   UNL     1      16.728  -2.705  23.178  0.00  0.00    +0.417 C 
ENDBRANCH  26  27
ENDBRANCH   1  18
ENDBRANCH   9   1
TORSDOF 7
ENDMDL
