MODEL 1
REMARK VINA RESULT:      -3.9      0.000      0.000
REMARK  Name = 51137134
REMARK  6 active torsions:
REMARK  status: ('A' for Active; 'I' for Inactive)
REMARK    1  A    between atoms: S_1  and  C_19
REMARK    2  A    between atoms: S_1  and  C_24
REMARK    3  A    between atoms: N_7  and  C_14
REMARK    4  A    between atoms: C_9  and  C_13
REMARK    5  A    between atoms: C_14  and  C_15
REMARK    6  A    between atoms: C_24  and  C_28
REMARK                            x       y       z     vdW  Elec       q    Type
REMARK                         _______ _______ _______ _____ _____    ______ ____
ROOT
ATOM      7  N   UNL     1     -10.291  -9.276  16.453  0.00  0.00    -0.297 NA
ATOM      9  C   UNL     1      -9.794  -8.904  14.193  0.00  0.00    +0.090 C 
ATOM     10  C   UNL     1     -10.719 -10.127  14.322  0.00  0.00    +0.029 C 
ATOM     11  C   UNL     1      -9.258  -8.671  15.611  0.00  0.00    +0.097 C 
ATOM     12  C   UNL     1     -10.635 -10.532  15.787  0.00  0.00    +0.085 C 
ENDROOT
BRANCH   9  13
ATOM      4  O   UNL     1      -9.067  -8.838  11.867  0.00  0.00    -0.439 OA
ATOM      8  N   UNL     1      -7.431  -9.341  13.353  0.00  0.00    -0.213 NA
ATOM     13  C   UNL     1      -8.697  -9.045  13.162  0.00  0.00    +0.201 A 
ATOM     16  C   UNL     1      -6.910  -9.332  12.081  0.00  0.00    +0.111 A 
ATOM     17  C   UNL     1      -7.909  -9.024  11.170  0.00  0.00    +0.155 A 
ATOM     18  C   UNL     1      -5.611  -9.572  11.609  0.00  0.00    +0.058 A 
ATOM     19  C   UNL     1      -5.386  -9.486  10.227  0.00  0.00    +0.090 A 
ATOM     22  C   UNL     1      -7.725  -8.931   9.795  0.00  0.00    +0.050 A 
ATOM     23  C   UNL     1      -6.424  -9.172   9.340  0.00  0.00    +0.030 A 
BRANCH  19   1
ATOM      1  S   UNL     1      -3.779  -9.776   9.602  0.00  0.00    -0.003 S 
ATOM      5  O   UNL     1      -3.859 -10.781   8.551  0.00  0.00    -0.169 OA
ATOM      6  O   UNL     1      -3.169  -8.485   9.326  0.00  0.00    -0.169 OA
BRANCH   1  24
ATOM     24  C   UNL     1      -2.906 -10.516  10.963  0.00  0.00    +0.168 C 
ATOM     28  C   UNL     1      -1.642  -9.753  11.291  0.00  0.00    +0.028 C 
ENDBRANCH   1  24
ENDBRANCH  19   1
ENDBRANCH   9  13
BRANCH   7  14
ATOM     14  C   UNL     1      -9.842  -9.480  17.823  0.00  0.00    +0.119 C 
BRANCH  14  15
ATOM      2  F   UNL     1      -5.362  -9.382  15.888  0.00  0.00    -0.202 F 
ATOM      3  F   UNL     1      -4.343 -10.685  18.066  0.00  0.00    -0.202 F 
ATOM     15  C   UNL     1      -8.373  -9.803  17.888  0.00  0.00    -0.030 A 
ATOM     20  C   UNL     1      -7.531  -9.436  16.838  0.00  0.00    +0.046 A 
ATOM     21  C   UNL     1      -7.853 -10.466  18.999  0.00  0.00    +0.008 A 
ATOM     25  C   UNL     1      -6.170  -9.734  16.898  0.00  0.00    +0.159 A 
ATOM     26  C   UNL     1      -6.491 -10.764  19.060  0.00  0.00    +0.041 A 
ATOM     27  C   UNL     1      -5.650 -10.398  18.009  0.00  0.00    +0.158 A 
ENDBRANCH  14  15
ENDBRANCH   7  14
TORSDOF 5
ENDMDL
MODEL 2
REMARK VINA RESULT:      -2.2      1.737      2.230
REMARK  Name = 51137134
REMARK  6 active torsions:
REMARK  status: ('A' for Active; 'I' for Inactive)
REMARK    1  A    between atoms: S_1  and  C_19
REMARK    2  A    between atoms: S_1  and  C_24
REMARK    3  A    between atoms: N_7  and  C_14
REMARK    4  A    between atoms: C_9  and  C_13
REMARK    5  A    between atoms: C_14  and  C_15
REMARK    6  A    between atoms: C_24  and  C_28
REMARK                            x       y       z     vdW  Elec       q    Type
REMARK                         _______ _______ _______ _____ _____    ______ ____
ROOT
ATOM      7  N   UNL     1     -10.330  -9.354  14.465  0.00  0.00    -0.297 NA
ATOM      9  C   UNL     1      -8.888  -9.293  12.618  0.00  0.00    +0.090 C 
ATOM     10  C   UNL     1      -9.525 -10.689  12.728  0.00  0.00    +0.029 C 
ATOM     11  C   UNL     1      -9.148  -8.639  13.981  0.00  0.00    +0.097 C 
ATOM     12  C   UNL     1     -10.079 -10.759  14.144  0.00  0.00    +0.085 C 
ENDROOT
BRANCH   9  13
ATOM      4  O   UNL     1      -7.159  -9.020  10.922  0.00  0.00    -0.439 OA
ATOM      8  N   UNL     1      -6.380  -9.515  12.992  0.00  0.00    -0.213 NA
ATOM     13  C   UNL     1      -7.427  -9.290  12.230  0.00  0.00    +0.201 A 
ATOM     16  C   UNL     1      -5.324  -9.385  12.122  0.00  0.00    +0.111 A 
ATOM     17  C   UNL     1      -5.797  -9.082  10.855  0.00  0.00    +0.155 A 
ATOM     18  C   UNL     1      -3.940  -9.506  12.319  0.00  0.00    +0.058 A 
ATOM     19  C   UNL     1      -3.098  -9.312  11.213  0.00  0.00    +0.090 A 
ATOM     22  C   UNL     1      -4.996  -8.883   9.737  0.00  0.00    +0.050 A 
ATOM     23  C   UNL     1      -3.618  -9.006   9.949  0.00  0.00    +0.030 A 
BRANCH  19   1
ATOM      1  S   UNL     1      -1.367  -9.452  11.421  0.00  0.00    -0.003 S 
ATOM      5  O   UNL     1      -1.063 -10.781  11.931  0.00  0.00    -0.169 OA
ATOM      6  O   UNL     1      -0.733  -8.981  10.199  0.00  0.00    -0.169 OA
BRANCH   1  24
ATOM     24  C   UNL     1      -0.986  -8.297  12.718  0.00  0.00    +0.168 C 
ATOM     28  C   UNL     1       0.324  -7.587  12.460  0.00  0.00    +0.028 C 
ENDBRANCH   1  24
ENDBRANCH  19   1
ENDBRANCH   9  13
BRANCH   7  14
ATOM     14  C   UNL     1     -10.562  -9.144  15.887  0.00  0.00    +0.119 C 
BRANCH  14  15
ATOM      2  F   UNL     1      -5.753  -9.357  16.695  0.00  0.00    -0.202 F 
ATOM      3  F   UNL     1      -6.155 -10.781  18.995  0.00  0.00    -0.202 F 
ATOM     15  C   UNL     1      -9.385  -9.582  16.718  0.00  0.00    -0.030 A 
ATOM     20  C   UNL     1      -8.089  -9.261  16.314  0.00  0.00    +0.046 A 
ATOM     21  C   UNL     1      -9.590 -10.307  17.891  0.00  0.00    +0.008 A 
ATOM     25  C   UNL     1      -6.998  -9.665  17.083  0.00  0.00    +0.159 A 
ATOM     26  C   UNL     1      -8.499 -10.712  18.661  0.00  0.00    +0.041 A 
ATOM     27  C   UNL     1      -7.203 -10.392  18.256  0.00  0.00    +0.158 A 
ENDBRANCH  14  15
ENDBRANCH   7  14
TORSDOF 5
ENDMDL
