MODEL 1
REMARK VINA RESULT:      -5.2      0.000      0.000
REMARK  Name = 75536650
REMARK  7 active torsions:
REMARK  status: ('A' for Active; 'I' for Inactive)
REMARK    1  A    between atoms: O_4  and  C_9
REMARK    2  A    between atoms: N_6  and  C_8
REMARK    3  A    between atoms: N_6  and  C_13
REMARK    4  A    between atoms: N_7  and  C_12
REMARK    5  A    between atoms: C_10  and  C_12
REMARK    6  A    between atoms: C_13  and  C_14
REMARK    7  A    between atoms: C_15  and  C_17
REMARK                            x       y       z     vdW  Elec       q    Type
REMARK                         _______ _______ _______ _____ _____    ______ ____
ROOT
ATOM      3  O   UNL     1      -1.627  -2.530  23.815  0.00  0.00    -0.371 OA
ATOM      8  C   UNL     1      -0.034  -0.944  24.584  0.00  0.00    +0.111 C 
ATOM      9  C   UNL     1      -1.261  -0.888  25.477  0.00  0.00    +0.164 C 
ATOM     10  C   UNL     1      -1.887  -2.247  25.200  0.00  0.00    +0.165 C 
ATOM     11  C   UNL     1      -0.590  -1.646  23.356  0.00  0.00    +0.181 C 
ENDROOT
BRANCH   9   4
ATOM      4  O   UNL     1      -0.933  -0.727  26.844  0.00  0.00    -0.388 OA
ATOM     26  H   UNL     1      -0.400  -1.490  27.123  0.00  0.00    +0.210 HD
ENDBRANCH   9   4
BRANCH   8   6
ATOM      6  N   UNL     1       0.529   0.362  24.283  0.00  0.00    -0.304 NA
ATOM     25  H   UNL     1       1.349   0.240  23.688  0.00  0.00    +0.123 HD
BRANCH   6  13
ATOM     13  C   UNL     1      -0.439   1.205  23.592  0.00  0.00    +0.124 C 
BRANCH  13  14
ATOM      1  S   UNL     1      -0.607   3.979  23.706  0.00  0.00    -0.100 S 
ATOM     14  C   UNL     1      -0.798   2.424  24.399  0.00  0.00    +0.004 A 
ATOM     16  C   UNL     1      -1.286   2.488  25.685  0.00  0.00    +0.012 A 
ATOM     18  C   UNL     1      -1.506   3.830  26.109  0.00  0.00    +0.008 A 
ATOM     19  C   UNL     1      -1.178   4.742  25.129  0.00  0.00    +0.045 A 
ENDBRANCH  13  14
ENDBRANCH   6  13
ENDBRANCH   8   6
BRANCH  10  12
ATOM     12  C   UNL     1      -3.383  -2.282  25.458  0.00  0.00    +0.138 C 
BRANCH  12   7
ATOM      5  O   UNL     1      -3.994  -0.443  23.340  0.00  0.00    -0.270 OA
ATOM      7  N   UNL     1      -3.920  -0.960  25.601  0.00  0.00    -0.309 N 
ATOM     15  C   UNL     1      -4.186  -0.134  24.513  0.00  0.00    +0.244 C 
ATOM     27  H   UNL     1      -4.036  -0.616  26.548  0.00  0.00    +0.149 HD
BRANCH  15  17
ATOM      2  F   UNL     1      -6.187   4.975  25.705  0.00  0.00    -0.205 F 
ATOM     17  C   UNL     1      -4.716   1.217  24.829  0.00  0.00    +0.037 A 
ATOM     20  C   UNL     1      -5.692   1.373  25.814  0.00  0.00    +0.016 A 
ATOM     21  C   UNL     1      -4.238   2.332  24.140  0.00  0.00    +0.016 A 
ATOM     22  C   UNL     1      -6.189   2.641  26.111  0.00  0.00    +0.039 A 
ATOM     23  C   UNL     1      -4.736   3.602  24.437  0.00  0.00    +0.039 A 
ATOM     24  C   UNL     1      -5.711   3.756  25.421  0.00  0.00    +0.123 A 
ENDBRANCH  15  17
ENDBRANCH  12   7
ENDBRANCH  10  12
TORSDOF 7
ENDMDL
MODEL 2
REMARK VINA RESULT:      -4.6      2.426      3.308
REMARK  Name = 75536650
REMARK  7 active torsions:
REMARK  status: ('A' for Active; 'I' for Inactive)
REMARK    1  A    between atoms: O_4  and  C_9
REMARK    2  A    between atoms: N_6  and  C_8
REMARK    3  A    between atoms: N_6  and  C_13
REMARK    4  A    between atoms: N_7  and  C_12
REMARK    5  A    between atoms: C_10  and  C_12
REMARK    6  A    between atoms: C_13  and  C_14
REMARK    7  A    between atoms: C_15  and  C_17
REMARK                            x       y       z     vdW  Elec       q    Type
REMARK                         _______ _______ _______ _____ _____    ______ ____
ROOT
ATOM      3  O   UNL     1      -1.620  -2.726  23.898  0.00  0.00    -0.371 OA
ATOM      8  C   UNL     1       0.000  -1.063  24.394  0.00  0.00    +0.111 C 
ATOM      9  C   UNL     1      -1.208  -0.860  25.291  0.00  0.00    +0.164 C 
ATOM     10  C   UNL     1      -1.852  -2.238  25.229  0.00  0.00    +0.165 C 
ATOM     11  C   UNL     1      -0.584  -1.932  23.294  0.00  0.00    +0.181 C 
ENDROOT
BRANCH   9   4
ATOM      4  O   UNL     1      -0.853  -0.502  26.612  0.00  0.00    -0.388 OA
ATOM     26  H   UNL     1       0.111  -0.588  26.704  0.00  0.00    +0.210 HD
ENDBRANCH   9   4
BRANCH   8   6
ATOM      6  N   UNL     1       0.570   0.178  23.893  0.00  0.00    -0.304 NA
ATOM     25  H   UNL     1       1.158   0.589  24.619  0.00  0.00    +0.123 HD
BRANCH   6  13
ATOM     13  C   UNL     1       1.378  -0.058  22.703  0.00  0.00    +0.124 C 
BRANCH  13  14
ATOM      1  S   UNL     1       3.647  -1.347  23.665  0.00  0.00    -0.100 S 
ATOM     14  C   UNL     1       2.852   0.017  23.002  0.00  0.00    +0.004 A 
ATOM     16  C   UNL     1       3.712   1.076  22.813  0.00  0.00    +0.012 A 
ATOM     18  C   UNL     1       5.041   0.764  23.219  0.00  0.00    +0.008 A 
ATOM     19  C   UNL     1       5.146  -0.522  23.702  0.00  0.00    +0.045 A 
ENDBRANCH  13  14
ENDBRANCH   6  13
ENDBRANCH   8   6
BRANCH  10  12
ATOM     12  C   UNL     1      -3.343  -2.217  25.516  0.00  0.00    +0.138 C 
BRANCH  12   7
ATOM      5  O   UNL     1      -4.000  -0.427  23.370  0.00  0.00    -0.270 OA
ATOM      7  N   UNL     1      -3.832  -0.875  25.640  0.00  0.00    -0.309 N 
ATOM     15  C   UNL     1      -4.126  -0.076  24.540  0.00  0.00    +0.244 C 
ATOM     27  H   UNL     1      -3.892  -0.498  26.580  0.00  0.00    +0.149 HD
BRANCH  15  17
ATOM      2  F   UNL     1      -5.918   5.127  25.658  0.00  0.00    -0.205 F 
ATOM     17  C   UNL     1      -4.599   1.301  24.835  0.00  0.00    +0.037 A 
ATOM     20  C   UNL     1      -3.869   2.402  24.389  0.00  0.00    +0.016 A 
ATOM     21  C   UNL     1      -5.776   1.493  25.560  0.00  0.00    +0.016 A 
ATOM     22  C   UNL     1      -4.313   3.694  24.666  0.00  0.00    +0.039 A 
ATOM     23  C   UNL     1      -6.221   2.786  25.838  0.00  0.00    +0.039 A 
ATOM     24  C   UNL     1      -5.489   3.886  25.391  0.00  0.00    +0.123 A 
ENDBRANCH  15  17
ENDBRANCH  12   7
ENDBRANCH  10  12
TORSDOF 7
ENDMDL
MODEL 3
REMARK VINA RESULT:      -4.1      2.761      5.131
REMARK  Name = 75536650
REMARK  7 active torsions:
REMARK  status: ('A' for Active; 'I' for Inactive)
REMARK    1  A    between atoms: O_4  and  C_9
REMARK    2  A    between atoms: N_6  and  C_8
REMARK    3  A    between atoms: N_6  and  C_13
REMARK    4  A    between atoms: N_7  and  C_12
REMARK    5  A    between atoms: C_10  and  C_12
REMARK    6  A    between atoms: C_13  and  C_14
REMARK    7  A    between atoms: C_15  and  C_17
REMARK                            x       y       z     vdW  Elec       q    Type
REMARK                         _______ _______ _______ _____ _____    ______ ____
ROOT
ATOM      3  O   UNL     1      -0.085   3.305  23.645  0.00  0.00    -0.371 OA
ATOM      8  C   UNL     1      -0.993   3.847  25.771  0.00  0.00    +0.111 C 
ATOM      9  C   UNL     1      -0.416   2.443  25.823  0.00  0.00    +0.164 C 
ATOM     10  C   UNL     1       0.542   2.479  24.640  0.00  0.00    +0.165 C 
ATOM     11  C   UNL     1      -1.136   4.058  24.274  0.00  0.00    +0.181 C 
ENDROOT
BRANCH   9   4
ATOM      4  O   UNL     1       0.256   2.174  27.037  0.00  0.00    -0.388 OA
ATOM     26  H   UNL     1       0.370   3.012  27.517  0.00  0.00    +0.210 HD
ENDBRANCH   9   4
BRANCH   8   6
ATOM      6  N   UNL     1      -2.253   3.985  26.486  0.00  0.00    -0.304 NA
ATOM     25  H   UNL     1      -2.129   4.653  27.248  0.00  0.00    +0.123 HD
BRANCH   6  13
ATOM     13  C   UNL     1      -3.308   4.464  25.601  0.00  0.00    +0.124 C 
BRANCH  13  14
ATOM      1  S   UNL     1      -4.581   2.566  24.015  0.00  0.00    -0.100 S 
ATOM     14  C   UNL     1      -4.424   3.462  25.466  0.00  0.00    +0.004 A 
ATOM     16  C   UNL     1      -5.397   3.134  26.384  0.00  0.00    +0.012 A 
ATOM     18  C   UNL     1      -6.284   2.134  25.890  0.00  0.00    +0.008 A 
ATOM     19  C   UNL     1      -5.954   1.736  24.613  0.00  0.00    +0.045 A 
ENDBRANCH  13  14
ENDBRANCH   6  13
ENDBRANCH   8   6
BRANCH  10  12
ATOM     12  C   UNL     1       0.829   1.105  24.059  0.00  0.00    +0.138 C 
BRANCH  12   7
ATOM      5  O   UNL     1      -0.274  -0.804  25.897  0.00  0.00    -0.270 OA
ATOM      7  N   UNL     1      -0.377   0.348  23.886  0.00  0.00    -0.309 N 
ATOM     15  C   UNL     1      -0.838  -0.560  24.834  0.00  0.00    +0.244 C 
ATOM     27  H   UNL     1      -0.855   0.451  22.997  0.00  0.00    +0.149 HD
BRANCH  15  17
ATOM      2  F   UNL     1      -5.568  -3.301  23.552  0.00  0.00    -0.205 F 
ATOM     17  C   UNL     1      -2.090  -1.284  24.495  0.00  0.00    +0.037 A 
ATOM     20  C   UNL     1      -3.241  -0.571  24.160  0.00  0.00    +0.016 A 
ATOM     21  C   UNL     1      -2.115  -2.679  24.513  0.00  0.00    +0.016 A 
ATOM     22  C   UNL     1      -4.416  -1.251  23.841  0.00  0.00    +0.039 A 
ATOM     23  C   UNL     1      -3.290  -3.360  24.194  0.00  0.00    +0.039 A 
ATOM     24  C   UNL     1      -4.440  -2.646  23.858  0.00  0.00    +0.123 A 
ENDBRANCH  15  17
ENDBRANCH  12   7
ENDBRANCH  10  12
TORSDOF 7
ENDMDL
MODEL 4
REMARK VINA RESULT:      -4.0      2.963      5.175
REMARK  Name = 75536650
REMARK  7 active torsions:
REMARK  status: ('A' for Active; 'I' for Inactive)
REMARK    1  A    between atoms: O_4  and  C_9
REMARK    2  A    between atoms: N_6  and  C_8
REMARK    3  A    between atoms: N_6  and  C_13
REMARK    4  A    between atoms: N_7  and  C_12
REMARK    5  A    between atoms: C_10  and  C_12
REMARK    6  A    between atoms: C_13  and  C_14
REMARK    7  A    between atoms: C_15  and  C_17
REMARK                            x       y       z     vdW  Elec       q    Type
REMARK                         _______ _______ _______ _____ _____    ______ ____
ROOT
ATOM      3  O   UNL     1      -3.815   3.832  26.886  0.00  0.00    -0.371 OA
ATOM      8  C   UNL     1      -2.094   4.441  25.368  0.00  0.00    +0.111 C 
ATOM      9  C   UNL     1      -3.299   3.955  24.582  0.00  0.00    +0.164 C 
ATOM     10  C   UNL     1      -4.407   4.126  25.610  0.00  0.00    +0.165 C 
ATOM     11  C   UNL     1      -2.385   3.871  26.746  0.00  0.00    +0.181 C 
ENDROOT
BRANCH   9   4
ATOM      4  O   UNL     1      -3.536   4.722  23.418  0.00  0.00    -0.388 OA
ATOM     26  H   UNL     1      -3.720   4.113  22.682  0.00  0.00    +0.210 HD
ENDBRANCH   9   4
BRANCH   8   6
ATOM      6  N   UNL     1      -0.823   3.990  24.825  0.00  0.00    -0.304 NA
ATOM     25  H   UNL     1      -0.183   4.784  24.776  0.00  0.00    +0.123 HD
BRANCH   6  13
ATOM     13  C   UNL     1      -0.231   2.954  25.664  0.00  0.00    +0.124 C 
BRANCH  13  14
ATOM      1  S   UNL     1       0.955   1.520  23.597  0.00  0.00    -0.100 S 
ATOM     14  C   UNL     1      -0.109   1.643  24.933  0.00  0.00    +0.004 A 
ATOM     16  C   UNL     1      -0.759   0.456  25.188  0.00  0.00    +0.012 A 
ATOM     18  C   UNL     1      -0.379  -0.569  24.274  0.00  0.00    +0.008 A 
ATOM     19  C   UNL     1       0.547  -0.125  23.356  0.00  0.00    +0.045 A 
ENDBRANCH  13  14
ENDBRANCH   6  13
ENDBRANCH   8   6
BRANCH  10  12
ATOM     12  C   UNL     1      -5.595   3.210  25.372  0.00  0.00    +0.138 C 
BRANCH  12   7
ATOM      5  O   UNL     1      -3.978   1.803  23.461  0.00  0.00    -0.270 OA
ATOM      7  N   UNL     1      -5.209   1.830  25.428  0.00  0.00    -0.309 N 
ATOM     15  C   UNL     1      -4.419   1.229  24.453  0.00  0.00    +0.244 C 
ATOM     27  H   UNL     1      -5.600   1.279  26.185  0.00  0.00    +0.149 HD
BRANCH  15  17
ATOM      2  F   UNL     1      -3.321  -4.232  25.167  0.00  0.00    -0.205 F 
ATOM     17  C   UNL     1      -4.129  -0.216  24.641  0.00  0.00    +0.037 A 
ATOM     20  C   UNL     1      -4.322  -1.111  23.589  0.00  0.00    +0.016 A 
ATOM     21  C   UNL     1      -3.663  -0.679  25.872  0.00  0.00    +0.016 A 
ATOM     22  C   UNL     1      -4.050  -2.467  23.765  0.00  0.00    +0.039 A 
ATOM     23  C   UNL     1      -3.390  -2.036  26.049  0.00  0.00    +0.039 A 
ATOM     24  C   UNL     1      -3.584  -2.929  24.996  0.00  0.00    +0.123 A 
ENDBRANCH  15  17
ENDBRANCH  12   7
ENDBRANCH  10  12
TORSDOF 7
ENDMDL
MODEL 5
REMARK VINA RESULT:      -2.9      2.955      5.416
REMARK  Name = 75536650
REMARK  7 active torsions:
REMARK  status: ('A' for Active; 'I' for Inactive)
REMARK    1  A    between atoms: O_4  and  C_9
REMARK    2  A    between atoms: N_6  and  C_8
REMARK    3  A    between atoms: N_6  and  C_13
REMARK    4  A    between atoms: N_7  and  C_12
REMARK    5  A    between atoms: C_10  and  C_12
REMARK    6  A    between atoms: C_13  and  C_14
REMARK    7  A    between atoms: C_15  and  C_17
REMARK                            x       y       z     vdW  Elec       q    Type
REMARK                         _______ _______ _______ _____ _____    ______ ____
ROOT
ATOM      3  O   UNL     1      -5.839   3.180  26.113  0.00  0.00    -0.371 OA
ATOM      8  C   UNL     1      -4.278   4.318  24.732  0.00  0.00    +0.111 C 
ATOM      9  C   UNL     1      -4.356   2.865  24.297  0.00  0.00    +0.164 C 
ATOM     10  C   UNL     1      -5.704   2.460  24.877  0.00  0.00    +0.165 C 
ATOM     11  C   UNL     1      -4.875   4.247  26.127  0.00  0.00    +0.181 C 
ENDROOT
BRANCH   9   4
ATOM      4  O   UNL     1      -4.319   2.714  22.892  0.00  0.00    -0.388 OA
ATOM     26  H   UNL     1      -3.390   2.742  22.606  0.00  0.00    +0.210 HD
ENDBRANCH   9   4
BRANCH   8   6
ATOM      6  N   UNL     1      -2.927   4.858  24.721  0.00  0.00    -0.304 NA
ATOM     25  H   UNL     1      -2.970   5.860  24.909  0.00  0.00    +0.123 HD
BRANCH   6  13
ATOM     13  C   UNL     1      -2.098   4.219  25.737  0.00  0.00    +0.124 C 
BRANCH  13  14
ATOM      1  S   UNL     1       0.109   2.566  26.101  0.00  0.00    -0.100 S 
ATOM     14  C   UNL     1      -1.147   3.218  25.136  0.00  0.00    +0.004 A 
ATOM     16  C   UNL     1      -1.128   2.716  23.854  0.00  0.00    +0.012 A 
ATOM     18  C   UNL     1      -0.069   1.783  23.661  0.00  0.00    +0.008 A 
ATOM     19  C   UNL     1       0.682   1.608  24.803  0.00  0.00    +0.045 A 
ENDBRANCH  13  14
ENDBRANCH   6  13
ENDBRANCH   8   6
BRANCH  10  12
ATOM     12  C   UNL     1      -5.822   0.968  25.136  0.00  0.00    +0.138 C 
BRANCH  12   7
ATOM      5  O   UNL     1      -4.855  -1.388  23.811  0.00  0.00    -0.270 OA
ATOM      7  N   UNL     1      -4.532   0.363  25.299  0.00  0.00    -0.309 N 
ATOM     15  C   UNL     1      -4.147  -0.784  24.612  0.00  0.00    +0.244 C 
ATOM     27  H   UNL     1      -3.923   0.771  26.000  0.00  0.00    +0.149 HD
BRANCH  15  17
ATOM      2  F   UNL     1       0.993  -2.746  25.740  0.00  0.00    -0.205 F 
ATOM     17  C   UNL     1      -2.787  -1.303  24.911  0.00  0.00    +0.037 A 
ATOM     20  C   UNL     1      -1.986  -0.661  25.856  0.00  0.00    +0.016 A 
ATOM     21  C   UNL     1      -2.310  -2.432  24.245  0.00  0.00    +0.016 A 
ATOM     22  C   UNL     1      -0.710  -1.147  26.137  0.00  0.00    +0.039 A 
ATOM     23  C   UNL     1      -1.032  -2.919  24.526  0.00  0.00    +0.039 A 
ATOM     24  C   UNL     1      -0.233  -2.277  25.471  0.00  0.00    +0.123 A 
ENDBRANCH  15  17
ENDBRANCH  12   7
ENDBRANCH  10  12
TORSDOF 7
ENDMDL
MODEL 6
REMARK VINA RESULT:      -2.9      4.345      7.383
REMARK  Name = 75536650
REMARK  7 active torsions:
REMARK  status: ('A' for Active; 'I' for Inactive)
REMARK    1  A    between atoms: O_4  and  C_9
REMARK    2  A    between atoms: N_6  and  C_8
REMARK    3  A    between atoms: N_6  and  C_13
REMARK    4  A    between atoms: N_7  and  C_12
REMARK    5  A    between atoms: C_10  and  C_12
REMARK    6  A    between atoms: C_13  and  C_14
REMARK    7  A    between atoms: C_15  and  C_17
REMARK                            x       y       z     vdW  Elec       q    Type
REMARK                         _______ _______ _______ _____ _____    ______ ____
ROOT
ATOM      3  O   UNL     1      -2.282   2.088  22.585  0.00  0.00    -0.371 OA
ATOM      8  C   UNL     1      -2.994   2.430  24.825  0.00  0.00    +0.111 C 
ATOM      9  C   UNL     1      -1.955   1.323  24.799  0.00  0.00    +0.164 C 
ATOM     10  C   UNL     1      -1.261   1.605  23.474  0.00  0.00    +0.165 C 
ATOM     11  C   UNL     1      -3.426   2.470  23.369  0.00  0.00    +0.181 C 
ENDROOT
BRANCH   9   4
ATOM      4  O   UNL     1      -1.057   1.392  25.889  0.00  0.00    -0.388 OA
ATOM     26  H   UNL     1      -0.455   2.142  25.743  0.00  0.00    +0.210 HD
ENDBRANCH   9   4
BRANCH   8   6
ATOM      6  N   UNL     1      -4.098   2.171  25.736  0.00  0.00    -0.304 NA
ATOM     25  H   UNL     1      -4.628   3.034  25.866  0.00  0.00    +0.123 HD
BRANCH   6  13
ATOM     13  C   UNL     1      -4.985   1.143  25.207  0.00  0.00    +0.124 C 
BRANCH  13  14
ATOM      1  S   UNL     1      -4.299  -1.121  23.744  0.00  0.00    -0.100 S 
ATOM     14  C   UNL     1      -4.329  -0.213  25.196  0.00  0.00    +0.004 A 
ATOM     16  C   UNL     1      -3.712  -0.875  26.234  0.00  0.00    +0.012 A 
ATOM     18  C   UNL     1      -3.208  -2.146  25.833  0.00  0.00    +0.008 A 
ATOM     19  C   UNL     1      -3.459  -2.406  24.503  0.00  0.00    +0.045 A 
ENDBRANCH  13  14
ENDBRANCH   6  13
ENDBRANCH   8   6
BRANCH  10  12
ATOM     12  C   UNL     1      -0.595   0.380  22.872  0.00  0.00    +0.138 C 
BRANCH  12   7
ATOM      5  O   UNL     1       1.579  -0.457  21.195  0.00  0.00    -0.270 OA
ATOM      7  N   UNL     1       0.789   0.305  23.239  0.00  0.00    -0.309 N 
ATOM     15  C   UNL     1       1.780  -0.114  22.357  0.00  0.00    +0.244 C 
ATOM     27  H   UNL     1       1.014   0.507  24.207  0.00  0.00    +0.149 HD
BRANCH  15  17
ATOM      2  F   UNL     1       7.006  -0.296  24.402  0.00  0.00    -0.205 F 
ATOM     17  C   UNL     1       3.163  -0.162  22.897  0.00  0.00    +0.037 A 
ATOM     20  C   UNL     1       3.976   0.970  22.837  0.00  0.00    +0.016 A 
ATOM     21  C   UNL     1       3.649  -1.339  23.466  0.00  0.00    +0.016 A 
ATOM     22  C   UNL     1       5.274   0.926  23.344  0.00  0.00    +0.039 A 
ATOM     23  C   UNL     1       4.948  -1.384  23.974  0.00  0.00    +0.039 A 
ATOM     24  C   UNL     1       5.760  -0.252  23.913  0.00  0.00    +0.123 A 
ENDBRANCH  15  17
ENDBRANCH  12   7
ENDBRANCH  10  12
TORSDOF 7
ENDMDL
MODEL 7
REMARK VINA RESULT:      -2.8      3.051      5.641
REMARK  Name = 75536650
REMARK  7 active torsions:
REMARK  status: ('A' for Active; 'I' for Inactive)
REMARK    1  A    between atoms: O_4  and  C_9
REMARK    2  A    between atoms: N_6  and  C_8
REMARK    3  A    between atoms: N_6  and  C_13
REMARK    4  A    between atoms: N_7  and  C_12
REMARK    5  A    between atoms: C_10  and  C_12
REMARK    6  A    between atoms: C_13  and  C_14
REMARK    7  A    between atoms: C_15  and  C_17
REMARK                            x       y       z     vdW  Elec       q    Type
REMARK                         _______ _______ _______ _____ _____    ______ ____
ROOT
ATOM      3  O   UNL     1      -5.593   0.509  25.406  0.00  0.00    -0.371 OA
ATOM      8  C   UNL     1      -5.152   2.739  24.718  0.00  0.00    +0.111 C 
ATOM      9  C   UNL     1      -3.952   1.871  24.384  0.00  0.00    +0.164 C 
ATOM     10  C   UNL     1      -4.583   0.486  24.383  0.00  0.00    +0.165 C 
ATOM     11  C   UNL     1      -5.868   1.879  25.746  0.00  0.00    +0.181 C 
ENDROOT
BRANCH   9   4
ATOM      4  O   UNL     1      -3.379   2.191  23.132  0.00  0.00    -0.388 OA
ATOM     26  H   UNL     1      -3.641   3.097  22.897  0.00  0.00    +0.210 HD
ENDBRANCH   9   4
BRANCH   8   6
ATOM      6  N   UNL     1      -4.798   4.054  25.228  0.00  0.00    -0.304 NA
ATOM     25  H   UNL     1      -5.635   4.499  25.604  0.00  0.00    +0.123 HD
BRANCH   6  13
ATOM     13  C   UNL     1      -3.797   3.955  26.284  0.00  0.00    +0.124 C 
BRANCH  13  14
ATOM      1  S   UNL     1      -1.193   3.017  26.013  0.00  0.00    -0.100 S 
ATOM     14  C   UNL     1      -2.406   4.200  25.763  0.00  0.00    +0.004 A 
ATOM     16  C   UNL     1      -1.928   5.293  25.075  0.00  0.00    +0.012 A 
ATOM     18  C   UNL     1      -0.548   5.158  24.748  0.00  0.00    +0.008 A 
ATOM     19  C   UNL     1      -0.023   3.967  25.200  0.00  0.00    +0.045 A 
ENDBRANCH  13  14
ENDBRANCH   6  13
ENDBRANCH   8   6
BRANCH  10  12
ATOM     12  C   UNL     1      -3.590  -0.627  24.668  0.00  0.00    +0.138 C 
BRANCH  12   7
ATOM      5  O   UNL     1      -0.995  -0.624  25.895  0.00  0.00    -0.270 OA
ATOM      7  N   UNL     1      -2.336  -0.386  24.017  0.00  0.00    -0.309 N 
ATOM     15  C   UNL     1      -1.120  -0.404  24.693  0.00  0.00    +0.244 C 
ATOM     27  H   UNL     1      -2.374  -0.128  23.036  0.00  0.00    +0.149 HD
BRANCH  15  17
ATOM      2  F   UNL     1       3.448   0.712  21.625  0.00  0.00    -0.205 F 
ATOM     17  C   UNL     1       0.089  -0.110  23.881  0.00  0.00    +0.037 A 
ATOM     20  C   UNL     1       0.380  -0.882  22.757  0.00  0.00    +0.016 A 
ATOM     21  C   UNL     1       0.933   0.940  24.244  0.00  0.00    +0.016 A 
ATOM     22  C   UNL     1       1.514  -0.605  21.994  0.00  0.00    +0.039 A 
ATOM     23  C   UNL     1       2.068   1.217  23.480  0.00  0.00    +0.039 A 
ATOM     24  C   UNL     1       2.358   0.445  22.356  0.00  0.00    +0.123 A 
ENDBRANCH  15  17
ENDBRANCH  12   7
ENDBRANCH  10  12
TORSDOF 7
ENDMDL
MODEL 8
REMARK VINA RESULT:      -2.7      2.068      2.984
REMARK  Name = 75536650
REMARK  7 active torsions:
REMARK  status: ('A' for Active; 'I' for Inactive)
REMARK    1  A    between atoms: O_4  and  C_9
REMARK    2  A    between atoms: N_6  and  C_8
REMARK    3  A    between atoms: N_6  and  C_13
REMARK    4  A    between atoms: N_7  and  C_12
REMARK    5  A    between atoms: C_10  and  C_12
REMARK    6  A    between atoms: C_13  and  C_14
REMARK    7  A    between atoms: C_15  and  C_17
REMARK                            x       y       z     vdW  Elec       q    Type
REMARK                         _______ _______ _______ _____ _____    ______ ____
ROOT
ATOM      3  O   UNL     1      -3.947  -2.439  23.449  0.00  0.00    -0.371 OA
ATOM      8  C   UNL     1      -2.260  -2.657  25.106  0.00  0.00    +0.111 C 
ATOM      9  C   UNL     1      -3.115  -1.444  25.427  0.00  0.00    +0.164 C 
ATOM     10  C   UNL     1      -4.379  -1.762  24.641  0.00  0.00    +0.165 C 
ATOM     11  C   UNL     1      -2.592  -2.880  23.640  0.00  0.00    +0.181 C 
ENDROOT
BRANCH   9   4
ATOM      4  O   UNL     1      -3.374  -1.309  26.810  0.00  0.00    -0.388 OA
ATOM     26  H   UNL     1      -3.338  -2.192  27.216  0.00  0.00    +0.210 HD
ENDBRANCH   9   4
BRANCH   8   6
ATOM      6  N   UNL     1      -0.840  -2.448  25.340  0.00  0.00    -0.304 NA
ATOM     25  H   UNL     1      -0.374  -3.355  25.376  0.00  0.00    +0.123 HD
BRANCH   6  13
ATOM     13  C   UNL     1      -0.244  -1.650  24.276  0.00  0.00    +0.124 C 
BRANCH  13  14
ATOM      1  S   UNL     1       0.460   0.931  23.512  0.00  0.00    -0.100 S 
ATOM     14  C   UNL     1      -0.232  -0.183  24.614  0.00  0.00    +0.004 A 
ATOM     16  C   UNL     1      -0.720   0.441  25.741  0.00  0.00    +0.012 A 
ATOM     18  C   UNL     1      -0.524   1.852  25.700  0.00  0.00    +0.008 A 
ATOM     19  C   UNL     1       0.107   2.252  24.543  0.00  0.00    +0.045 A 
ENDBRANCH  13  14
ENDBRANCH   6  13
ENDBRANCH   8   6
BRANCH  10  12
ATOM     12  C   UNL     1      -5.180  -0.527  24.267  0.00  0.00    +0.138 C 
BRANCH  12   7
ATOM      5  O   UNL     1      -6.097   1.979  25.326  0.00  0.00    -0.270 OA
ATOM      7  N   UNL     1      -4.405   0.668  24.432  0.00  0.00    -0.309 N 
ATOM     15  C   UNL     1      -4.934   1.843  24.956  0.00  0.00    +0.244 C 
ATOM     27  H   UNL     1      -3.454   0.645  24.079  0.00  0.00    +0.149 HD
BRANCH  15  17
ATOM      2  F   UNL     1      -1.434   6.223  25.266  0.00  0.00    -0.205 F 
ATOM     17  C   UNL     1      -4.008   3.002  25.037  0.00  0.00    +0.037 A 
ATOM     20  C   UNL     1      -3.472   3.551  23.872  0.00  0.00    +0.016 A 
ATOM     21  C   UNL     1      -3.674   3.541  26.280  0.00  0.00    +0.016 A 
ATOM     22  C   UNL     1      -2.603   4.639  23.949  0.00  0.00    +0.039 A 
ATOM     23  C   UNL     1      -2.804   4.630  26.356  0.00  0.00    +0.039 A 
ATOM     24  C   UNL     1      -2.269   5.178  25.191  0.00  0.00    +0.123 A 
ENDBRANCH  15  17
ENDBRANCH  12   7
ENDBRANCH  10  12
TORSDOF 7
ENDMDL
MODEL 9
REMARK VINA RESULT:      -2.4      1.770      4.267
REMARK  Name = 75536650
REMARK  7 active torsions:
REMARK  status: ('A' for Active; 'I' for Inactive)
REMARK    1  A    between atoms: O_4  and  C_9
REMARK    2  A    between atoms: N_6  and  C_8
REMARK    3  A    between atoms: N_6  and  C_13
REMARK    4  A    between atoms: N_7  and  C_12
REMARK    5  A    between atoms: C_10  and  C_12
REMARK    6  A    between atoms: C_13  and  C_14
REMARK    7  A    between atoms: C_15  and  C_17
REMARK                            x       y       z     vdW  Elec       q    Type
REMARK                         _______ _______ _______ _____ _____    ______ ____
ROOT
ATOM      3  O   UNL     1      -2.117  -1.531  26.739  0.00  0.00    -0.371 OA
ATOM      8  C   UNL     1      -3.495  -2.274  24.953  0.00  0.00    +0.111 C 
ATOM      9  C   UNL     1      -2.118  -1.939  24.409  0.00  0.00    +0.164 C 
ATOM     10  C   UNL     1      -1.278  -2.013  25.676  0.00  0.00    +0.165 C 
ATOM     11  C   UNL     1      -3.480  -1.537  26.282  0.00  0.00    +0.181 C 
ENDROOT
BRANCH   9   4
ATOM      4  O   UNL     1      -1.679  -2.861  23.431  0.00  0.00    -0.388 OA
ATOM     26  H   UNL     1      -0.896  -2.490  22.990  0.00  0.00    +0.210 HD
ENDBRANCH   9   4
BRANCH   8   6
ATOM      6  N   UNL     1      -4.583  -1.853  24.085  0.00  0.00    -0.304 NA
ATOM     25  H   UNL     1      -5.413  -1.682  24.654  0.00  0.00    +0.123 HD
BRANCH   6  13
ATOM     13  C   UNL     1      -4.239  -0.631  23.367  0.00  0.00    +0.124 C 
BRANCH  13  14
ATOM      1  S   UNL     1      -3.978   2.117  23.708  0.00  0.00    -0.100 S 
ATOM     14  C   UNL     1      -4.659   0.601  24.123  0.00  0.00    +0.004 A 
ATOM     16  C   UNL     1      -5.560   0.705  25.160  0.00  0.00    +0.012 A 
ATOM     18  C   UNL     1      -5.693   2.047  25.620  0.00  0.00    +0.008 A 
ATOM     19  C   UNL     1      -4.889   2.917  24.917  0.00  0.00    +0.045 A 
ENDBRANCH  13  14
ENDBRANCH   6  13
ENDBRANCH   8   6
BRANCH  10  12
ATOM     12  C   UNL     1      -0.010  -1.180  25.606  0.00  0.00    +0.138 C 
BRANCH  12   7
ATOM      5  O   UNL     1       0.023   0.605  23.357  0.00  0.00    -0.270 OA
ATOM      7  N   UNL     1      -0.306   0.223  25.622  0.00  0.00    -0.309 N 
ATOM     15  C   UNL     1      -0.265   1.015  24.478  0.00  0.00    +0.244 C 
ATOM     27  H   UNL     1      -0.482   0.640  26.530  0.00  0.00    +0.149 HD
BRANCH  15  17
ATOM      2  F   UNL     1      -1.427   6.462  25.188  0.00  0.00    -0.205 F 
ATOM     17  C   UNL     1      -0.571   2.456  24.666  0.00  0.00    +0.037 A 
ATOM     20  C   UNL     1      -0.063   3.401  23.774  0.00  0.00    +0.016 A 
ATOM     21  C   UNL     1      -1.369   2.866  25.735  0.00  0.00    +0.016 A 
ATOM     22  C   UNL     1      -0.351   4.754  23.950  0.00  0.00    +0.039 A 
ATOM     23  C   UNL     1      -1.658   4.220  25.911  0.00  0.00    +0.039 A 
ATOM     24  C   UNL     1      -1.149   5.163  25.018  0.00  0.00    +0.123 A 
ENDBRANCH  15  17
ENDBRANCH  12   7
ENDBRANCH  10  12
TORSDOF 7
ENDMDL
