MODEL 1
REMARK VINA RESULT:      -3.5      0.000      0.000
REMARK  Name = 45783903
REMARK  13 active torsions:
REMARK  status: ('A' for Active; 'I' for Inactive)
REMARK    1  A    between atoms: O_2  and  C_25
REMARK    2  A    between atoms: O_2  and  C_28
REMARK    3  A    between atoms: N_3  and  C_12
REMARK    4  A    between atoms: N_4  and  C_24
REMARK    5  A    between atoms: C_7  and  C_11
REMARK    6  A    between atoms: C_8  and  C_12
REMARK    7  A    between atoms: C_10  and  C_15
REMARK    8  A    between atoms: C_11  and  C_18
REMARK    9  A    between atoms: C_11  and  C_19
REMARK   10  A    between atoms: C_14  and  C_22
REMARK   11  A    between atoms: C_15  and  C_23
REMARK   12  A    between atoms: C_24  and  C_25
REMARK   13  A    between atoms: C_26  and  C_27
REMARK                            x       y       z     vdW  Elec       q    Type
REMARK                         _______ _______ _______ _____ _____    ______ ____
ROOT
ATOM      7  C   UNL     1      -3.384  -0.688  25.343  0.00  0.00    +0.000 C 
ATOM      8  C   UNL     1      -2.135  -0.215  24.563  0.00  0.00    +0.029 C 
ATOM      9  C   UNL     1      -4.277   0.508  25.703  0.00  0.00    +0.012 C 
ATOM     10  C   UNL     1      -4.719   1.333  24.476  0.00  0.00    +0.024 C 
ATOM     13  C   UNL     1      -2.465   0.804  23.503  0.00  0.00    -0.023 C 
ATOM     14  C   UNL     1      -3.618   1.497  23.441  0.00  0.00    -0.073 C 
ATOM     22  C   UNL     1      -3.880   2.429  22.289  0.00  0.00    +0.039 C 
ENDROOT
BRANCH   7  11
ATOM     11  C   UNL     1      -4.167  -1.748  24.557  0.00  0.00    -0.013 C 
ATOM     18  C   UNL     1      -3.633  -3.143  24.865  0.00  0.00    +0.007 C 
ATOM     19  C   UNL     1      -4.097  -1.459  23.060  0.00  0.00    +0.007 C 
ENDBRANCH   7  11
BRANCH   8  12
ATOM     12  C   UNL     1      -1.067   0.358  25.500  0.00  0.00    +0.092 C 
BRANCH  12   3
ATOM      3  N   UNL     1       0.251   0.311  24.870  0.00  0.00    -0.299 NA
ATOM      4  N   UNL     1       2.012   0.374  22.578  0.00  0.00    -0.298 NA
ATOM     16  C   UNL     1       0.534   1.565  24.159  0.00  0.00    +0.100 C 
ATOM     17  C   UNL     1       0.350  -0.832  23.953  0.00  0.00    +0.100 C 
ATOM     20  C   UNL     1       1.914   1.516  23.495  0.00  0.00    +0.100 C 
ATOM     21  C   UNL     1       1.730  -0.880  23.289  0.00  0.00    +0.100 C 
BRANCH   4  24
ATOM     24  C   UNL     1       3.329   0.327  21.946  0.00  0.00    +0.112 C 
BRANCH  24  25
ATOM     25  C   UNL     1       4.384   0.939  22.854  0.00  0.00    +0.174 C 
BRANCH  25   2
ATOM      2  O   UNL     1       5.444   0.006  23.015  0.00  0.00    -0.382 OA
ATOM     28  C   UNL     1       5.400  -0.619  24.291  0.00  0.00    +0.194 C 
ENDBRANCH  25   2
ENDBRANCH  24  25
ENDBRANCH   4  24
ENDBRANCH  12   3
ENDBRANCH   8  12
BRANCH  10  15
ATOM     15  C   UNL     1      -5.283   2.673  24.964  0.00  0.00    +0.105 C 
BRANCH  15  23
ATOM      1  O   UNL     1      -3.206   3.935  24.742  0.00  0.00    -0.425 OA
ATOM      5  N   UNL     1      -4.083   3.967  26.801  0.00  0.00    -0.112 NA
ATOM      6  N   UNL     1      -2.918   4.713  26.820  0.00  0.00    -0.113 NA
ATOM     23  C   UNL     1      -4.210   3.532  25.569  0.00  0.00    +0.218 A 
ATOM     26  C   UNL     1      -2.441   4.667  25.599  0.00  0.00    +0.214 A 
ATOM     27  C   UNL     1      -1.227   5.280  25.044  0.00  0.00    +0.111 C 
ENDBRANCH  15  23
ENDBRANCH  10  15
TORSDOF 8
ENDMDL
MODEL 2
REMARK VINA RESULT:      -2.5      2.028      4.324
REMARK  Name = 45783903
REMARK  13 active torsions:
REMARK  status: ('A' for Active; 'I' for Inactive)
REMARK    1  A    between atoms: O_2  and  C_25
REMARK    2  A    between atoms: O_2  and  C_28
REMARK    3  A    between atoms: N_3  and  C_12
REMARK    4  A    between atoms: N_4  and  C_24
REMARK    5  A    between atoms: C_7  and  C_11
REMARK    6  A    between atoms: C_8  and  C_12
REMARK    7  A    between atoms: C_10  and  C_15
REMARK    8  A    between atoms: C_11  and  C_18
REMARK    9  A    between atoms: C_11  and  C_19
REMARK   10  A    between atoms: C_14  and  C_22
REMARK   11  A    between atoms: C_15  and  C_23
REMARK   12  A    between atoms: C_24  and  C_25
REMARK   13  A    between atoms: C_26  and  C_27
REMARK                            x       y       z     vdW  Elec       q    Type
REMARK                         _______ _______ _______ _____ _____    ______ ____
ROOT
ATOM      7  C   UNL     1      -3.180   2.859  23.704  0.00  0.00    +0.000 C 
ATOM      8  C   UNL     1      -2.964   3.288  25.174  0.00  0.00    +0.029 C 
ATOM      9  C   UNL     1      -3.805   1.458  23.639  0.00  0.00    +0.012 C 
ATOM     10  C   UNL     1      -5.138   1.346  24.409  0.00  0.00    +0.024 C 
ATOM     13  C   UNL     1      -4.146   2.967  26.052  0.00  0.00    -0.023 C 
ATOM     14  C   UNL     1      -5.133   2.112  25.723  0.00  0.00    -0.073 C 
ATOM     22  C   UNL     1      -6.314   1.930  26.637  0.00  0.00    +0.039 C 
ENDROOT
BRANCH   7  11
ATOM     11  C   UNL     1      -4.033   3.882  22.942  0.00  0.00    -0.013 C 
ATOM     18  C   UNL     1      -3.877   3.689  21.436  0.00  0.00    +0.007 C 
ATOM     19  C   UNL     1      -3.650   5.302  23.348  0.00  0.00    +0.007 C 
ENDBRANCH   7  11
BRANCH   8  12
ATOM     12  C   UNL     1      -1.705   2.650  25.770  0.00  0.00    +0.092 C 
BRANCH  12   3
ATOM      3  N   UNL     1      -0.907   2.009  24.727  0.00  0.00    -0.299 NA
ATOM      4  N   UNL     1       1.443   0.625  23.769  0.00  0.00    -0.298 NA
ATOM     16  C   UNL     1      -0.672   0.595  25.045  0.00  0.00    +0.100 C 
ATOM     17  C   UNL     1       0.370   2.712  24.542  0.00  0.00    +0.100 C 
ATOM     20  C   UNL     1       0.167  -0.077  23.953  0.00  0.00    +0.100 C 
ATOM     21  C   UNL     1       1.209   2.039  23.451  0.00  0.00    +0.100 C 
BRANCH   4  24
ATOM     24  C   UNL     1       2.244  -0.015  22.727  0.00  0.00    +0.112 C 
BRANCH  24  25
ATOM     25  C   UNL     1       3.488   0.804  22.425  0.00  0.00    +0.174 C 
BRANCH  25   2
ATOM      2  O   UNL     1       4.314   0.823  23.581  0.00  0.00    -0.382 OA
ATOM     28  C   UNL     1       5.360  -0.135  23.490  0.00  0.00    +0.194 C 
ENDBRANCH  25   2
ENDBRANCH  24  25
ENDBRANCH   4  24
ENDBRANCH  12   3
ENDBRANCH   8  12
BRANCH  10  15
ATOM     15  C   UNL     1      -5.479  -0.139  24.585  0.00  0.00    +0.105 C 
BRANCH  15  23
ATOM      1  O   UNL     1      -3.722  -1.703  23.934  0.00  0.00    -0.425 OA
ATOM      5  N   UNL     1      -3.613  -1.038  26.068  0.00  0.00    -0.112 NA
ATOM      6  N   UNL     1      -2.569  -1.916  25.839  0.00  0.00    -0.113 NA
ATOM     23  C   UNL     1      -4.260  -0.945  24.929  0.00  0.00    +0.218 A 
ATOM     26  C   UNL     1      -2.672  -2.277  24.582  0.00  0.00    +0.214 A 
ATOM     27  C   UNL     1      -1.832  -3.193  23.799  0.00  0.00    +0.111 C 
ENDBRANCH  15  23
ENDBRANCH  10  15
TORSDOF 8
ENDMDL
MODEL 3
REMARK VINA RESULT:      -2.3      1.887      4.306
REMARK  Name = 45783903
REMARK  13 active torsions:
REMARK  status: ('A' for Active; 'I' for Inactive)
REMARK    1  A    between atoms: O_2  and  C_25
REMARK    2  A    between atoms: O_2  and  C_28
REMARK    3  A    between atoms: N_3  and  C_12
REMARK    4  A    between atoms: N_4  and  C_24
REMARK    5  A    between atoms: C_7  and  C_11
REMARK    6  A    between atoms: C_8  and  C_12
REMARK    7  A    between atoms: C_10  and  C_15
REMARK    8  A    between atoms: C_11  and  C_18
REMARK    9  A    between atoms: C_11  and  C_19
REMARK   10  A    between atoms: C_14  and  C_22
REMARK   11  A    between atoms: C_15  and  C_23
REMARK   12  A    between atoms: C_24  and  C_25
REMARK   13  A    between atoms: C_26  and  C_27
REMARK                            x       y       z     vdW  Elec       q    Type
REMARK                         _______ _______ _______ _____ _____    ______ ____
ROOT
ATOM      7  C   UNL     1      -1.268   3.365  24.465  0.00  0.00    +0.000 C 
ATOM      8  C   UNL     1      -1.487   3.431  25.994  0.00  0.00    +0.029 C 
ATOM      9  C   UNL     1      -2.351   2.502  23.802  0.00  0.00    +0.012 C 
ATOM     10  C   UNL     1      -3.786   2.990  24.094  0.00  0.00    +0.024 C 
ATOM     13  C   UNL     1      -2.933   3.650  26.362  0.00  0.00    -0.023 C 
ATOM     14  C   UNL     1      -3.972   3.470  25.525  0.00  0.00    -0.073 C 
ATOM     22  C   UNL     1      -5.370   3.802  25.970  0.00  0.00    +0.039 C 
ENDROOT
BRANCH   7  11
ATOM     11  C   UNL     1      -1.221   4.769  23.844  0.00  0.00    -0.013 C 
ATOM     18  C   UNL     1       0.062   4.953  23.039  0.00  0.00    +0.007 C 
ATOM     19  C   UNL     1      -1.336   5.834  24.931  0.00  0.00    +0.007 C 
ENDBRANCH   7  11
BRANCH   8  12
ATOM     12  C   UNL     1      -0.974   2.169  26.694  0.00  0.00    +0.092 C 
BRANCH  12   3
ATOM      3  N   UNL     1      -0.091   1.411  25.810  0.00  0.00    -0.299 NA
ATOM      4  N   UNL     1       0.703   0.388  23.225  0.00  0.00    -0.298 NA
ATOM     16  C   UNL     1       0.504   2.287  24.793  0.00  0.00    +0.100 C 
ATOM     17  C   UNL     1      -0.816   0.305  25.172  0.00  0.00    +0.100 C 
ATOM     20  C   UNL     1       1.428   1.494  23.863  0.00  0.00    +0.100 C 
ATOM     21  C   UNL     1       0.108  -0.488  24.241  0.00  0.00    +0.100 C 
BRANCH   4  24
ATOM     24  C   UNL     1       1.585  -0.369  22.338  0.00  0.00    +0.112 C 
BRANCH  24  25
ATOM     25  C   UNL     1       2.972   0.251  22.302  0.00  0.00    +0.174 C 
BRANCH  25   2
ATOM      2  O   UNL     1       3.851  -0.551  23.080  0.00  0.00    -0.382 OA
ATOM     28  C   UNL     1       5.068   0.129  23.358  0.00  0.00    +0.194 C 
ENDBRANCH  25   2
ENDBRANCH  24  25
ENDBRANCH   4  24
ENDBRANCH  12   3
ENDBRANCH   8  12
BRANCH  10  15
ATOM     15  C   UNL     1      -4.770   1.880  23.705  0.00  0.00    +0.105 C 
BRANCH  15  23
ATOM      1  O   UNL     1      -4.154  -0.479  23.588  0.00  0.00    -0.425 OA
ATOM      5  N   UNL     1      -4.371   0.310  25.670  0.00  0.00    -0.112 NA
ATOM      6  N   UNL     1      -4.025  -1.026  25.753  0.00  0.00    -0.113 NA
ATOM     23  C   UNL     1      -4.435   0.586  24.389  0.00  0.00    +0.218 A 
ATOM     26  C   UNL     1      -3.909  -1.445  24.516  0.00  0.00    +0.214 A 
ATOM     27  C   UNL     1      -3.561  -2.778  24.007  0.00  0.00    +0.111 C 
ENDBRANCH  15  23
ENDBRANCH  10  15
TORSDOF 8
ENDMDL
MODEL 4
REMARK VINA RESULT:      -1.3      1.846      2.998
REMARK  Name = 45783903
REMARK  13 active torsions:
REMARK  status: ('A' for Active; 'I' for Inactive)
REMARK    1  A    between atoms: O_2  and  C_25
REMARK    2  A    between atoms: O_2  and  C_28
REMARK    3  A    between atoms: N_3  and  C_12
REMARK    4  A    between atoms: N_4  and  C_24
REMARK    5  A    between atoms: C_7  and  C_11
REMARK    6  A    between atoms: C_8  and  C_12
REMARK    7  A    between atoms: C_10  and  C_15
REMARK    8  A    between atoms: C_11  and  C_18
REMARK    9  A    between atoms: C_11  and  C_19
REMARK   10  A    between atoms: C_14  and  C_22
REMARK   11  A    between atoms: C_15  and  C_23
REMARK   12  A    between atoms: C_24  and  C_25
REMARK   13  A    between atoms: C_26  and  C_27
REMARK                            x       y       z     vdW  Elec       q    Type
REMARK                         _______ _______ _______ _____ _____    ______ ____
ROOT
ATOM      7  C   UNL     1      -4.738   1.765  26.032  0.00  0.00    +0.000 C 
ATOM      8  C   UNL     1      -4.172   0.764  24.999  0.00  0.00    +0.029 C 
ATOM      9  C   UNL     1      -3.927   3.069  26.020  0.00  0.00    +0.012 C 
ATOM     10  C   UNL     1      -3.869   3.740  24.631  0.00  0.00    +0.024 C 
ATOM     13  C   UNL     1      -3.844   1.416  23.680  0.00  0.00    -0.023 C 
ATOM     14  C   UNL     1      -3.716   2.744  23.493  0.00  0.00    -0.073 C 
ATOM     22  C   UNL     1      -3.472   3.295  22.115  0.00  0.00    +0.039 C 
ENDROOT
BRANCH   7  11
ATOM     11  C   UNL     1      -6.229   2.039  25.788  0.00  0.00    -0.013 C 
ATOM     18  C   UNL     1      -7.048   1.664  27.019  0.00  0.00    +0.007 C 
ATOM     19  C   UNL     1      -6.716   1.275  24.560  0.00  0.00    +0.007 C 
ENDBRANCH   7  11
BRANCH   8  12
ATOM     12  C   UNL     1      -2.927   0.047  25.530  0.00  0.00    +0.092 C 
BRANCH  12   3
ATOM      3  N   UNL     1      -1.952  -0.157  24.460  0.00  0.00    -0.299 NA
ATOM      4  N   UNL     1       0.740  -0.230  23.411  0.00  0.00    -0.298 NA
ATOM     16  C   UNL     1      -1.032  -1.251  24.795  0.00  0.00    +0.100 C 
ATOM     17  C   UNL     1      -1.204   1.079  24.195  0.00  0.00    +0.100 C 
ATOM     20  C   UNL     1      -0.008  -1.464  23.675  0.00  0.00    +0.100 C 
ATOM     21  C   UNL     1      -0.179   0.865  23.076  0.00  0.00    +0.100 C 
BRANCH   4  24
ATOM     24  C   UNL     1       1.717  -0.432  22.342  0.00  0.00    +0.112 C 
BRANCH  24  25
ATOM     25  C   UNL     1       2.960   0.409  22.583  0.00  0.00    +0.174 C 
BRANCH  25   2
ATOM      2  O   UNL     1       3.959  -0.411  23.175  0.00  0.00    -0.382 OA
ATOM     28  C   UNL     1       5.147   0.324  23.440  0.00  0.00    +0.194 C 
ENDBRANCH  25   2
ENDBRANCH  24  25
ENDBRANCH   4  24
ENDBRANCH  12   3
ENDBRANCH   8  12
BRANCH  10  15
ATOM     15  C   UNL     1      -2.762   4.802  24.647  0.00  0.00    +0.105 C 
BRANCH  15  23
ATOM      1  O   UNL     1      -1.422   3.456  26.179  0.00  0.00    -0.425 OA
ATOM      5  N   UNL     1      -0.269   4.314  24.464  0.00  0.00    -0.112 NA
ATOM      6  N   UNL     1       0.607   3.583  25.246  0.00  0.00    -0.113 NA
ATOM     23  C   UNL     1      -1.441   4.212  25.047  0.00  0.00    +0.218 A 
ATOM     26  C   UNL     1      -0.109   3.101  26.234  0.00  0.00    +0.214 A 
ATOM     27  C   UNL     1       0.301   2.254  27.362  0.00  0.00    +0.111 C 
ENDBRANCH  15  23
ENDBRANCH  10  15
TORSDOF 8
ENDMDL
MODEL 5
REMARK VINA RESULT:      -0.5      2.138      6.284
REMARK  Name = 45783903
REMARK  13 active torsions:
REMARK  status: ('A' for Active; 'I' for Inactive)
REMARK    1  A    between atoms: O_2  and  C_25
REMARK    2  A    between atoms: O_2  and  C_28
REMARK    3  A    between atoms: N_3  and  C_12
REMARK    4  A    between atoms: N_4  and  C_24
REMARK    5  A    between atoms: C_7  and  C_11
REMARK    6  A    between atoms: C_8  and  C_12
REMARK    7  A    between atoms: C_10  and  C_15
REMARK    8  A    between atoms: C_11  and  C_18
REMARK    9  A    between atoms: C_11  and  C_19
REMARK   10  A    between atoms: C_14  and  C_22
REMARK   11  A    between atoms: C_15  and  C_23
REMARK   12  A    between atoms: C_24  and  C_25
REMARK   13  A    between atoms: C_26  and  C_27
REMARK                            x       y       z     vdW  Elec       q    Type
REMARK                         _______ _______ _______ _____ _____    ______ ____
ROOT
ATOM      7  C   UNL     1      -2.074   4.196  25.788  0.00  0.00    +0.000 C 
ATOM      8  C   UNL     1      -3.455   3.922  25.149  0.00  0.00    +0.029 C 
ATOM      9  C   UNL     1      -1.232   2.912  25.822  0.00  0.00    +0.012 C 
ATOM     10  C   UNL     1      -1.037   2.271  24.432  0.00  0.00    +0.024 C 
ATOM     13  C   UNL     1      -3.360   3.069  23.909  0.00  0.00    -0.023 C 
ATOM     14  C   UNL     1      -2.285   2.334  23.566  0.00  0.00    -0.073 C 
ATOM     22  C   UNL     1      -2.264   1.587  22.260  0.00  0.00    +0.039 C 
ENDROOT
BRANCH   7  11
ATOM     11  C   UNL     1      -1.332   5.324  25.059  0.00  0.00    -0.013 C 
ATOM     18  C   UNL     1      -2.286   6.082  24.141  0.00  0.00    +0.007 C 
ATOM     19  C   UNL     1      -0.153   4.763  24.270  0.00  0.00    +0.007 C 
ENDBRANCH   7  11
BRANCH   8  12
ATOM     12  C   UNL     1      -4.418   3.264  26.142  0.00  0.00    +0.092 C 
BRANCH  12   3
ATOM      3  N   UNL     1      -4.661   1.869  25.778  0.00  0.00    -0.299 NA
ATOM      4  N   UNL     1      -4.155  -0.508  24.213  0.00  0.00    -0.298 NA
ATOM     16  C   UNL     1      -3.456   1.057  25.991  0.00  0.00    +0.100 C 
ATOM     17  C   UNL     1      -5.108   1.765  24.383  0.00  0.00    +0.100 C 
ATOM     20  C   UNL     1      -3.709  -0.404  25.607  0.00  0.00    +0.100 C 
ATOM     21  C   UNL     1      -5.359   0.303  23.998  0.00  0.00    +0.100 C 
BRANCH   4  24
ATOM     24  C   UNL     1      -4.396  -1.902  23.846  0.00  0.00    +0.112 C 
BRANCH  24  25
ATOM     25  C   UNL     1      -3.469  -2.829  24.616  0.00  0.00    +0.174 C 
BRANCH  25   2
ATOM      2  O   UNL     1      -2.197  -2.831  23.982  0.00  0.00    -0.382 OA
ATOM     28  C   UNL     1      -1.156  -2.531  24.902  0.00  0.00    +0.194 C 
ENDBRANCH  25   2
ENDBRANCH  24  25
ENDBRANCH   4  24
ENDBRANCH  12   3
ENDBRANCH   8  12
BRANCH  10  15
ATOM     15  C   UNL     1      -0.514   0.842  24.620  0.00  0.00    +0.105 C 
BRANCH  15  23
ATOM      1  O   UNL     1       1.782   1.183  23.864  0.00  0.00    -0.425 OA
ATOM      5  N   UNL     1       0.619  -0.277  22.631  0.00  0.00    -0.112 NA
ATOM      6  N   UNL     1       1.889  -0.180  22.093  0.00  0.00    -0.113 NA
ATOM     23  C   UNL     1       0.601   0.536  23.661  0.00  0.00    +0.218 A 
ATOM     26  C   UNL     1       2.533   0.682  22.845  0.00  0.00    +0.214 A 
ATOM     27  C   UNL     1       3.915   1.168  22.739  0.00  0.00    +0.111 C 
ENDBRANCH  15  23
ENDBRANCH  10  15
TORSDOF 8
ENDMDL
