MODEL 1
REMARK VINA RESULT:      -1.2      0.000      0.000
REMARK  Name = 45360675
REMARK  9 active torsions:
REMARK  status: ('A' for Active; 'I' for Inactive)
REMARK    1  A    between atoms: N_4  and  C_9
REMARK    2  A    between atoms: N_4  and  C_17
REMARK    3  A    between atoms: N_6  and  C_26
REMARK    4  A    between atoms: N_7  and  C_25
REMARK    5  A    between atoms: C_11  and  C_15
REMARK    6  A    between atoms: C_15  and  C_16
REMARK    7  A    between atoms: C_16  and  C_19
REMARK    8  A    between atoms: C_17  and  C_18
REMARK    9  A    between atoms: C_25  and  C_29
REMARK                            x       y       z     vdW  Elec       q    Type
REMARK                         _______ _______ _______ _____ _____    ______ ____
ROOT
ATOM      1  O   UNL     1      -3.584   4.717  27.289  0.00  0.00    -0.274 OA
ATOM      3  N   UNL     1      -2.263   3.403  24.151  0.00  0.00    -0.286 NA
ATOM      5  N   UNL     1      -1.640   3.612  26.879  0.00  0.00    -0.313 N 
ATOM      8  C   UNL     1      -3.105   4.274  24.979  0.00  0.00    +0.145 C 
ATOM      9  C   UNL     1      -4.385   2.645  23.712  0.00  0.00    +0.070 C 
ATOM     10  C   UNL     1      -4.542   3.814  24.686  0.00  0.00    +0.048 C 
ATOM     11  C   UNL     1      -0.866   3.348  24.566  0.00  0.00    +0.075 C 
ATOM     12  C   UNL     1      -2.977   2.138  23.992  0.00  0.00    +0.104 C 
ATOM     13  C   UNL     1      -0.748   2.881  26.008  0.00  0.00    +0.123 C 
ATOM     14  C   UNL     1      -2.813   4.202  26.475  0.00  0.00    +0.230 C 
ATOM     36  H   UNL     1      -1.445   3.589  27.875  0.00  0.00    +0.149 HD
ENDROOT
BRANCH   9   4
ATOM      4  N   UNL     1      -5.410   1.626  23.874  0.00  0.00    -0.308 NA
ATOM     35  H   UNL     1      -6.328   2.059  23.766  0.00  0.00    +0.123 HD
BRANCH   4  17
ATOM     17  C   UNL     1      -5.330   1.008  25.192  0.00  0.00    +0.118 C 
BRANCH  17  18
ATOM      6  N   UNL     1      -2.166  -0.704  25.938  0.00  0.00    -0.349 N 
ATOM     18  C   UNL     1      -4.135   0.108  25.319  0.00  0.00    -0.008 A 
ATOM     20  C   UNL     1      -3.945  -1.142  24.667  0.00  0.00    +0.004 A 
ATOM     21  C   UNL     1      -3.025   0.349  26.093  0.00  0.00    +0.091 A 
ATOM     22  C   UNL     1      -2.702  -1.631  25.072  0.00  0.00    +0.049 A 
ATOM     23  C   UNL     1      -4.714  -1.908  23.768  0.00  0.00    +0.010 A 
ATOM     24  C   UNL     1      -2.185  -2.851  24.621  0.00  0.00    +0.026 A 
ATOM     26  C   UNL     1      -0.880  -0.812  26.595  0.00  0.00    +0.149 C 
ATOM     27  C   UNL     1      -4.211  -3.131  23.309  0.00  0.00    +0.001 A 
ATOM     28  C   UNL     1      -2.967  -3.593  23.730  0.00  0.00    +0.002 A 
ENDBRANCH  17  18
ENDBRANCH   4  17
ENDBRANCH   9   4
BRANCH  11  15
ATOM     15  C   UNL     1      -0.005   2.489  23.639  0.00  0.00    +0.029 C 
BRANCH  15  16
ATOM     16  C   UNL     1      -0.594   1.095  23.473  0.00  0.00    +0.097 C 
BRANCH  16  19
ATOM      2  O   UNL     1       0.545  -1.020  23.767  0.00  0.00    -0.276 OA
ATOM      7  N   UNL     1       1.336   0.477  22.179  0.00  0.00    -0.311 N 
ATOM     19  C   UNL     1       0.472   0.055  23.179  0.00  0.00    +0.213 C 
ATOM     37  H   UNL     1       1.222   1.397  21.763  0.00  0.00    +0.149 HD
BRANCH   7  25
ATOM     25  C   UNL     1       2.437  -0.336  21.719  0.00  0.00    +0.139 C 
BRANCH  25  29
ATOM     29  C   UNL     1       3.614  -0.266  22.649  0.00  0.00    -0.030 A 
ATOM     30  C   UNL     1       3.983  -1.388  23.391  0.00  0.00    +0.005 A 
ATOM     31  C   UNL     1       4.338   0.919  22.769  0.00  0.00    +0.005 A 
ATOM     32  C   UNL     1       5.077  -1.323  24.255  0.00  0.00    +0.000 A 
ATOM     33  C   UNL     1       5.432   0.984  23.633  0.00  0.00    +0.000 A 
ATOM     34  C   UNL     1       5.800  -0.137  24.375  0.00  0.00    +0.000 A 
ENDBRANCH  25  29
ENDBRANCH   7  25
ENDBRANCH  16  19
ENDBRANCH  15  16
ENDBRANCH  11  15
TORSDOF 8
ENDMDL
MODEL 2
REMARK VINA RESULT:      -1.1      0.717      1.756
REMARK  Name = 45360675
REMARK  9 active torsions:
REMARK  status: ('A' for Active; 'I' for Inactive)
REMARK    1  A    between atoms: N_4  and  C_9
REMARK    2  A    between atoms: N_4  and  C_17
REMARK    3  A    between atoms: N_6  and  C_26
REMARK    4  A    between atoms: N_7  and  C_25
REMARK    5  A    between atoms: C_11  and  C_15
REMARK    6  A    between atoms: C_15  and  C_16
REMARK    7  A    between atoms: C_16  and  C_19
REMARK    8  A    between atoms: C_17  and  C_18
REMARK    9  A    between atoms: C_25  and  C_29
REMARK                            x       y       z     vdW  Elec       q    Type
REMARK                         _______ _______ _______ _____ _____    ______ ____
ROOT
ATOM      1  O   UNL     1      -3.212   4.601  27.545  0.00  0.00    -0.274 OA
ATOM      3  N   UNL     1      -2.261   3.428  24.223  0.00  0.00    -0.286 NA
ATOM      5  N   UNL     1      -1.349   3.483  26.876  0.00  0.00    -0.313 N 
ATOM      8  C   UNL     1      -2.990   4.271  25.178  0.00  0.00    +0.145 C 
ATOM      9  C   UNL     1      -4.435   2.734  23.975  0.00  0.00    +0.070 C 
ATOM     10  C   UNL     1      -4.460   3.854  25.017  0.00  0.00    +0.048 C 
ATOM     11  C   UNL     1      -0.830   3.325  24.484  0.00  0.00    +0.075 C 
ATOM     12  C   UNL     1      -3.018   2.187  24.078  0.00  0.00    +0.104 C 
ATOM     13  C   UNL     1      -0.571   2.782  25.879  0.00  0.00    +0.123 C 
ATOM     14  C   UNL     1      -2.543   4.115  26.629  0.00  0.00    +0.230 C 
ATOM     36  H   UNL     1      -1.051   3.404  27.843  0.00  0.00    +0.149 HD
ENDROOT
BRANCH   9   4
ATOM      4  N   UNL     1      -5.462   1.728  24.194  0.00  0.00    -0.308 NA
ATOM     35  H   UNL     1      -6.352   2.195  24.368  0.00  0.00    +0.123 HD
BRANCH   4  17
ATOM     17  C   UNL     1      -5.135   0.888  25.340  0.00  0.00    +0.118 C 
BRANCH  17  18
ATOM      6  N   UNL     1      -3.993  -2.319  23.955  0.00  0.00    -0.349 N 
ATOM     18  C   UNL     1      -4.433  -0.374  24.929  0.00  0.00    -0.008 A 
ATOM     20  C   UNL     1      -3.142  -0.799  25.349  0.00  0.00    +0.004 A 
ATOM     21  C   UNL     1      -4.930  -1.329  24.072  0.00  0.00    +0.091 A 
ATOM     22  C   UNL     1      -2.890  -2.022  24.724  0.00  0.00    +0.049 A 
ATOM     23  C   UNL     1      -2.160  -0.259  26.203  0.00  0.00    +0.010 A 
ATOM     24  C   UNL     1      -1.701  -2.736  24.911  0.00  0.00    +0.026 A 
ATOM     26  C   UNL     1      -4.155  -3.503  23.138  0.00  0.00    +0.149 C 
ATOM     27  C   UNL     1      -0.965  -0.962  26.400  0.00  0.00    +0.001 A 
ATOM     28  C   UNL     1      -0.741  -2.180  25.763  0.00  0.00    +0.002 A 
ENDBRANCH  17  18
ENDBRANCH   4  17
ENDBRANCH   9   4
BRANCH  11  15
ATOM     15  C   UNL     1      -0.093   2.500  23.428  0.00  0.00    +0.029 C 
BRANCH  15  16
ATOM     16  C   UNL     1      -0.601   1.066  23.395  0.00  0.00    +0.097 C 
BRANCH  16  19
ATOM      2  O   UNL     1       0.628  -1.001  23.671  0.00  0.00    -0.276 OA
ATOM      7  N   UNL     1       1.347   0.537  22.088  0.00  0.00    -0.311 N 
ATOM     19  C   UNL     1       0.506   0.073  23.090  0.00  0.00    +0.213 C 
ATOM     37  H   UNL     1       1.193   1.453  21.678  0.00  0.00    +0.149 HD
BRANCH   7  25
ATOM     25  C   UNL     1       2.479  -0.226  21.618  0.00  0.00    +0.139 C 
BRANCH  25  29
ATOM     29  C   UNL     1       3.619  -0.200  22.596  0.00  0.00    -0.030 A 
ATOM     30  C   UNL     1       3.957  -1.353  23.304  0.00  0.00    +0.005 A 
ATOM     31  C   UNL     1       4.340   0.976  22.794  0.00  0.00    +0.005 A 
ATOM     32  C   UNL     1       5.016  -1.329  24.212  0.00  0.00    +0.000 A 
ATOM     33  C   UNL     1       5.400   1.001  23.701  0.00  0.00    +0.000 A 
ATOM     34  C   UNL     1       5.737  -0.152  24.410  0.00  0.00    +0.000 A 
ENDBRANCH  25  29
ENDBRANCH   7  25
ENDBRANCH  16  19
ENDBRANCH  15  16
ENDBRANCH  11  15
TORSDOF 8
ENDMDL
MODEL 3
REMARK VINA RESULT:      -1.1      1.571      6.782
REMARK  Name = 45360675
REMARK  9 active torsions:
REMARK  status: ('A' for Active; 'I' for Inactive)
REMARK    1  A    between atoms: N_4  and  C_9
REMARK    2  A    between atoms: N_4  and  C_17
REMARK    3  A    between atoms: N_6  and  C_26
REMARK    4  A    between atoms: N_7  and  C_25
REMARK    5  A    between atoms: C_11  and  C_15
REMARK    6  A    between atoms: C_15  and  C_16
REMARK    7  A    between atoms: C_16  and  C_19
REMARK    8  A    between atoms: C_17  and  C_18
REMARK    9  A    between atoms: C_25  and  C_29
REMARK                            x       y       z     vdW  Elec       q    Type
REMARK                         _______ _______ _______ _____ _____    ______ ____
ROOT
ATOM      1  O   UNL     1       0.871   2.482  26.735  0.00  0.00    -0.274 OA
ATOM      3  N   UNL     1      -2.147   2.182  24.705  0.00  0.00    -0.286 NA
ATOM      5  N   UNL     1      -0.317   4.088  25.649  0.00  0.00    -0.313 N 
ATOM      8  C   UNL     1      -1.181   1.755  25.724  0.00  0.00    +0.145 C 
ATOM      9  C   UNL     1      -1.187   0.321  23.764  0.00  0.00    +0.070 C 
ATOM     10  C   UNL     1      -0.539   0.487  25.140  0.00  0.00    +0.048 C 
ATOM     11  C   UNL     1      -2.568   3.573  24.822  0.00  0.00    +0.075 C 
ATOM     12  C   UNL     1      -1.636   1.732  23.412  0.00  0.00    +0.104 C 
ATOM     13  C   UNL     1      -1.372   4.508  24.756  0.00  0.00    +0.123 C 
ATOM     14  C   UNL     1      -0.114   2.792  26.059  0.00  0.00    +0.230 C 
ATOM     36  H   UNL     1       0.390   4.774  25.896  0.00  0.00    +0.149 HD
ENDROOT
BRANCH   9   4
ATOM      4  N   UNL     1      -0.292  -0.266  22.779  0.00  0.00    -0.308 NA
ATOM     35  H   UNL     1      -0.804  -0.964  22.239  0.00  0.00    +0.123 HD
BRANCH   4  17
ATOM     17  C   UNL     1       0.847  -0.907  23.424  0.00  0.00    +0.118 C 
BRANCH  17  18
ATOM      6  N   UNL     1       3.542   1.468  22.651  0.00  0.00    -0.349 N 
ATOM     18  C   UNL     1       2.121  -0.144  23.202  0.00  0.00    -0.008 A 
ATOM     20  C   UNL     1       3.440  -0.603  23.472  0.00  0.00    +0.004 A 
ATOM     21  C   UNL     1       2.216   1.132  22.699  0.00  0.00    +0.091 A 
ATOM     22  C   UNL     1       4.313   0.427  23.117  0.00  0.00    +0.049 A 
ATOM     23  C   UNL     1       3.977  -1.800  23.986  0.00  0.00    +0.010 A 
ATOM     24  C   UNL     1       5.702   0.320  23.250  0.00  0.00    +0.026 A 
ATOM     26  C   UNL     1       4.045   2.739  22.174  0.00  0.00    +0.149 C 
ATOM     27  C   UNL     1       5.365  -1.922  24.125  0.00  0.00    +0.001 A 
ATOM     28  C   UNL     1       6.212  -0.877  23.763  0.00  0.00    +0.002 A 
ENDBRANCH  17  18
ENDBRANCH   4  17
ENDBRANCH   9   4
BRANCH  11  15
ATOM     15  C   UNL     1      -3.627   3.961  23.790  0.00  0.00    +0.029 C 
BRANCH  15  16
ATOM     16  C   UNL     1      -5.000   4.098  24.433  0.00  0.00    +0.097 C 
BRANCH  16  19
ATOM      2  O   UNL     1      -5.594   3.312  26.644  0.00  0.00    -0.276 OA
ATOM      7  N   UNL     1      -5.008   1.765  25.015  0.00  0.00    -0.311 N 
ATOM     19  C   UNL     1      -5.240   3.044  25.499  0.00  0.00    +0.213 C 
ATOM     37  H   UNL     1      -4.688   1.633  24.060  0.00  0.00    +0.149 HD
BRANCH   7  25
ATOM     25  C   UNL     1      -5.167   0.590  25.838  0.00  0.00    +0.139 C 
BRANCH  25  29
ATOM     29  C   UNL     1      -4.409  -0.587  25.291  0.00  0.00    -0.030 A 
ATOM     30  C   UNL     1      -3.501  -1.268  26.100  0.00  0.00    +0.005 A 
ATOM     31  C   UNL     1      -4.616  -0.997  23.975  0.00  0.00    +0.005 A 
ATOM     32  C   UNL     1      -2.798  -2.361  25.593  0.00  0.00    +0.000 A 
ATOM     33  C   UNL     1      -3.914  -2.090  23.467  0.00  0.00    +0.000 A 
ATOM     34  C   UNL     1      -3.004  -2.771  24.275  0.00  0.00    +0.000 A 
ENDBRANCH  25  29
ENDBRANCH   7  25
ENDBRANCH  16  19
ENDBRANCH  15  16
ENDBRANCH  11  15
TORSDOF 8
ENDMDL
MODEL 4
REMARK VINA RESULT:       0.2      1.783      4.673
REMARK  Name = 45360675
REMARK  9 active torsions:
REMARK  status: ('A' for Active; 'I' for Inactive)
REMARK    1  A    between atoms: N_4  and  C_9
REMARK    2  A    between atoms: N_4  and  C_17
REMARK    3  A    between atoms: N_6  and  C_26
REMARK    4  A    between atoms: N_7  and  C_25
REMARK    5  A    between atoms: C_11  and  C_15
REMARK    6  A    between atoms: C_15  and  C_16
REMARK    7  A    between atoms: C_16  and  C_19
REMARK    8  A    between atoms: C_17  and  C_18
REMARK    9  A    between atoms: C_25  and  C_29
REMARK                            x       y       z     vdW  Elec       q    Type
REMARK                         _______ _______ _______ _____ _____    ______ ____
ROOT
ATOM      1  O   UNL     1      -4.325  -3.463  23.884  0.00  0.00    -0.274 OA
ATOM      3  N   UNL     1      -2.543  -0.515  25.089  0.00  0.00    -0.286 NA
ATOM      5  N   UNL     1      -2.214  -3.275  24.709  0.00  0.00    -0.313 N 
ATOM      8  C   UNL     1      -3.733  -1.304  24.750  0.00  0.00    +0.145 C 
ATOM      9  C   UNL     1      -3.408   0.602  23.280  0.00  0.00    +0.070 C 
ATOM     10  C   UNL     1      -4.359  -0.564  23.556  0.00  0.00    +0.048 C 
ATOM     11  C   UNL     1      -1.558  -1.229  25.893  0.00  0.00    +0.075 C 
ATOM     12  C   UNL     1      -2.084   0.124  23.858  0.00  0.00    +0.104 C 
ATOM     13  C   UNL     1      -1.096  -2.492  25.186  0.00  0.00    +0.123 C 
ATOM     14  C   UNL     1      -3.446  -2.758  24.390  0.00  0.00    +0.230 C 
ATOM     36  H   UNL     1      -2.042  -4.250  24.485  0.00  0.00    +0.149 HD
ENDROOT
BRANCH   9   4
ATOM      4  N   UNL     1      -3.332   0.954  21.871  0.00  0.00    -0.308 NA
ATOM     35  H   UNL     1      -2.547   0.461  21.447  0.00  0.00    +0.123 HD
BRANCH   4  17
ATOM     17  C   UNL     1      -3.139   2.389  21.700  0.00  0.00    +0.118 C 
BRANCH  17  18
ATOM      6  N   UNL     1      -1.904   4.246  24.620  0.00  0.00    -0.349 N 
ATOM     18  C   UNL     1      -2.887   3.082  23.008  0.00  0.00    -0.008 A 
ATOM     20  C   UNL     1      -3.783   3.157  24.111  0.00  0.00    +0.004 A 
ATOM     21  C   UNL     1      -1.742   3.761  23.351  0.00  0.00    +0.091 A 
ATOM     22  C   UNL     1      -3.141   3.893  25.110  0.00  0.00    +0.049 A 
ATOM     23  C   UNL     1      -5.081   2.669  24.357  0.00  0.00    +0.010 A 
ATOM     24  C   UNL     1      -3.735   4.166  26.347  0.00  0.00    +0.026 A 
ATOM     26  C   UNL     1      -0.906   5.016  25.332  0.00  0.00    +0.149 C 
ATOM     27  C   UNL     1      -5.689   2.935  25.591  0.00  0.00    +0.001 A 
ATOM     28  C   UNL     1      -5.024   3.672  26.568  0.00  0.00    +0.002 A 
ENDBRANCH  17  18
ENDBRANCH   4  17
ENDBRANCH   9   4
BRANCH  11  15
ATOM     15  C   UNL     1      -0.368  -0.354  26.288  0.00  0.00    +0.029 C 
BRANCH  15  16
ATOM     16  C   UNL     1      -0.484   1.040  25.688  0.00  0.00    +0.097 C 
BRANCH  16  19
ATOM      2  O   UNL     1       1.017   2.327  24.292  0.00  0.00    -0.276 OA
ATOM      7  N   UNL     1       0.671   0.082  23.809  0.00  0.00    -0.311 N 
ATOM     19  C   UNL     1       0.481   1.249  24.535  0.00  0.00    +0.213 C 
ATOM     37  H   UNL     1       0.166  -0.762  24.061  0.00  0.00    +0.149 HD
BRANCH   7  25
ATOM     25  C   UNL     1       1.545   0.023  22.661  0.00  0.00    +0.139 C 
BRANCH  25  29
ATOM     29  C   UNL     1       2.987  -0.116  23.060  0.00  0.00    -0.030 A 
ATOM     30  C   UNL     1       3.866   0.950  22.879  0.00  0.00    +0.005 A 
ATOM     31  C   UNL     1       3.444  -1.312  23.611  0.00  0.00    +0.005 A 
ATOM     32  C   UNL     1       5.205   0.821  23.249  0.00  0.00    +0.000 A 
ATOM     33  C   UNL     1       4.783  -1.442  23.982  0.00  0.00    +0.000 A 
ATOM     34  C   UNL     1       5.663  -0.376  23.801  0.00  0.00    +0.000 A 
ENDBRANCH  25  29
ENDBRANCH   7  25
ENDBRANCH  16  19
ENDBRANCH  15  16
ENDBRANCH  11  15
TORSDOF 8
ENDMDL
MODEL 5
REMARK VINA RESULT:       0.3      1.716      4.722
REMARK  Name = 45360675
REMARK  9 active torsions:
REMARK  status: ('A' for Active; 'I' for Inactive)
REMARK    1  A    between atoms: N_4  and  C_9
REMARK    2  A    between atoms: N_4  and  C_17
REMARK    3  A    between atoms: N_6  and  C_26
REMARK    4  A    between atoms: N_7  and  C_25
REMARK    5  A    between atoms: C_11  and  C_15
REMARK    6  A    between atoms: C_15  and  C_16
REMARK    7  A    between atoms: C_16  and  C_19
REMARK    8  A    between atoms: C_17  and  C_18
REMARK    9  A    between atoms: C_25  and  C_29
REMARK                            x       y       z     vdW  Elec       q    Type
REMARK                         _______ _______ _______ _____ _____    ______ ____
ROOT
ATOM      1  O   UNL     1      -3.993  -3.729  23.869  0.00  0.00    -0.274 OA
ATOM      3  N   UNL     1      -2.677  -0.832  25.656  0.00  0.00    -0.286 NA
ATOM      5  N   UNL     1      -1.865  -2.938  23.990  0.00  0.00    -0.313 N 
ATOM      8  C   UNL     1      -3.646  -1.900  25.384  0.00  0.00    +0.145 C 
ATOM      9  C   UNL     1      -4.521   0.316  24.913  0.00  0.00    +0.070 C 
ATOM     10  C   UNL     1      -4.910  -1.164  24.913  0.00  0.00    +0.048 C 
ATOM     11  C   UNL     1      -1.289  -1.277  25.701  0.00  0.00    +0.075 C 
ATOM     12  C   UNL     1      -3.005   0.283  24.771  0.00  0.00    +0.104 C 
ATOM     13  C   UNL     1      -0.893  -1.948  24.396  0.00  0.00    +0.123 C 
ATOM     14  C   UNL     1      -3.193  -2.914  24.338  0.00  0.00    +0.230 C 
ATOM     36  H   UNL     1      -1.571  -3.632  23.310  0.00  0.00    +0.149 HD
ENDROOT
BRANCH   9   4
ATOM      4  N   UNL     1      -5.185   1.080  23.869  0.00  0.00    -0.308 NA
ATOM     35  H   UNL     1      -4.525   1.248  23.109  0.00  0.00    +0.123 HD
BRANCH   4  17
ATOM     17  C   UNL     1      -5.656   2.362  24.378  0.00  0.00    +0.118 C 
BRANCH  17  18
ATOM      6  N   UNL     1      -3.526   4.013  26.877  0.00  0.00    -0.349 N 
ATOM     18  C   UNL     1      -4.603   3.069  25.182  0.00  0.00    -0.008 A 
ATOM     20  C   UNL     1      -3.350   3.543  24.704  0.00  0.00    +0.004 A 
ATOM     21  C   UNL     1      -4.682   3.372  26.521  0.00  0.00    +0.091 A 
ATOM     22  C   UNL     1      -2.694   4.132  25.786  0.00  0.00    +0.049 A 
ATOM     23  C   UNL     1      -2.709   3.529  23.449  0.00  0.00    +0.010 A 
ATOM     24  C   UNL     1      -1.424   4.710  25.678  0.00  0.00    +0.026 A 
ATOM     26  C   UNL     1      -3.238   4.493  28.211  0.00  0.00    +0.149 C 
ATOM     27  C   UNL     1      -1.438   4.103  23.325  0.00  0.00    +0.001 A 
ATOM     28  C   UNL     1      -0.807   4.683  24.424  0.00  0.00    +0.002 A 
ENDBRANCH  17  18
ENDBRANCH   4  17
ENDBRANCH   9   4
BRANCH  11  15
ATOM     15  C   UNL     1      -0.316  -0.153  26.058  0.00  0.00    +0.029 C 
BRANCH  15  16
ATOM     16  C   UNL     1      -0.531   1.065  25.170  0.00  0.00    +0.097 C 
BRANCH  16  19
ATOM      2  O   UNL     1       1.252   2.272  24.065  0.00  0.00    -0.276 OA
ATOM      7  N   UNL     1       0.758   0.109  23.379  0.00  0.00    -0.311 N 
ATOM     19  C   UNL     1       0.590   1.243  24.162  0.00  0.00    +0.213 C 
ATOM     37  H   UNL     1       0.147  -0.692  23.505  0.00  0.00    +0.149 HD
BRANCH   7  25
ATOM     25  C   UNL     1       1.763   0.030  22.345  0.00  0.00    +0.139 C 
BRANCH  25  29
ATOM     29  C   UNL     1       3.143  -0.137  22.914  0.00  0.00    -0.030 A 
ATOM     30  C   UNL     1       4.053   0.917  22.855  0.00  0.00    +0.005 A 
ATOM     31  C   UNL     1       3.513  -1.346  23.502  0.00  0.00    +0.005 A 
ATOM     32  C   UNL     1       5.335   0.763  23.383  0.00  0.00    +0.000 A 
ATOM     33  C   UNL     1       4.794  -1.501  24.031  0.00  0.00    +0.000 A 
ATOM     34  C   UNL     1       5.705  -0.447  23.971  0.00  0.00    +0.000 A 
ENDBRANCH  25  29
ENDBRANCH   7  25
ENDBRANCH  16  19
ENDBRANCH  15  16
ENDBRANCH  11  15
TORSDOF 8
ENDMDL
MODEL 6
REMARK VINA RESULT:       0.9      1.866      4.718
REMARK  Name = 45360675
REMARK  9 active torsions:
REMARK  status: ('A' for Active; 'I' for Inactive)
REMARK    1  A    between atoms: N_4  and  C_9
REMARK    2  A    between atoms: N_4  and  C_17
REMARK    3  A    between atoms: N_6  and  C_26
REMARK    4  A    between atoms: N_7  and  C_25
REMARK    5  A    between atoms: C_11  and  C_15
REMARK    6  A    between atoms: C_15  and  C_16
REMARK    7  A    between atoms: C_16  and  C_19
REMARK    8  A    between atoms: C_17  and  C_18
REMARK    9  A    between atoms: C_25  and  C_29
REMARK                            x       y       z     vdW  Elec       q    Type
REMARK                         _______ _______ _______ _____ _____    ______ ____
ROOT
ATOM      1  O   UNL     1      -3.953  -3.686  24.246  0.00  0.00    -0.274 OA
ATOM      3  N   UNL     1      -2.537  -0.773  25.926  0.00  0.00    -0.286 NA
ATOM      5  N   UNL     1      -1.980  -2.615  23.885  0.00  0.00    -0.313 N 
ATOM      8  C   UNL     1      -3.414  -1.944  25.806  0.00  0.00    +0.145 C 
ATOM      9  C   UNL     1      -4.634   0.156  25.829  0.00  0.00    +0.070 C 
ATOM     10  C   UNL     1      -4.835  -1.359  25.770  0.00  0.00    +0.048 C 
ATOM     11  C   UNL     1      -1.149  -1.021  25.554  0.00  0.00    +0.075 C 
ATOM     12  C   UNL     1      -3.224   0.348  25.288  0.00  0.00    +0.104 C 
ATOM     13  C   UNL     1      -1.055  -1.531  24.125  0.00  0.00    +0.123 C 
ATOM     14  C   UNL     1      -3.154  -2.804  24.573  0.00  0.00    +0.230 C 
ATOM     36  H   UNL     1      -1.809  -3.208  23.079  0.00  0.00    +0.149 HD
ENDROOT
BRANCH   9   4
ATOM      4  N   UNL     1      -5.644   0.895  25.088  0.00  0.00    -0.308 NA
ATOM     35  H   UNL     1      -5.655   0.565  24.123  0.00  0.00    +0.123 HD
BRANCH   4  17
ATOM     17  C   UNL     1      -5.360   2.324  25.098  0.00  0.00    +0.118 C 
BRANCH  17  18
ATOM      6  N   UNL     1      -2.717   2.730  22.577  0.00  0.00    -0.349 N 
ATOM     18  C   UNL     1      -4.160   2.664  24.260  0.00  0.00    -0.008 A 
ATOM     20  C   UNL     1      -3.093   3.531  24.624  0.00  0.00    +0.004 A 
ATOM     21  C   UNL     1      -3.901   2.188  22.996  0.00  0.00    +0.091 A 
ATOM     22  C   UNL     1      -2.200   3.555  23.551  0.00  0.00    +0.049 A 
ATOM     23  C   UNL     1      -2.799   4.300  25.767  0.00  0.00    +0.010 A 
ATOM     24  C   UNL     1      -1.023   4.312  23.562  0.00  0.00    +0.026 A 
ATOM     26  C   UNL     1      -2.108   2.463  21.291  0.00  0.00    +0.149 C 
ATOM     27  C   UNL     1      -1.625   5.063  25.794  0.00  0.00    +0.001 A 
ATOM     28  C   UNL     1      -0.753   5.068  24.707  0.00  0.00    +0.002 A 
ENDBRANCH  17  18
ENDBRANCH   4  17
ENDBRANCH   9   4
BRANCH  11  15
ATOM     15  C   UNL     1      -0.252   0.200  25.761  0.00  0.00    +0.029 C 
BRANCH  15  16
ATOM     16  C   UNL     1      -0.399   1.193  24.617  0.00  0.00    +0.097 C 
BRANCH  16  19
ATOM      2  O   UNL     1       1.638   2.264  23.868  0.00  0.00    -0.276 OA
ATOM      7  N   UNL     1       1.040   0.214  22.958  0.00  0.00    -0.311 N 
ATOM     19  C   UNL     1       0.870   1.309  23.793  0.00  0.00    +0.213 C 
ATOM     37  H   UNL     1       0.340  -0.522  22.936  0.00  0.00    +0.149 HD
BRANCH   7  25
ATOM     25  C   UNL     1       2.173   0.089  22.073  0.00  0.00    +0.139 C 
BRANCH  25  29
ATOM     29  C   UNL     1       3.451  -0.151  22.825  0.00  0.00    -0.030 A 
ATOM     30  C   UNL     1       3.658  -1.365  23.479  0.00  0.00    +0.005 A 
ATOM     31  C   UNL     1       4.430   0.841  22.868  0.00  0.00    +0.005 A 
ATOM     32  C   UNL     1       4.845  -1.587  24.178  0.00  0.00    +0.000 A 
ATOM     33  C   UNL     1       5.617   0.619  23.567  0.00  0.00    +0.000 A 
ATOM     34  C   UNL     1       5.824  -0.595  24.221  0.00  0.00    +0.000 A 
ENDBRANCH  25  29
ENDBRANCH   7  25
ENDBRANCH  16  19
ENDBRANCH  15  16
ENDBRANCH  11  15
TORSDOF 8
ENDMDL
MODEL 7
REMARK VINA RESULT:       1.2      1.452      2.612
REMARK  Name = 45360675
REMARK  9 active torsions:
REMARK  status: ('A' for Active; 'I' for Inactive)
REMARK    1  A    between atoms: N_4  and  C_9
REMARK    2  A    between atoms: N_4  and  C_17
REMARK    3  A    between atoms: N_6  and  C_26
REMARK    4  A    between atoms: N_7  and  C_25
REMARK    5  A    between atoms: C_11  and  C_15
REMARK    6  A    between atoms: C_15  and  C_16
REMARK    7  A    between atoms: C_16  and  C_19
REMARK    8  A    between atoms: C_17  and  C_18
REMARK    9  A    between atoms: C_25  and  C_29
REMARK                            x       y       z     vdW  Elec       q    Type
REMARK                         _______ _______ _______ _____ _____    ______ ____
ROOT
ATOM      1  O   UNL     1      -6.205   4.920  25.760  0.00  0.00    -0.274 OA
ATOM      3  N   UNL     1      -3.209   3.136  24.684  0.00  0.00    -0.286 NA
ATOM      5  N   UNL     1      -4.067   5.078  26.517  0.00  0.00    -0.313 N 
ATOM      8  C   UNL     1      -4.569   3.665  24.530  0.00  0.00    +0.145 C 
ATOM      9  C   UNL     1      -4.501   1.240  24.627  0.00  0.00    +0.070 C 
ATOM     10  C   UNL     1      -5.463   2.417  24.457  0.00  0.00    +0.048 C 
ATOM     11  C   UNL     1      -2.244   4.099  25.200  0.00  0.00    +0.075 C 
ATOM     12  C   UNL     1      -3.321   1.851  25.369  0.00  0.00    +0.104 C 
ATOM     13  C   UNL     1      -2.689   4.643  26.548  0.00  0.00    +0.123 C 
ATOM     14  C   UNL     1      -5.021   4.584  25.661  0.00  0.00    +0.230 C 
ATOM     36  H   UNL     1      -4.377   5.706  27.252  0.00  0.00    +0.149 HD
ENDROOT
BRANCH   9   4
ATOM      4  N   UNL     1      -5.101   0.110  25.320  0.00  0.00    -0.308 NA
ATOM     35  H   UNL     1      -4.488  -0.174  26.085  0.00  0.00    +0.123 HD
BRANCH   4  17
ATOM     17  C   UNL     1      -5.284  -1.020  24.417  0.00  0.00    +0.118 C 
BRANCH  17  18
ATOM      6  N   UNL     1      -2.577  -3.356  23.568  0.00  0.00    -0.349 N 
ATOM     18  C   UNL     1      -4.023  -1.817  24.251  0.00  0.00    -0.008 A 
ATOM     20  C   UNL     1      -2.778  -1.575  24.896  0.00  0.00    +0.004 A 
ATOM     21  C   UNL     1      -3.868  -2.918  23.441  0.00  0.00    +0.091 A 
ATOM     22  C   UNL     1      -1.888  -2.555  24.451  0.00  0.00    +0.049 A 
ATOM     23  C   UNL     1      -2.321  -0.614  25.819  0.00  0.00    +0.010 A 
ATOM     24  C   UNL     1      -0.559  -2.623  24.884  0.00  0.00    +0.026 A 
ATOM     26  C   UNL     1      -2.032  -4.501  22.870  0.00  0.00    +0.149 C 
ATOM     27  C   UNL     1      -0.993  -0.668  26.261  0.00  0.00    +0.001 A 
ATOM     28  C   UNL     1      -0.129  -1.657  25.799  0.00  0.00    +0.002 A 
ENDBRANCH  17  18
ENDBRANCH   4  17
ENDBRANCH   9   4
BRANCH  11  15
ATOM     15  C   UNL     1      -0.825   3.535  25.277  0.00  0.00    +0.029 C 
BRANCH  15  16
ATOM     16  C   UNL     1      -0.216   3.381  23.891  0.00  0.00    +0.097 C 
BRANCH  16  19
ATOM      2  O   UNL     1      -1.064   1.240  23.143  0.00  0.00    -0.276 OA
ATOM      7  N   UNL     1       1.213   1.482  23.523  0.00  0.00    -0.311 N 
ATOM     19  C   UNL     1      -0.101   1.925  23.475  0.00  0.00    +0.213 C 
ATOM     37  H   UNL     1       1.949   2.107  23.837  0.00  0.00    +0.149 HD
BRANCH   7  25
ATOM     25  C   UNL     1       1.583   0.131  23.174  0.00  0.00    +0.139 C 
BRANCH  25  29
ATOM     29  C   UNL     1       3.060  -0.102  23.319  0.00  0.00    -0.030 A 
ATOM     30  C   UNL     1       3.960   0.922  23.023  0.00  0.00    +0.005 A 
ATOM     31  C   UNL     1       3.531  -1.342  23.750  0.00  0.00    +0.005 A 
ATOM     32  C   UNL     1       5.331   0.705  23.158  0.00  0.00    +0.000 A 
ATOM     33  C   UNL     1       4.903  -1.558  23.885  0.00  0.00    +0.000 A 
ATOM     34  C   UNL     1       5.802  -0.535  23.589  0.00  0.00    +0.000 A 
ENDBRANCH  25  29
ENDBRANCH   7  25
ENDBRANCH  16  19
ENDBRANCH  15  16
ENDBRANCH  11  15
TORSDOF 8
ENDMDL
MODEL 8
REMARK VINA RESULT:       2.3      1.842      3.468
REMARK  Name = 45360675
REMARK  9 active torsions:
REMARK  status: ('A' for Active; 'I' for Inactive)
REMARK    1  A    between atoms: N_4  and  C_9
REMARK    2  A    between atoms: N_4  and  C_17
REMARK    3  A    between atoms: N_6  and  C_26
REMARK    4  A    between atoms: N_7  and  C_25
REMARK    5  A    between atoms: C_11  and  C_15
REMARK    6  A    between atoms: C_15  and  C_16
REMARK    7  A    between atoms: C_16  and  C_19
REMARK    8  A    between atoms: C_17  and  C_18
REMARK    9  A    between atoms: C_25  and  C_29
REMARK                            x       y       z     vdW  Elec       q    Type
REMARK                         _______ _______ _______ _____ _____    ______ ____
ROOT
ATOM      1  O   UNL     1       1.736   3.620  27.598  0.00  0.00    -0.274 OA
ATOM      3  N   UNL     1      -0.567   1.659  25.556  0.00  0.00    -0.286 NA
ATOM      5  N   UNL     1       0.541   1.761  28.131  0.00  0.00    -0.313 N 
ATOM      8  C   UNL     1       0.539   2.596  25.787  0.00  0.00    +0.145 C 
ATOM      9  C   UNL     1      -1.412   3.656  24.801  0.00  0.00    +0.070 C 
ATOM     10  C   UNL     1       0.018   3.944  25.261  0.00  0.00    +0.048 C 
ATOM     11  C   UNL     1      -0.491   0.435  26.344  0.00  0.00    +0.075 C 
ATOM     12  C   UNL     1      -1.806   2.431  25.615  0.00  0.00    +0.104 C 
ATOM     13  C   UNL     1      -0.447   0.750  27.830  0.00  0.00    +0.123 C 
ATOM     14  C   UNL     1       0.970   2.719  27.245  0.00  0.00    +0.230 C 
ATOM     36  H   UNL     1       0.853   1.840  29.094  0.00  0.00    +0.149 HD
ENDROOT
BRANCH   9   4
ATOM      4  N   UNL     1      -2.308   4.787  24.983  0.00  0.00    -0.308 NA
ATOM     35  H   UNL     1      -2.515   4.890  25.976  0.00  0.00    +0.123 HD
BRANCH   4  17
ATOM     17  C   UNL     1      -3.556   4.587  24.257  0.00  0.00    +0.118 C 
BRANCH  17  18
ATOM      6  N   UNL     1      -5.690   2.067  25.868  0.00  0.00    -0.349 N 
ATOM     18  C   UNL     1      -4.299   3.374  24.739  0.00  0.00    -0.008 A 
ATOM     20  C   UNL     1      -4.142   2.042  24.263  0.00  0.00    +0.004 A 
ATOM     21  C   UNL     1      -5.258   3.357  25.724  0.00  0.00    +0.091 A 
ATOM     22  C   UNL     1      -5.026   1.241  24.989  0.00  0.00    +0.049 A 
ATOM     23  C   UNL     1      -3.330   1.439  23.282  0.00  0.00    +0.010 A 
ATOM     24  C   UNL     1      -5.141  -0.138  24.783  0.00  0.00    +0.026 A 
ATOM     26  C   UNL     1      -6.701   1.646  26.816  0.00  0.00    +0.149 C 
ATOM     27  C   UNL     1      -3.433   0.059  23.065  0.00  0.00    +0.001 A 
ATOM     28  C   UNL     1      -4.325  -0.714  23.804  0.00  0.00    +0.002 A 
ENDBRANCH  17  18
ENDBRANCH   4  17
ENDBRANCH   9   4
BRANCH  11  15
ATOM     15  C   UNL     1      -1.619  -0.547  26.025  0.00  0.00    +0.029 C 
BRANCH  15  16
ATOM     16  C   UNL     1      -1.074  -1.837  25.427  0.00  0.00    +0.097 C 
BRANCH  16  19
ATOM      2  O   UNL     1      -0.856  -2.248  23.052  0.00  0.00    -0.276 OA
ATOM      7  N   UNL     1       0.499  -0.649  24.049  0.00  0.00    -0.311 N 
ATOM     19  C   UNL     1      -0.489  -1.623  24.043  0.00  0.00    +0.213 C 
ATOM     37  H   UNL     1       0.763  -0.199  24.921  0.00  0.00    +0.149 HD
BRANCH   7  25
ATOM     25  C   UNL     1       1.209  -0.264  22.853  0.00  0.00    +0.139 C 
BRANCH  25  29
ATOM     29  C   UNL     1       2.693  -0.197  23.077  0.00  0.00    -0.030 A 
ATOM     30  C   UNL     1       3.398   0.954  22.730  0.00  0.00    +0.005 A 
ATOM     31  C   UNL     1       3.363  -1.286  23.633  0.00  0.00    +0.005 A 
ATOM     32  C   UNL     1       4.777   1.017  22.937  0.00  0.00    +0.000 A 
ATOM     33  C   UNL     1       4.741  -1.223  23.841  0.00  0.00    +0.000 A 
ATOM     34  C   UNL     1       5.447  -0.072  23.493  0.00  0.00    +0.000 A 
ENDBRANCH  25  29
ENDBRANCH   7  25
ENDBRANCH  16  19
ENDBRANCH  15  16
ENDBRANCH  11  15
TORSDOF 8
ENDMDL
MODEL 9
REMARK VINA RESULT:       2.5      2.574      4.624
REMARK  Name = 45360675
REMARK  9 active torsions:
REMARK  status: ('A' for Active; 'I' for Inactive)
REMARK    1  A    between atoms: N_4  and  C_9
REMARK    2  A    between atoms: N_4  and  C_17
REMARK    3  A    between atoms: N_6  and  C_26
REMARK    4  A    between atoms: N_7  and  C_25
REMARK    5  A    between atoms: C_11  and  C_15
REMARK    6  A    between atoms: C_15  and  C_16
REMARK    7  A    between atoms: C_16  and  C_19
REMARK    8  A    between atoms: C_17  and  C_18
REMARK    9  A    between atoms: C_25  and  C_29
REMARK                            x       y       z     vdW  Elec       q    Type
REMARK                         _______ _______ _______ _____ _____    ______ ____
ROOT
ATOM      1  O   UNL     1      -7.088   1.847  27.192  0.00  0.00    -0.274 OA
ATOM      3  N   UNL     1      -4.949   2.589  24.330  0.00  0.00    -0.286 NA
ATOM      5  N   UNL     1      -5.300   3.243  27.036  0.00  0.00    -0.313 N 
ATOM      8  C   UNL     1      -6.177   2.130  24.989  0.00  0.00    +0.145 C 
ATOM      9  C   UNL     1      -4.969   0.338  23.881  0.00  0.00    +0.070 C 
ATOM     10  C   UNL     1      -6.240   0.625  24.682  0.00  0.00    +0.048 C 
ATOM     11  C   UNL     1      -4.445   3.865  24.823  0.00  0.00    +0.075 C 
ATOM     12  C   UNL     1      -4.026   1.457  24.300  0.00  0.00    +0.104 C 
ATOM     13  C   UNL     1      -4.177   3.801  26.317  0.00  0.00    +0.123 C 
ATOM     14  C   UNL     1      -6.215   2.373  26.495  0.00  0.00    +0.230 C 
ATOM     36  H   UNL     1      -5.349   3.413  28.035  0.00  0.00    +0.149 HD
ENDROOT
BRANCH   9   4
ATOM      4  N   UNL     1      -4.432  -0.992  24.120  0.00  0.00    -0.308 NA
ATOM     35  H   UNL     1      -5.204  -1.657  24.172  0.00  0.00    +0.123 HD
BRANCH   4  17
ATOM     17  C   UNL     1      -3.683  -1.037  25.369  0.00  0.00    +0.118 C 
BRANCH  17  18
ATOM      6  N   UNL     1      -0.194  -2.177  25.190  0.00  0.00    -0.349 N 
ATOM     18  C   UNL     1      -2.217  -1.269  25.137  0.00  0.00    -0.008 A 
ATOM     20  C   UNL     1      -1.339  -0.441  24.384  0.00  0.00    +0.004 A 
ATOM     21  C   UNL     1      -1.484  -2.328  25.619  0.00  0.00    +0.091 A 
ATOM     22  C   UNL     1      -0.075  -1.033  24.433  0.00  0.00    +0.049 A 
ATOM     23  C   UNL     1      -1.498   0.758  23.662  0.00  0.00    +0.010 A 
ATOM     24  C   UNL     1       1.043  -0.484  23.795  0.00  0.00    +0.026 A 
ATOM     26  C   UNL     1       0.881  -3.096  25.498  0.00  0.00    +0.149 C 
ATOM     27  C   UNL     1      -0.389   1.320  23.018  0.00  0.00    +0.001 A 
ATOM     28  C   UNL     1       0.860   0.707  23.084  0.00  0.00    +0.002 A 
ENDBRANCH  17  18
ENDBRANCH   4  17
ENDBRANCH   9   4
BRANCH  11  15
ATOM     15  C   UNL     1      -3.207   4.347  24.063  0.00  0.00    +0.029 C 
BRANCH  15  16
ATOM     16  C   UNL     1      -2.174   4.938  25.012  0.00  0.00    +0.097 C 
BRANCH  16  19
ATOM      2  O   UNL     1      -0.040   4.350  24.033  0.00  0.00    -0.276 OA
ATOM      7  N   UNL     1      -0.679   3.352  26.029  0.00  0.00    -0.311 N 
ATOM     19  C   UNL     1      -0.848   4.201  24.945  0.00  0.00    +0.213 C 
ATOM     37  H   UNL     1      -1.412   3.267  26.727  0.00  0.00    +0.149 HD
BRANCH   7  25
ATOM     25  C   UNL     1       0.502   2.539  26.194  0.00  0.00    +0.139 C 
BRANCH  25  29
ATOM     29  C   UNL     1       1.033   2.597  27.598  0.00  0.00    -0.030 A 
ATOM     30  C   UNL     1       2.376   2.894  27.823  0.00  0.00    +0.005 A 
ATOM     31  C   UNL     1       0.182   2.355  28.675  0.00  0.00    +0.005 A 
ATOM     32  C   UNL     1       2.870   2.948  29.127  0.00  0.00    +0.000 A 
ATOM     33  C   UNL     1       0.674   2.409  29.980  0.00  0.00    +0.000 A 
ATOM     34  C   UNL     1       2.018   2.705  30.205  0.00  0.00    +0.000 A 
ENDBRANCH  25  29
ENDBRANCH   7  25
ENDBRANCH  16  19
ENDBRANCH  15  16
ENDBRANCH  11  15
TORSDOF 8
ENDMDL
MODEL 10
REMARK VINA RESULT:       2.6      2.010      3.703
REMARK  Name = 45360675
REMARK  9 active torsions:
REMARK  status: ('A' for Active; 'I' for Inactive)
REMARK    1  A    between atoms: N_4  and  C_9
REMARK    2  A    between atoms: N_4  and  C_17
REMARK    3  A    between atoms: N_6  and  C_26
REMARK    4  A    between atoms: N_7  and  C_25
REMARK    5  A    between atoms: C_11  and  C_15
REMARK    6  A    between atoms: C_15  and  C_16
REMARK    7  A    between atoms: C_16  and  C_19
REMARK    8  A    between atoms: C_17  and  C_18
REMARK    9  A    between atoms: C_25  and  C_29
REMARK                            x       y       z     vdW  Elec       q    Type
REMARK                         _______ _______ _______ _____ _____    ______ ____
ROOT
ATOM      1  O   UNL     1      -0.007   4.490  24.595  0.00  0.00    -0.274 OA
ATOM      3  N   UNL     1      -1.127   1.025  24.353  0.00  0.00    -0.286 NA
ATOM      5  N   UNL     1      -0.706   3.069  26.227  0.00  0.00    -0.313 N 
ATOM      8  C   UNL     1      -0.418   2.229  23.902  0.00  0.00    +0.145 C 
ATOM      9  C   UNL     1      -2.315   1.663  22.495  0.00  0.00    +0.070 C 
ATOM     10  C   UNL     1      -1.170   2.668  22.636  0.00  0.00    +0.048 C 
ATOM     11  C   UNL     1      -0.884   0.671  25.746  0.00  0.00    +0.075 C 
ATOM     12  C   UNL     1      -2.515   1.153  23.915  0.00  0.00    +0.104 C 
ATOM     13  C   UNL     1      -1.269   1.814  26.670  0.00  0.00    +0.123 C 
ATOM     14  C   UNL     1      -0.381   3.360  24.924  0.00  0.00    +0.230 C 
ATOM     36  H   UNL     1      -0.657   3.825  26.903  0.00  0.00    +0.149 HD
ENDROOT
BRANCH   9   4
ATOM      4  N   UNL     1      -3.514   2.243  21.912  0.00  0.00    -0.308 NA
ATOM     35  H   UNL     1      -3.410   2.273  20.898  0.00  0.00    +0.123 HD
BRANCH   4  17
ATOM     17  C   UNL     1      -3.733   3.597  22.405  0.00  0.00    +0.118 C 
BRANCH  17  18
ATOM      6  N   UNL     1      -3.910   4.150  26.034  0.00  0.00    -0.349 N 
ATOM     18  C   UNL     1      -4.006   3.620  23.882  0.00  0.00    -0.008 A 
ATOM     20  C   UNL     1      -4.949   2.815  24.580  0.00  0.00    +0.004 A 
ATOM     21  C   UNL     1      -3.384   4.430  24.802  0.00  0.00    +0.091 A 
ATOM     22  C   UNL     1      -4.868   3.167  25.929  0.00  0.00    +0.049 A 
ATOM     23  C   UNL     1      -5.866   1.818  24.193  0.00  0.00    +0.010 A 
ATOM     24  C   UNL     1      -5.662   2.570  26.915  0.00  0.00    +0.026 A 
ATOM     26  C   UNL     1      -3.504   4.800  27.262  0.00  0.00    +0.149 C 
ATOM     27  C   UNL     1      -6.667   1.212  25.169  0.00  0.00    +0.001 A 
ATOM     28  C   UNL     1      -6.565   1.584  26.507  0.00  0.00    +0.002 A 
ENDBRANCH  17  18
ENDBRANCH   4  17
ENDBRANCH   9   4
BRANCH  11  15
ATOM     15  C   UNL     1      -1.579  -0.627  26.158  0.00  0.00    +0.029 C 
BRANCH  15  16
ATOM     16  C   UNL     1      -0.843  -1.844  25.616  0.00  0.00    +0.097 C 
BRANCH  16  19
ATOM      2  O   UNL     1      -1.004  -2.017  23.208  0.00  0.00    -0.276 OA
ATOM      7  N   UNL     1       0.850  -0.980  24.144  0.00  0.00    -0.311 N 
ATOM     19  C   UNL     1      -0.370  -1.638  24.189  0.00  0.00    +0.213 C 
ATOM     37  H   UNL     1       1.323  -0.725  25.006  0.00  0.00    +0.149 HD
BRANCH   7  25
ATOM     25  C   UNL     1       1.511  -0.666  22.899  0.00  0.00    +0.139 C 
BRANCH  25  29
ATOM     29  C   UNL     1       2.969  -0.367  23.097  0.00  0.00    -0.030 A 
ATOM     30  C   UNL     1       3.490   0.862  22.691  0.00  0.00    +0.005 A 
ATOM     31  C   UNL     1       3.802  -1.317  23.687  0.00  0.00    +0.005 A 
ATOM     32  C   UNL     1       4.844   1.140  22.874  0.00  0.00    +0.000 A 
ATOM     33  C   UNL     1       5.157  -1.038  23.871  0.00  0.00    +0.000 A 
ATOM     34  C   UNL     1       5.677   0.190  23.464  0.00  0.00    +0.000 A 
ENDBRANCH  25  29
ENDBRANCH   7  25
ENDBRANCH  16  19
ENDBRANCH  15  16
ENDBRANCH  11  15
TORSDOF 8
ENDMDL
