MODEL 1
REMARK VINA RESULT:      -6.7      0.000      0.000
REMARK  Name = 56775608
REMARK  8 active torsions:
REMARK  status: ('A' for Active; 'I' for Inactive)
REMARK    1  A    between atoms: O_6  and  C_23
REMARK    2  A    between atoms: N_7  and  C_9
REMARK    3  A    between atoms: N_7  and  C_13
REMARK    4  A    between atoms: C_9  and  C_12
REMARK    5  A    between atoms: C_12  and  C_14
REMARK    6  A    between atoms: C_13  and  C_15
REMARK    7  A    between atoms: C_17  and  C_23
REMARK    8  A    between atoms: C_22  and  C_24
REMARK                            x       y       z     vdW  Elec       q    Type
REMARK                         _______ _______ _______ _____ _____    ______ ____
ROOT
ATOM      7  N   UNL     1      -3.276   3.855  25.525  0.00  0.00    -0.302 NA
ATOM     25  H   UNL     1      -3.698   4.759  25.734  0.00  0.00    +0.123 HD
ENDROOT
BRANCH   7   9
ATOM      4  O   UNL     1      -1.169   5.293  23.887  0.00  0.00    -0.376 OA
ATOM      9  C   UNL     1      -1.824   3.874  25.340  0.00  0.00    +0.072 C 
ATOM     10  C   UNL     1      -1.350   5.323  25.321  0.00  0.00    +0.184 C 
ATOM     11  C   UNL     1      -1.518   3.891  23.847  0.00  0.00    +0.184 C 
BRANCH   9  12
ATOM     12  C   UNL     1      -1.111   2.890  26.217  0.00  0.00    +0.085 C 
BRANCH  12  14
ATOM      5  O   UNL     1      -0.233  -0.322  24.813  0.00  0.00    -0.357 OA
ATOM      8  N   UNL     1      -0.868   0.477  25.757  0.00  0.00    -0.083 NA
ATOM     14  C   UNL     1      -0.576   1.731  25.401  0.00  0.00    +0.086 A 
ATOM     16  C   UNL     1       0.230   1.786  24.251  0.00  0.00    +0.073 A 
ATOM     17  C   UNL     1       0.416   0.470  23.922  0.00  0.00    +0.163 A 
BRANCH  17  23
ATOM     23  C   UNL     1       1.146  -0.216  22.847  0.00  0.00    +0.232 C 
BRANCH  23   6
ATOM      6  O   UNL     1       2.501   0.236  22.800  0.00  0.00    -0.387 OA
ATOM     26  H   UNL     1       3.011  -0.443  22.327  0.00  0.00    +0.210 HD
ENDBRANCH  23   6
ENDBRANCH  17  23
ENDBRANCH  12  14
ENDBRANCH   9  12
ENDBRANCH   7   9
BRANCH   7  13
ATOM     13  C   UNL     1      -3.904   3.279  24.335  0.00  0.00    +0.117 C 
BRANCH  13  15
ATOM     15  C   UNL     1      -3.839   1.788  24.324  0.00  0.00    -0.034 A 
ATOM     18  C   UNL     1      -4.317   1.061  25.415  0.00  0.00    +0.005 A 
ATOM     19  C   UNL     1      -3.301   1.121  23.224  0.00  0.00    +0.005 A 
ATOM     20  C   UNL     1      -4.257  -0.332  25.405  0.00  0.00    +0.012 A 
ATOM     21  C   UNL     1      -3.241  -0.273  23.215  0.00  0.00    +0.012 A 
ATOM     22  C   UNL     1      -3.719  -0.998  24.305  0.00  0.00    +0.055 A 
BRANCH  22  24
ATOM      1  F   UNL     1      -2.507  -2.986  23.752  0.00  0.00    -0.166 F 
ATOM      2  F   UNL     1      -4.673  -3.050  23.573  0.00  0.00    -0.166 F 
ATOM      3  F   UNL     1      -3.738  -3.050  25.537  0.00  0.00    -0.166 F 
ATOM     24  C   UNL     1      -3.658  -2.489  24.293  0.00  0.00    +0.417 C 
ENDBRANCH  22  24
ENDBRANCH  13  15
ENDBRANCH   7  13
TORSDOF 8
ENDMDL
MODEL 2
REMARK VINA RESULT:      -6.5      1.344      1.956
REMARK  Name = 56775608
REMARK  8 active torsions:
REMARK  status: ('A' for Active; 'I' for Inactive)
REMARK    1  A    between atoms: O_6  and  C_23
REMARK    2  A    between atoms: N_7  and  C_9
REMARK    3  A    between atoms: N_7  and  C_13
REMARK    4  A    between atoms: C_9  and  C_12
REMARK    5  A    between atoms: C_12  and  C_14
REMARK    6  A    between atoms: C_13  and  C_15
REMARK    7  A    between atoms: C_17  and  C_23
REMARK    8  A    between atoms: C_22  and  C_24
REMARK                            x       y       z     vdW  Elec       q    Type
REMARK                         _______ _______ _______ _____ _____    ______ ____
ROOT
ATOM      7  N   UNL     1      -2.389   3.619  23.874  0.00  0.00    -0.302 NA
ATOM     25  H   UNL     1      -1.858   2.920  23.356  0.00  0.00    +0.123 HD
ENDROOT
BRANCH   7   9
ATOM      4  O   UNL     1      -3.013   5.371  26.269  0.00  0.00    -0.376 OA
ATOM      9  C   UNL     1      -1.763   4.083  25.113  0.00  0.00    +0.072 C 
ATOM     10  C   UNL     1      -2.767   3.946  26.252  0.00  0.00    +0.184 C 
ATOM     11  C   UNL     1      -2.004   5.582  25.256  0.00  0.00    +0.184 C 
BRANCH   9  12
ATOM     12  C   UNL     1      -0.376   3.550  25.301  0.00  0.00    +0.085 C 
BRANCH  12  14
ATOM      5  O   UNL     1       0.065   0.276  23.836  0.00  0.00    -0.357 OA
ATOM      8  N   UNL     1       0.151   1.663  23.799  0.00  0.00    -0.083 NA
ATOM     14  C   UNL     1      -0.320   2.071  24.981  0.00  0.00    +0.086 A 
ATOM     16  C   UNL     1      -0.715   0.996  25.798  0.00  0.00    +0.073 A 
ATOM     17  C   UNL     1      -0.452  -0.108  25.031  0.00  0.00    +0.163 A 
BRANCH  17  23
ATOM     23  C   UNL     1      -0.613  -1.552  25.240  0.00  0.00    +0.232 C 
BRANCH  23   6
ATOM      6  O   UNL     1       0.578  -2.108  25.804  0.00  0.00    -0.387 OA
ATOM     26  H   UNL     1       0.355  -3.003  26.112  0.00  0.00    +0.210 HD
ENDBRANCH  23   6
ENDBRANCH  17  23
ENDBRANCH  12  14
ENDBRANCH   9  12
ENDBRANCH   7   9
BRANCH   7  13
ATOM     13  C   UNL     1      -3.725   3.103  24.175  0.00  0.00    +0.117 C 
BRANCH  13  15
ATOM     15  C   UNL     1      -3.768   1.612  24.188  0.00  0.00    -0.034 A 
ATOM     18  C   UNL     1      -3.304   0.891  23.087  0.00  0.00    +0.005 A 
ATOM     19  C   UNL     1      -4.272   0.937  25.300  0.00  0.00    +0.005 A 
ATOM     20  C   UNL     1      -3.343  -0.503  23.099  0.00  0.00    +0.012 A 
ATOM     21  C   UNL     1      -4.311  -0.457  25.312  0.00  0.00    +0.012 A 
ATOM     22  C   UNL     1      -3.846  -1.176  24.211  0.00  0.00    +0.055 A 
BRANCH  22  24
ATOM      1  F   UNL     1      -2.885  -3.248  23.499  0.00  0.00    -0.166 F 
ATOM      2  F   UNL     1      -5.047  -3.167  23.712  0.00  0.00    -0.166 F 
ATOM      3  F   UNL     1      -3.776  -3.206  25.476  0.00  0.00    -0.166 F 
ATOM     24  C   UNL     1      -3.885  -2.668  24.225  0.00  0.00    +0.417 C 
ENDBRANCH  22  24
ENDBRANCH  13  15
ENDBRANCH   7  13
TORSDOF 8
ENDMDL
MODEL 3
REMARK VINA RESULT:      -6.3      3.018      4.801
REMARK  Name = 56775608
REMARK  8 active torsions:
REMARK  status: ('A' for Active; 'I' for Inactive)
REMARK    1  A    between atoms: O_6  and  C_23
REMARK    2  A    between atoms: N_7  and  C_9
REMARK    3  A    between atoms: N_7  and  C_13
REMARK    4  A    between atoms: C_9  and  C_12
REMARK    5  A    between atoms: C_12  and  C_14
REMARK    6  A    between atoms: C_13  and  C_15
REMARK    7  A    between atoms: C_17  and  C_23
REMARK    8  A    between atoms: C_22  and  C_24
REMARK                            x       y       z     vdW  Elec       q    Type
REMARK                         _______ _______ _______ _____ _____    ______ ____
ROOT
ATOM      7  N   UNL     1       0.019   2.251  23.097  0.00  0.00    -0.302 NA
ATOM     25  H   UNL     1      -0.797   2.101  22.504  0.00  0.00    +0.123 HD
ENDROOT
BRANCH   7   9
ATOM      4  O   UNL     1       2.058   0.080  22.532  0.00  0.00    -0.376 OA
ATOM      9  C   UNL     1       0.567   1.043  23.717  0.00  0.00    +0.072 C 
ATOM     10  C   UNL     1       2.086   1.070  23.586  0.00  0.00    +0.184 C 
ATOM     11  C   UNL     1       0.627  -0.064  22.670  0.00  0.00    +0.184 C 
BRANCH   9  12
ATOM     12  C   UNL     1      -0.039   0.746  25.054  0.00  0.00    +0.085 C 
BRANCH  12  14
ATOM      5  O   UNL     1      -1.331  -2.627  25.129  0.00  0.00    -0.357 OA
ATOM      8  N   UNL     1      -0.305  -1.699  25.264  0.00  0.00    -0.083 NA
ATOM     14  C   UNL     1      -0.872  -0.517  25.000  0.00  0.00    +0.086 A 
ATOM     16  C   UNL     1      -2.239  -0.637  24.695  0.00  0.00    +0.073 A 
ATOM     17  C   UNL     1      -2.477  -1.983  24.791  0.00  0.00    +0.163 A 
BRANCH  17  23
ATOM     23  C   UNL     1      -3.669  -2.820  24.606  0.00  0.00    +0.232 C 
BRANCH  23   6
ATOM      6  O   UNL     1      -4.544  -2.232  23.640  0.00  0.00    -0.387 OA
ATOM     26  H   UNL     1      -4.450  -2.748  22.822  0.00  0.00    +0.210 HD
ENDBRANCH  23   6
ENDBRANCH  17  23
ENDBRANCH  12  14
ENDBRANCH   9  12
ENDBRANCH   7   9
BRANCH   7  13
ATOM     13  C   UNL     1      -0.302   3.224  24.142  0.00  0.00    +0.117 C 
BRANCH  13  15
ATOM     15  C   UNL     1      -1.743   3.190  24.527  0.00  0.00    -0.034 A 
ATOM     18  C   UNL     1      -2.682   2.627  23.663  0.00  0.00    +0.005 A 
ATOM     19  C   UNL     1      -2.152   3.722  25.750  0.00  0.00    +0.005 A 
ATOM     20  C   UNL     1      -4.029   2.594  24.022  0.00  0.00    +0.012 A 
ATOM     21  C   UNL     1      -3.499   3.690  26.109  0.00  0.00    +0.012 A 
ATOM     22  C   UNL     1      -4.437   3.126  25.245  0.00  0.00    +0.055 A 
BRANCH  22  24
ATOM      1  F   UNL     1      -6.100   2.563  26.871  0.00  0.00    -0.166 F 
ATOM      2  F   UNL     1      -6.631   2.337  24.775  0.00  0.00    -0.166 F 
ATOM      3  F   UNL     1      -6.471   4.320  25.654  0.00  0.00    -0.166 F 
ATOM     24  C   UNL     1      -5.878   3.089  25.630  0.00  0.00    +0.417 C 
ENDBRANCH  22  24
ENDBRANCH  13  15
ENDBRANCH   7  13
TORSDOF 8
ENDMDL
MODEL 4
REMARK VINA RESULT:      -6.2      2.167      4.132
REMARK  Name = 56775608
REMARK  8 active torsions:
REMARK  status: ('A' for Active; 'I' for Inactive)
REMARK    1  A    between atoms: O_6  and  C_23
REMARK    2  A    between atoms: N_7  and  C_9
REMARK    3  A    between atoms: N_7  and  C_13
REMARK    4  A    between atoms: C_9  and  C_12
REMARK    5  A    between atoms: C_12  and  C_14
REMARK    6  A    between atoms: C_13  and  C_15
REMARK    7  A    between atoms: C_17  and  C_23
REMARK    8  A    between atoms: C_22  and  C_24
REMARK                            x       y       z     vdW  Elec       q    Type
REMARK                         _______ _______ _______ _____ _____    ______ ____
ROOT
ATOM      7  N   UNL     1       0.272   2.457  24.235  0.00  0.00    -0.302 NA
ATOM     25  H   UNL     1       1.168   2.943  24.264  0.00  0.00    +0.123 HD
ENDROOT
BRANCH   7   9
ATOM      4  O   UNL     1      -0.738   5.128  25.254  0.00  0.00    -0.376 OA
ATOM      9  C   UNL     1      -0.902   3.325  24.124  0.00  0.00    +0.072 C 
ATOM     10  C   UNL     1      -0.435   4.756  23.889  0.00  0.00    +0.184 C 
ATOM     11  C   UNL     1      -1.285   3.816  25.516  0.00  0.00    +0.184 C 
BRANCH   9  12
ATOM     12  C   UNL     1      -1.967   2.755  23.237  0.00  0.00    +0.085 C 
BRANCH  12  14
ATOM      5  O   UNL     1      -5.055   3.636  24.894  0.00  0.00    -0.357 OA
ATOM      8  N   UNL     1      -3.833   3.959  24.314  0.00  0.00    -0.083 NA
ATOM     14  C   UNL     1      -3.316   2.790  23.924  0.00  0.00    +0.086 A 
ATOM     16  C   UNL     1      -4.157   1.706  24.230  0.00  0.00    +0.073 A 
ATOM     17  C   UNL     1      -5.235   2.292  24.838  0.00  0.00    +0.163 A 
BRANCH  17  23
ATOM     23  C   UNL     1      -6.484   1.775  25.412  0.00  0.00    +0.232 C 
BRANCH  23   6
ATOM      6  O   UNL     1      -6.534   2.044  26.815  0.00  0.00    -0.387 OA
ATOM     26  H   UNL     1      -7.001   2.890  26.924  0.00  0.00    +0.210 HD
ENDBRANCH  23   6
ENDBRANCH  17  23
ENDBRANCH  12  14
ENDBRANCH   9  12
ENDBRANCH   7   9
BRANCH   7  13
ATOM     13  C   UNL     1       0.131   1.607  25.418  0.00  0.00    +0.117 C 
BRANCH  13  15
ATOM     15  C   UNL     1      -0.754   0.432  25.171  0.00  0.00    -0.034 A 
ATOM     18  C   UNL     1      -1.839   0.186  26.012  0.00  0.00    +0.005 A 
ATOM     19  C   UNL     1      -0.496  -0.423  24.098  0.00  0.00    +0.005 A 
ATOM     20  C   UNL     1      -2.667  -0.912  25.781  0.00  0.00    +0.012 A 
ATOM     21  C   UNL     1      -1.324  -1.521  23.867  0.00  0.00    +0.012 A 
ATOM     22  C   UNL     1      -2.409  -1.765  24.709  0.00  0.00    +0.055 A 
BRANCH  22  24
ATOM      1  F   UNL     1      -3.668  -3.596  25.597  0.00  0.00    -0.166 F 
ATOM      2  F   UNL     1      -2.709  -3.882  23.667  0.00  0.00    -0.166 F 
ATOM      3  F   UNL     1      -4.469  -2.615  23.836  0.00  0.00    -0.166 F 
ATOM     24  C   UNL     1      -3.297  -2.938  24.459  0.00  0.00    +0.417 C 
ENDBRANCH  22  24
ENDBRANCH  13  15
ENDBRANCH   7  13
TORSDOF 8
ENDMDL
MODEL 5
REMARK VINA RESULT:      -6.0      3.985      6.405
REMARK  Name = 56775608
REMARK  8 active torsions:
REMARK  status: ('A' for Active; 'I' for Inactive)
REMARK    1  A    between atoms: O_6  and  C_23
REMARK    2  A    between atoms: N_7  and  C_9
REMARK    3  A    between atoms: N_7  and  C_13
REMARK    4  A    between atoms: C_9  and  C_12
REMARK    5  A    between atoms: C_12  and  C_14
REMARK    6  A    between atoms: C_13  and  C_15
REMARK    7  A    between atoms: C_17  and  C_23
REMARK    8  A    between atoms: C_22  and  C_24
REMARK                            x       y       z     vdW  Elec       q    Type
REMARK                         _______ _______ _______ _____ _____    ______ ____
ROOT
ATOM      7  N   UNL     1      -1.417  -1.517  24.115  0.00  0.00    -0.302 NA
ATOM     25  H   UNL     1      -1.119  -1.107  23.231  0.00  0.00    +0.123 HD
ENDROOT
BRANCH   7   9
ATOM      4  O   UNL     1      -3.486  -2.837  25.896  0.00  0.00    -0.376 OA
ATOM      9  C   UNL     1      -2.862  -1.501  24.353  0.00  0.00    +0.072 C 
ATOM     10  C   UNL     1      -3.112  -1.440  25.855  0.00  0.00    +0.184 C 
ATOM     11  C   UNL     1      -3.359  -2.938  24.460  0.00  0.00    +0.184 C 
BRANCH   9  12
ATOM     12  C   UNL     1      -3.590  -0.545  23.458  0.00  0.00    +0.085 C 
BRANCH  12  14
ATOM      5  O   UNL     1      -5.349   1.606  25.768  0.00  0.00    -0.357 OA
ATOM      8  N   UNL     1      -5.018   0.355  25.259  0.00  0.00    -0.083 NA
ATOM     14  C   UNL     1      -4.170   0.604  24.256  0.00  0.00    +0.086 A 
ATOM     16  C   UNL     1      -3.931   1.979  24.088  0.00  0.00    +0.073 A 
ATOM     17  C   UNL     1      -4.695   2.563  25.063  0.00  0.00    +0.163 A 
BRANCH  17  23
ATOM     23  C   UNL     1      -4.933   3.954  25.471  0.00  0.00    +0.232 C 
BRANCH  23   6
ATOM      6  O   UNL     1      -6.321   4.160  25.747  0.00  0.00    -0.387 OA
ATOM     26  H   UNL     1      -6.480   3.844  26.653  0.00  0.00    +0.210 HD
ENDBRANCH  23   6
ENDBRANCH  17  23
ENDBRANCH  12  14
ENDBRANCH   9  12
ENDBRANCH   7   9
BRANCH   7  13
ATOM     13  C   UNL     1      -0.740  -0.845  25.225  0.00  0.00    +0.117 C 
BRANCH  13  15
ATOM     15  C   UNL     1      -0.709   0.638  25.056  0.00  0.00    -0.034 A 
ATOM     18  C   UNL     1      -1.011   1.469  26.135  0.00  0.00    +0.005 A 
ATOM     19  C   UNL     1      -0.377   1.193  23.820  0.00  0.00    +0.005 A 
ATOM     20  C   UNL     1      -0.981   2.854  25.978  0.00  0.00    +0.012 A 
ATOM     21  C   UNL     1      -0.347   2.578  23.664  0.00  0.00    +0.012 A 
ATOM     22  C   UNL     1      -0.649   3.409  24.743  0.00  0.00    +0.055 A 
BRANCH  22  24
ATOM      1  F   UNL     1      -1.837   5.485  24.704  0.00  0.00    -0.166 F 
ATOM      2  F   UNL     1      -0.149   5.270  23.350  0.00  0.00    -0.166 F 
ATOM      3  F   UNL     1       0.187   5.525  25.483  0.00  0.00    -0.166 F 
ATOM     24  C   UNL     1      -0.614   4.891  24.576  0.00  0.00    +0.417 C 
ENDBRANCH  22  24
ENDBRANCH  13  15
ENDBRANCH   7  13
TORSDOF 8
ENDMDL
MODEL 6
REMARK VINA RESULT:      -5.8      3.593      5.206
REMARK  Name = 56775608
REMARK  8 active torsions:
REMARK  status: ('A' for Active; 'I' for Inactive)
REMARK    1  A    between atoms: O_6  and  C_23
REMARK    2  A    between atoms: N_7  and  C_9
REMARK    3  A    between atoms: N_7  and  C_13
REMARK    4  A    between atoms: C_9  and  C_12
REMARK    5  A    between atoms: C_12  and  C_14
REMARK    6  A    between atoms: C_13  and  C_15
REMARK    7  A    between atoms: C_17  and  C_23
REMARK    8  A    between atoms: C_22  and  C_24
REMARK                            x       y       z     vdW  Elec       q    Type
REMARK                         _______ _______ _______ _____ _____    ______ ____
ROOT
ATOM      7  N   UNL     1      -4.300  -0.458  25.678  0.00  0.00    -0.302 NA
ATOM     25  H   UNL     1      -4.208   0.079  26.539  0.00  0.00    +0.123 HD
ENDROOT
BRANCH   7   9
ATOM      4  O   UNL     1      -3.534  -2.747  23.843  0.00  0.00    -0.376 OA
ATOM      9  C   UNL     1      -3.127  -1.254  25.313  0.00  0.00    +0.072 C 
ATOM     10  C   UNL     1      -3.070  -1.379  23.795  0.00  0.00    +0.184 C 
ATOM     11  C   UNL     1      -3.519  -2.727  25.288  0.00  0.00    +0.184 C 
BRANCH   9  12
ATOM     12  C   UNL     1      -1.890  -0.844  26.053  0.00  0.00    +0.085 C 
BRANCH  12  14
ATOM      5  O   UNL     1       0.443   1.176  24.174  0.00  0.00    -0.357 OA
ATOM      8  N   UNL     1      -0.515   1.004  25.167  0.00  0.00    -0.083 NA
ATOM     14  C   UNL     1      -0.853  -0.287  25.101  0.00  0.00    +0.086 A 
ATOM     16  C   UNL     1      -0.147  -0.973  24.096  0.00  0.00    +0.073 A 
ATOM     17  C   UNL     1       0.653  -0.008  23.545  0.00  0.00    +0.163 A 
BRANCH  17  23
ATOM     23  C   UNL     1       1.643  -0.006  22.461  0.00  0.00    +0.232 C 
BRANCH  23   6
ATOM      6  O   UNL     1       2.794   0.751  22.840  0.00  0.00    -0.387 OA
ATOM     26  H   UNL     1       3.501   0.528  22.211  0.00  0.00    +0.210 HD
ENDBRANCH  23   6
ENDBRANCH  17  23
ENDBRANCH  12  14
ENDBRANCH   9  12
ENDBRANCH   7   9
BRANCH   7  13
ATOM     13  C   UNL     1      -4.637   0.436  24.570  0.00  0.00    +0.117 C 
BRANCH  13  15
ATOM     15  C   UNL     1      -3.883   1.723  24.629  0.00  0.00    -0.034 A 
ATOM     18  C   UNL     1      -3.972   2.531  25.763  0.00  0.00    +0.005 A 
ATOM     19  C   UNL     1      -3.089   2.117  23.552  0.00  0.00    +0.005 A 
ATOM     20  C   UNL     1      -3.266   3.733  25.819  0.00  0.00    +0.012 A 
ATOM     21  C   UNL     1      -2.384   3.319  23.609  0.00  0.00    +0.012 A 
ATOM     22  C   UNL     1      -2.473   4.127  24.742  0.00  0.00    +0.055 A 
BRANCH  22  24
ATOM      1  F   UNL     1      -1.981   6.149  25.922  0.00  0.00    -0.166 F 
ATOM      2  F   UNL     1      -1.990   6.233  23.749  0.00  0.00    -0.166 F 
ATOM      3  F   UNL     1      -0.359   5.247  24.798  0.00  0.00    -0.166 F 
ATOM     24  C   UNL     1      -1.716   5.411  24.804  0.00  0.00    +0.417 C 
ENDBRANCH  22  24
ENDBRANCH  13  15
ENDBRANCH   7  13
TORSDOF 8
ENDMDL
MODEL 7
REMARK VINA RESULT:      -5.6      2.610      4.646
REMARK  Name = 56775608
REMARK  8 active torsions:
REMARK  status: ('A' for Active; 'I' for Inactive)
REMARK    1  A    between atoms: O_6  and  C_23
REMARK    2  A    between atoms: N_7  and  C_9
REMARK    3  A    between atoms: N_7  and  C_13
REMARK    4  A    between atoms: C_9  and  C_12
REMARK    5  A    between atoms: C_12  and  C_14
REMARK    6  A    between atoms: C_13  and  C_15
REMARK    7  A    between atoms: C_17  and  C_23
REMARK    8  A    between atoms: C_22  and  C_24
REMARK                            x       y       z     vdW  Elec       q    Type
REMARK                         _______ _______ _______ _____ _____    ______ ____
ROOT
ATOM      7  N   UNL     1       0.097  -0.370  24.572  0.00  0.00    -0.302 NA
ATOM     25  H   UNL     1      -0.181   0.163  25.395  0.00  0.00    +0.123 HD
ENDROOT
BRANCH   7   9
ATOM      4  O   UNL     1       1.144  -0.673  21.743  0.00  0.00    -0.376 OA
ATOM      9  C   UNL     1       0.879   0.375  23.583  0.00  0.00    +0.072 C 
ATOM     10  C   UNL     1       0.177   0.284  22.233  0.00  0.00    +0.184 C 
ATOM     11  C   UNL     1       1.910  -0.562  22.963  0.00  0.00    +0.184 C 
BRANCH   9  12
ATOM     12  C   UNL     1       1.323   1.716  24.081  0.00  0.00    +0.085 C 
BRANCH  12  14
ATOM      5  O   UNL     1      -1.158   2.927  26.412  0.00  0.00    -0.357 OA
ATOM      8  N   UNL     1      -0.094   2.103  26.065  0.00  0.00    -0.083 NA
ATOM     14  C   UNL     1       0.194   2.424  24.800  0.00  0.00    +0.086 A 
ATOM     16  C   UNL     1      -0.648   3.434  24.301  0.00  0.00    +0.073 A 
ATOM     17  C   UNL     1      -1.478   3.715  25.353  0.00  0.00    +0.163 A 
BRANCH  17  23
ATOM     23  C   UNL     1      -2.590   4.653  25.548  0.00  0.00    +0.232 C 
BRANCH  23   6
ATOM      6  O   UNL     1      -3.352   4.287  26.700  0.00  0.00    -0.387 OA
ATOM     26  H   UNL     1      -2.717   4.089  27.410  0.00  0.00    +0.210 HD
ENDBRANCH  23   6
ENDBRANCH  17  23
ENDBRANCH  12  14
ENDBRANCH   9  12
ENDBRANCH   7   9
BRANCH   7  13
ATOM     13  C   UNL     1      -1.088  -0.932  23.923  0.00  0.00    +0.117 C 
BRANCH  13  15
ATOM     15  C   UNL     1      -2.336  -0.203  24.290  0.00  0.00    -0.034 A 
ATOM     18  C   UNL     1      -3.097  -0.627  25.380  0.00  0.00    +0.005 A 
ATOM     19  C   UNL     1      -2.744   0.904  23.544  0.00  0.00    +0.005 A 
ATOM     20  C   UNL     1      -4.264   0.056  25.724  0.00  0.00    +0.012 A 
ATOM     21  C   UNL     1      -3.910   1.586  23.889  0.00  0.00    +0.012 A 
ATOM     22  C   UNL     1      -4.670   1.162  24.978  0.00  0.00    +0.055 A 
BRANCH  22  24
ATOM      1  F   UNL     1      -6.332   1.655  26.628  0.00  0.00    -0.166 F 
ATOM      2  F   UNL     1      -6.975   1.564  24.552  0.00  0.00    -0.166 F 
ATOM      3  F   UNL     1      -5.800   3.252  25.260  0.00  0.00    -0.166 F 
ATOM     24  C   UNL     1      -5.916   1.893  25.349  0.00  0.00    +0.417 C 
ENDBRANCH  22  24
ENDBRANCH  13  15
ENDBRANCH   7  13
TORSDOF 8
ENDMDL
MODEL 8
REMARK VINA RESULT:      -5.3      1.862      2.806
REMARK  Name = 56775608
REMARK  8 active torsions:
REMARK  status: ('A' for Active; 'I' for Inactive)
REMARK    1  A    between atoms: O_6  and  C_23
REMARK    2  A    between atoms: N_7  and  C_9
REMARK    3  A    between atoms: N_7  and  C_13
REMARK    4  A    between atoms: C_9  and  C_12
REMARK    5  A    between atoms: C_12  and  C_14
REMARK    6  A    between atoms: C_13  and  C_15
REMARK    7  A    between atoms: C_17  and  C_23
REMARK    8  A    between atoms: C_22  and  C_24
REMARK                            x       y       z     vdW  Elec       q    Type
REMARK                         _______ _______ _______ _____ _____    ______ ____
ROOT
ATOM      7  N   UNL     1      -4.012   3.505  24.139  0.00  0.00    -0.302 NA
ATOM     25  H   UNL     1      -3.039   3.284  23.930  0.00  0.00    +0.123 HD
ENDROOT
BRANCH   7   9
ATOM      4  O   UNL     1      -6.332   4.239  25.947  0.00  0.00    -0.376 OA
ATOM      9  C   UNL     1      -4.260   4.001  25.494  0.00  0.00    +0.072 C 
ATOM     10  C   UNL     1      -5.373   3.172  26.125  0.00  0.00    +0.184 C 
ATOM     11  C   UNL     1      -5.303   5.111  25.428  0.00  0.00    +0.184 C 
BRANCH   9  12
ATOM     12  C   UNL     1      -3.000   4.234  26.270  0.00  0.00    +0.085 C 
BRANCH  12  14
ATOM      5  O   UNL     1      -0.128   3.465  24.216  0.00  0.00    -0.357 OA
ATOM      8  N   UNL     1      -1.136   4.316  24.654  0.00  0.00    -0.083 NA
ATOM     14  C   UNL     1      -1.812   3.612  25.566  0.00  0.00    +0.086 A 
ATOM     16  C   UNL     1      -1.282   2.322  25.745  0.00  0.00    +0.073 A 
ATOM     17  C   UNL     1      -0.226   2.281  24.874  0.00  0.00    +0.163 A 
BRANCH  17  23
ATOM     23  C   UNL     1       0.770   1.258  24.530  0.00  0.00    +0.232 C 
BRANCH  23   6
ATOM      6  O   UNL     1       1.716   1.780  23.595  0.00  0.00    -0.387 OA
ATOM     26  H   UNL     1       2.105   2.575  23.998  0.00  0.00    +0.210 HD
ENDBRANCH  23   6
ENDBRANCH  17  23
ENDBRANCH  12  14
ENDBRANCH   9  12
ENDBRANCH   7   9
BRANCH   7  13
ATOM     13  C   UNL     1      -4.849   2.329  23.897  0.00  0.00    +0.117 C 
BRANCH  13  15
ATOM     15  C   UNL     1      -4.110   1.051  24.114  0.00  0.00    -0.034 A 
ATOM     18  C   UNL     1      -3.018   0.732  23.307  0.00  0.00    +0.005 A 
ATOM     19  C   UNL     1      -4.511   0.176  25.124  0.00  0.00    +0.005 A 
ATOM     20  C   UNL     1      -2.326  -0.462  23.511  0.00  0.00    +0.012 A 
ATOM     21  C   UNL     1      -3.819  -1.018  25.327  0.00  0.00    +0.012 A 
ATOM     22  C   UNL     1      -2.727  -1.337  24.520  0.00  0.00    +0.055 A 
BRANCH  22  24
ATOM      1  F   UNL     1      -1.667  -3.266  23.584  0.00  0.00    -0.166 F 
ATOM      2  F   UNL     1      -2.694  -3.510  25.485  0.00  0.00    -0.166 F 
ATOM      3  F   UNL     1      -0.798  -2.449  25.396  0.00  0.00    -0.166 F 
ATOM     24  C   UNL     1      -1.986  -2.613  24.740  0.00  0.00    +0.417 C 
ENDBRANCH  22  24
ENDBRANCH  13  15
ENDBRANCH   7  13
TORSDOF 8
ENDMDL
MODEL 9
REMARK VINA RESULT:      -5.2      3.679      5.563
REMARK  Name = 56775608
REMARK  8 active torsions:
REMARK  status: ('A' for Active; 'I' for Inactive)
REMARK    1  A    between atoms: O_6  and  C_23
REMARK    2  A    between atoms: N_7  and  C_9
REMARK    3  A    between atoms: N_7  and  C_13
REMARK    4  A    between atoms: C_9  and  C_12
REMARK    5  A    between atoms: C_12  and  C_14
REMARK    6  A    between atoms: C_13  and  C_15
REMARK    7  A    between atoms: C_17  and  C_23
REMARK    8  A    between atoms: C_22  and  C_24
REMARK                            x       y       z     vdW  Elec       q    Type
REMARK                         _______ _______ _______ _____ _____    ______ ____
ROOT
ATOM      7  N   UNL     1      -3.519  -0.834  23.395  0.00  0.00    -0.302 NA
ATOM     25  H   UNL     1      -4.077  -1.401  22.758  0.00  0.00    +0.123 HD
ENDROOT
BRANCH   7   9
ATOM      4  O   UNL     1      -3.810  -2.599  25.843  0.00  0.00    -0.376 OA
ATOM      9  C   UNL     1      -2.687  -1.589  24.334  0.00  0.00    +0.072 C 
ATOM     10  C   UNL     1      -3.305  -2.967  24.539  0.00  0.00    +0.184 C 
ATOM     11  C   UNL     1      -3.167  -1.307  25.753  0.00  0.00    +0.184 C 
BRANCH   9  12
ATOM     12  C   UNL     1      -1.224  -1.489  24.029  0.00  0.00    +0.085 C 
BRANCH  12  14
ATOM      5  O   UNL     1       0.437   1.696  24.423  0.00  0.00    -0.357 OA
ATOM      8  N   UNL     1       0.101   0.565  23.687  0.00  0.00    -0.083 NA
ATOM     14  C   UNL     1      -0.664  -0.165  24.504  0.00  0.00    +0.086 A 
ATOM     16  C   UNL     1      -0.845   0.449  25.756  0.00  0.00    +0.073 A 
ATOM     17  C   UNL     1      -0.134   1.615  25.652  0.00  0.00    +0.163 A 
BRANCH  17  23
ATOM     23  C   UNL     1       0.120   2.735  26.566  0.00  0.00    +0.232 C 
BRANCH  23   6
ATOM      6  O   UNL     1       1.334   2.521  27.290  0.00  0.00    -0.387 OA
ATOM     26  H   UNL     1       1.144   1.855  27.972  0.00  0.00    +0.210 HD
ENDBRANCH  23   6
ENDBRANCH  17  23
ENDBRANCH  12  14
ENDBRANCH   9  12
ENDBRANCH   7   9
BRANCH   7  13
ATOM     13  C   UNL     1      -4.391   0.070  24.145  0.00  0.00    +0.117 C 
BRANCH  13  15
ATOM     15  C   UNL     1      -3.787   1.423  24.326  0.00  0.00    -0.034 A 
ATOM     18  C   UNL     1      -2.995   1.973  23.317  0.00  0.00    +0.005 A 
ATOM     19  C   UNL     1      -4.012   2.137  25.503  0.00  0.00    +0.005 A 
ATOM     20  C   UNL     1      -2.431   3.237  23.485  0.00  0.00    +0.012 A 
ATOM     21  C   UNL     1      -3.447   3.401  25.670  0.00  0.00    +0.012 A 
ATOM     22  C   UNL     1      -2.657   3.951  24.662  0.00  0.00    +0.055 A 
BRANCH  22  24
ATOM      1  F   UNL     1      -2.510   6.228  23.943  0.00  0.00    -0.166 F 
ATOM      2  F   UNL     1      -0.697   5.297  24.702  0.00  0.00    -0.166 F 
ATOM      3  F   UNL     1      -2.296   5.853  26.068  0.00  0.00    -0.166 F 
ATOM     24  C   UNL     1      -2.055   5.304  24.840  0.00  0.00    +0.417 C 
ENDBRANCH  22  24
ENDBRANCH  13  15
ENDBRANCH   7  13
TORSDOF 8
ENDMDL
MODEL 10
REMARK VINA RESULT:      -5.1      3.472      5.420
REMARK  Name = 56775608
REMARK  8 active torsions:
REMARK  status: ('A' for Active; 'I' for Inactive)
REMARK    1  A    between atoms: O_6  and  C_23
REMARK    2  A    between atoms: N_7  and  C_9
REMARK    3  A    between atoms: N_7  and  C_13
REMARK    4  A    between atoms: C_9  and  C_12
REMARK    5  A    between atoms: C_12  and  C_14
REMARK    6  A    between atoms: C_13  and  C_15
REMARK    7  A    between atoms: C_17  and  C_23
REMARK    8  A    between atoms: C_22  and  C_24
REMARK                            x       y       z     vdW  Elec       q    Type
REMARK                         _______ _______ _______ _____ _____    ______ ____
ROOT
ATOM      7  N   UNL     1      -2.769  -1.247  23.510  0.00  0.00    -0.302 NA
ATOM     25  H   UNL     1      -2.714  -1.631  22.567  0.00  0.00    +0.123 HD
ENDROOT
BRANCH   7   9
ATOM      4  O   UNL     1      -3.603  -3.526  25.327  0.00  0.00    -0.376 OA
ATOM      9  C   UNL     1      -2.212  -2.099  24.562  0.00  0.00    +0.072 C 
ATOM     10  C   UNL     1      -2.605  -3.546  24.282  0.00  0.00    +0.184 C 
ATOM     11  C   UNL     1      -3.214  -2.186  25.707  0.00  0.00    +0.184 C 
BRANCH   9  12
ATOM     12  C   UNL     1      -0.781  -1.784  24.872  0.00  0.00    +0.085 C 
BRANCH  12  14
ATOM      5  O   UNL     1       0.130   1.621  24.078  0.00  0.00    -0.357 OA
ATOM      8  N   UNL     1       0.074   0.263  23.789  0.00  0.00    -0.083 NA
ATOM     14  C   UNL     1      -0.540  -0.289  24.839  0.00  0.00    +0.086 A 
ATOM     16  C   UNL     1      -0.891   0.662  25.813  0.00  0.00    +0.073 A 
ATOM     17  C   UNL     1      -0.448   1.846  25.285  0.00  0.00    +0.163 A 
BRANCH  17  23
ATOM     23  C   UNL     1      -0.476   3.239  25.749  0.00  0.00    +0.232 C 
BRANCH  23   6
ATOM      6  O   UNL     1      -0.766   4.119  24.660  0.00  0.00    -0.387 OA
ATOM     26  H   UNL     1      -1.733   4.139  24.562  0.00  0.00    +0.210 HD
ENDBRANCH  23   6
ENDBRANCH  17  23
ENDBRANCH  12  14
ENDBRANCH   9  12
ENDBRANCH   7   9
BRANCH   7  13
ATOM     13  C   UNL     1      -4.160  -0.931  23.834  0.00  0.00    +0.117 C 
BRANCH  13  15
ATOM     15  C   UNL     1      -4.344   0.501  24.213  0.00  0.00    -0.034 A 
ATOM     18  C   UNL     1      -5.239   0.846  25.226  0.00  0.00    +0.005 A 
ATOM     19  C   UNL     1      -3.620   1.496  23.553  0.00  0.00    +0.005 A 
ATOM     20  C   UNL     1      -5.409   2.184  25.580  0.00  0.00    +0.012 A 
ATOM     21  C   UNL     1      -3.791   2.833  23.908  0.00  0.00    +0.012 A 
ATOM     22  C   UNL     1      -4.686   3.177  24.921  0.00  0.00    +0.055 A 
BRANCH  22  24
ATOM      1  F   UNL     1      -6.153   4.930  25.627  0.00  0.00    -0.166 F 
ATOM      2  F   UNL     1      -4.515   5.467  24.301  0.00  0.00    -0.166 F 
ATOM      3  F   UNL     1      -4.121   4.984  26.385  0.00  0.00    -0.166 F 
ATOM     24  C   UNL     1      -4.866   4.608  25.303  0.00  0.00    +0.417 C 
ENDBRANCH  22  24
ENDBRANCH  13  15
ENDBRANCH   7  13
TORSDOF 8
ENDMDL
