MODEL 1
REMARK VINA RESULT:       1.3      0.000      0.000
REMARK  Name = 71693333
REMARK  9 active torsions:
REMARK  status: ('A' for Active; 'I' for Inactive)
REMARK    1  A    between atoms: O_2  and  C_17
REMARK    2  A    between atoms: N_5  and  C_13
REMARK    3  A    between atoms: N_6  and  C_20
REMARK    4  A    between atoms: C_7  and  C_14
REMARK    5  A    between atoms: C_11  and  C_17
REMARK    6  A    between atoms: C_12  and  C_16
REMARK    7  A    between atoms: C_13  and  C_15
REMARK    8  A    between atoms: C_15  and  C_23
REMARK    9  A    between atoms: C_15  and  C_24
REMARK                            x       y       z     vdW  Elec       q    Type
REMARK                         _______ _______ _______ _____ _____    ______ ____
ROOT
ATOM      1  O   UNL     1      -3.196  -0.029  25.330  0.00  0.00    -0.361 OA
ATOM      4  O   UNL     1      -6.563   1.054  25.759  0.00  0.00    -0.273 OA
ATOM      5  N   UNL     1      -4.822   2.108  24.624  0.00  0.00    -0.291 N 
ATOM     11  C   UNL     1      -3.390   2.100  24.235  0.00  0.00    +0.135 C 
ATOM     12  C   UNL     1      -2.849   0.662  24.129  0.00  0.00    +0.171 C 
ATOM     18  C   UNL     1      -5.417   1.045  25.305  0.00  0.00    +0.242 C 
ATOM     19  C   UNL     1      -4.587  -0.220  25.412  0.00  0.00    +0.256 C 
ENDROOT
BRANCH  12  16
ATOM     16  C   UNL     1      -1.344   0.573  23.986  0.00  0.00    -0.017 A 
ATOM     20  C   UNL     1       1.429   0.411  23.721  0.00  0.00    +0.033 A 
ATOM     21  C   UNL     1      -0.549   1.686  24.265  0.00  0.00    +0.008 A 
ATOM     22  C   UNL     1      -0.750  -0.621  23.576  0.00  0.00    +0.008 A 
ATOM     25  C   UNL     1       0.837   1.605  24.132  0.00  0.00    +0.023 A 
ATOM     26  C   UNL     1       0.636  -0.702  23.443  0.00  0.00    +0.023 A 
BRANCH  20   6
ATOM      3  O   UNL     1       3.123   0.219  21.267  0.00  0.00    -0.275 OA
ATOM      6  N   UNL     1       2.816   0.328  23.589  0.00  0.00    -0.285 N 
ATOM     14  C   UNL     1       3.577   0.242  22.414  0.00  0.00    +0.220 C 
ATOM     27  H   UNL     1       3.336   0.334  24.463  0.00  0.00    +0.155 HD
BRANCH  14   7
ATOM      7  C   UNL     1       5.084   0.168  22.679  0.00  0.00    +0.075 C 
ATOM      8  C   UNL     1       5.650   0.962  23.885  0.00  0.00    +0.013 C 
ATOM      9  C   UNL     1       5.626  -1.105  23.379  0.00  0.00    +0.013 C 
ATOM     10  C   UNL     1       6.639  -0.198  24.102  0.00  0.00    +0.001 C 
ENDBRANCH  14   7
ENDBRANCH  20   6
ENDBRANCH  12  16
BRANCH   5  13
ATOM     13  C   UNL     1      -5.561   3.361  24.501  0.00  0.00    +0.111 C 
BRANCH  13  15
ATOM     15  C   UNL     1      -5.497   4.203  25.780  0.00  0.00    +0.000 C 
ATOM     23  C   UNL     1      -4.054   4.448  26.224  0.00  0.00    +0.009 C 
ATOM     24  C   UNL     1      -6.211   5.538  25.565  0.00  0.00    +0.009 C 
ENDBRANCH  13  15
ENDBRANCH   5  13
BRANCH  11  17
ATOM     17  C   UNL     1      -3.130   2.873  22.933  0.00  0.00    +0.181 C 
BRANCH  17   2
ATOM      2  O   UNL     1      -2.810   1.937  21.923  0.00  0.00    -0.393 OA
ATOM     28  H   UNL     1      -2.075   2.311  21.408  0.00  0.00    +0.209 HD
ENDBRANCH  17   2
ENDBRANCH  11  17
TORSDOF 7
ENDMDL
MODEL 2
REMARK VINA RESULT:       3.1      1.632      2.587
REMARK  Name = 71693333
REMARK  9 active torsions:
REMARK  status: ('A' for Active; 'I' for Inactive)
REMARK    1  A    between atoms: O_2  and  C_17
REMARK    2  A    between atoms: N_5  and  C_13
REMARK    3  A    between atoms: N_6  and  C_20
REMARK    4  A    between atoms: C_7  and  C_14
REMARK    5  A    between atoms: C_11  and  C_17
REMARK    6  A    between atoms: C_12  and  C_16
REMARK    7  A    between atoms: C_13  and  C_15
REMARK    8  A    between atoms: C_15  and  C_23
REMARK    9  A    between atoms: C_15  and  C_24
REMARK                            x       y       z     vdW  Elec       q    Type
REMARK                         _______ _______ _______ _____ _____    ______ ____
ROOT
ATOM      1  O   UNL     1      -2.626   4.299  25.521  0.00  0.00    -0.361 OA
ATOM      4  O   UNL     1      -6.095   5.062  25.814  0.00  0.00    -0.273 OA
ATOM      5  N   UNL     1      -5.086   3.149  24.944  0.00  0.00    -0.291 N 
ATOM     11  C   UNL     1      -3.832   2.441  24.591  0.00  0.00    +0.135 C 
ATOM     12  C   UNL     1      -2.671   2.872  25.509  0.00  0.00    +0.171 C 
ATOM     18  C   UNL     1      -5.091   4.376  25.610  0.00  0.00    +0.242 C 
ATOM     19  C   UNL     1      -3.757   4.829  26.170  0.00  0.00    +0.256 C 
ENDROOT
BRANCH  12  16
ATOM     16  C   UNL     1      -1.309   2.390  25.056  0.00  0.00    -0.017 A 
ATOM     20  C   UNL     1       1.201   1.502  24.221  0.00  0.00    +0.033 A 
ATOM     21  C   UNL     1      -0.448   3.260  24.386  0.00  0.00    +0.008 A 
ATOM     22  C   UNL     1      -0.914   1.076  25.308  0.00  0.00    +0.008 A 
ATOM     25  C   UNL     1       0.807   2.817  23.969  0.00  0.00    +0.023 A 
ATOM     26  C   UNL     1       0.341   0.632  24.890  0.00  0.00    +0.023 A 
BRANCH  20   6
ATOM      3  O   UNL     1       1.972  -0.146  21.851  0.00  0.00    -0.275 OA
ATOM      6  N   UNL     1       2.456   1.057  23.803  0.00  0.00    -0.285 N 
ATOM     14  C   UNL     1       2.779   0.284  22.679  0.00  0.00    +0.220 C 
ATOM     27  H   UNL     1       3.234   1.336  24.396  0.00  0.00    +0.155 HD
BRANCH  14   7
ATOM      7  C   UNL     1       4.278  -0.004  22.557  0.00  0.00    +0.075 C 
ATOM      8  C   UNL     1       5.258   0.902  23.348  0.00  0.00    +0.013 C 
ATOM      9  C   UNL     1       4.850  -1.186  23.382  0.00  0.00    +0.013 C 
ATOM     10  C   UNL     1       6.127  -0.348  23.578  0.00  0.00    +0.001 C 
ENDBRANCH  14   7
ENDBRANCH  20   6
ENDBRANCH  12  16
BRANCH   5  13
ATOM     13  C   UNL     1      -6.336   2.664  24.366  0.00  0.00    +0.111 C 
BRANCH  13  15
ATOM     15  C   UNL     1      -6.912   1.472  25.138  0.00  0.00    +0.000 C 
ATOM     23  C   UNL     1      -6.394   0.141  24.590  0.00  0.00    +0.009 C 
ATOM     24  C   UNL     1      -6.569   1.595  26.623  0.00  0.00    +0.009 C 
ENDBRANCH  13  15
ENDBRANCH   5  13
BRANCH  11  17
ATOM     17  C   UNL     1      -3.994   0.914  24.606  0.00  0.00    +0.181 C 
BRANCH  17   2
ATOM      2  O   UNL     1      -3.519   0.409  23.374  0.00  0.00    -0.393 OA
ATOM     28  H   UNL     1      -4.116  -0.311  23.109  0.00  0.00    +0.209 HD
ENDBRANCH  17   2
ENDBRANCH  11  17
TORSDOF 7
ENDMDL
MODEL 3
REMARK VINA RESULT:       4.2      2.103      3.783
REMARK  Name = 71693333
REMARK  9 active torsions:
REMARK  status: ('A' for Active; 'I' for Inactive)
REMARK    1  A    between atoms: O_2  and  C_17
REMARK    2  A    between atoms: N_5  and  C_13
REMARK    3  A    between atoms: N_6  and  C_20
REMARK    4  A    between atoms: C_7  and  C_14
REMARK    5  A    between atoms: C_11  and  C_17
REMARK    6  A    between atoms: C_12  and  C_16
REMARK    7  A    between atoms: C_13  and  C_15
REMARK    8  A    between atoms: C_15  and  C_23
REMARK    9  A    between atoms: C_15  and  C_24
REMARK                            x       y       z     vdW  Elec       q    Type
REMARK                         _______ _______ _______ _____ _____    ______ ____
ROOT
ATOM      1  O   UNL     1      -1.883   1.811  23.077  0.00  0.00    -0.361 OA
ATOM      4  O   UNL     1      -5.253   1.449  24.175  0.00  0.00    -0.273 OA
ATOM      5  N   UNL     1      -3.350   0.311  24.894  0.00  0.00    -0.291 N 
ATOM     11  C   UNL     1      -1.893   0.082  24.744  0.00  0.00    +0.135 C 
ATOM     12  C   UNL     1      -1.179   1.347  24.230  0.00  0.00    +0.171 C 
ATOM     18  C   UNL     1      -4.029   1.300  24.181  0.00  0.00    +0.242 C 
ATOM     19  C   UNL     1      -3.159   2.288  23.429  0.00  0.00    +0.256 C 
ENDROOT
BRANCH  12  16
ATOM     16  C   UNL     1       0.259   1.123  23.811  0.00  0.00    -0.017 A 
ATOM     20  C   UNL     1       2.908   0.710  23.040  0.00  0.00    +0.033 A 
ATOM     21  C   UNL     1       0.605  -0.019  23.088  0.00  0.00    +0.008 A 
ATOM     22  C   UNL     1       1.238   2.058  24.148  0.00  0.00    +0.008 A 
ATOM     25  C   UNL     1       1.929  -0.225  22.702  0.00  0.00    +0.023 A 
ATOM     26  C   UNL     1       2.562   1.851  23.763  0.00  0.00    +0.023 A 
BRANCH  20   6
ATOM      3  O   UNL     1       5.218  -0.385  24.588  0.00  0.00    -0.275 OA
ATOM      6  N   UNL     1       4.234   0.504  22.655  0.00  0.00    -0.285 N 
ATOM     14  C   UNL     1       5.293  -0.016  23.413  0.00  0.00    +0.220 C 
ATOM     27  H   UNL     1       4.453   0.766  21.697  0.00  0.00    +0.155 HD
BRANCH  14   7
ATOM      7  C   UNL     1       6.610  -0.089  22.636  0.00  0.00    +0.075 C 
ATOM      8  C   UNL     1       7.912   0.321  23.372  0.00  0.00    +0.013 C 
ATOM      9  C   UNL     1       7.259  -1.486  22.456  0.00  0.00    +0.013 C 
ATOM     10  C   UNL     1       8.629  -0.795  22.589  0.00  0.00    +0.001 C 
ENDBRANCH  14   7
ENDBRANCH  20   6
ENDBRANCH  12  16
BRANCH   5  13
ATOM     13  C   UNL     1      -4.131  -0.683  25.626  0.00  0.00    +0.111 C 
BRANCH  13  15
ATOM     15  C   UNL     1      -4.246  -2.009  24.866  0.00  0.00    +0.000 C 
ATOM     23  C   UNL     1      -4.101  -1.809  23.356  0.00  0.00    +0.009 C 
ATOM     24  C   UNL     1      -3.189  -2.993  25.367  0.00  0.00    +0.009 C 
ENDBRANCH  13  15
ENDBRANCH   5  13
BRANCH  11  17
ATOM     17  C   UNL     1      -1.238  -0.418  26.041  0.00  0.00    +0.181 C 
BRANCH  17   2
ATOM      2  O   UNL     1      -0.289  -1.408  25.702  0.00  0.00    -0.393 OA
ATOM     28  H   UNL     1       0.341  -1.468  26.440  0.00  0.00    +0.209 HD
ENDBRANCH  17   2
ENDBRANCH  11  17
TORSDOF 7
ENDMDL
MODEL 4
REMARK VINA RESULT:       4.6      1.698      2.302
REMARK  Name = 71693333
REMARK  9 active torsions:
REMARK  status: ('A' for Active; 'I' for Inactive)
REMARK    1  A    between atoms: O_2  and  C_17
REMARK    2  A    between atoms: N_5  and  C_13
REMARK    3  A    between atoms: N_6  and  C_20
REMARK    4  A    between atoms: C_7  and  C_14
REMARK    5  A    between atoms: C_11  and  C_17
REMARK    6  A    between atoms: C_12  and  C_16
REMARK    7  A    between atoms: C_13  and  C_15
REMARK    8  A    between atoms: C_15  and  C_23
REMARK    9  A    between atoms: C_15  and  C_24
REMARK                            x       y       z     vdW  Elec       q    Type
REMARK                         _______ _______ _______ _____ _____    ______ ____
ROOT
ATOM      1  O   UNL     1      -1.278  -1.075  24.443  0.00  0.00    -0.361 OA
ATOM      4  O   UNL     1      -4.610  -0.549  25.589  0.00  0.00    -0.273 OA
ATOM      5  N   UNL     1      -2.978   1.029  25.064  0.00  0.00    -0.291 N 
ATOM     11  C   UNL     1      -1.583   1.299  24.638  0.00  0.00    +0.135 C 
ATOM     12  C   UNL     1      -1.037   0.156  23.761  0.00  0.00    +0.171 C 
ATOM     18  C   UNL     1      -3.504  -0.262  25.125  0.00  0.00    +0.242 C 
ATOM     19  C   UNL     1      -2.656  -1.353  24.502  0.00  0.00    +0.256 C 
ENDROOT
BRANCH  12  16
ATOM     16  C   UNL     1       0.453   0.232  23.497  0.00  0.00    -0.017 A 
ATOM     20  C   UNL     1       3.196   0.374  23.008  0.00  0.00    +0.033 A 
ATOM     21  C   UNL     1       1.136   1.433  23.694  0.00  0.00    +0.008 A 
ATOM     22  C   UNL     1       1.142  -0.897  23.056  0.00  0.00    +0.008 A 
ATOM     25  C   UNL     1       2.507   1.504  23.450  0.00  0.00    +0.023 A 
ATOM     26  C   UNL     1       2.513  -0.826  22.811  0.00  0.00    +0.023 A 
BRANCH  20   6
ATOM      3  O   UNL     1       5.481  -0.872  24.476  0.00  0.00    -0.275 OA
ATOM      6  N   UNL     1       4.568   0.444  22.764  0.00  0.00    -0.285 N 
ATOM     14  C   UNL     1       5.614  -0.159  23.477  0.00  0.00    +0.220 C 
ATOM     27  H   UNL     1       4.837   1.006  21.961  0.00  0.00    +0.155 HD
BRANCH  14   7
ATOM      7  C   UNL     1       6.996   0.154  22.898  0.00  0.00    +0.075 C 
ATOM      8  C   UNL     1       8.125   0.551  23.885  0.00  0.00    +0.013 C 
ATOM      9  C   UNL     1       7.894  -1.045  22.497  0.00  0.00    +0.013 C 
ATOM     10  C   UNL     1       9.102  -0.219  22.977  0.00  0.00    +0.001 C 
ENDBRANCH  14   7
ENDBRANCH  20   6
ENDBRANCH  12  16
BRANCH   5  13
ATOM     13  C   UNL     1      -3.738   2.123  25.662  0.00  0.00    +0.111 C 
BRANCH  13  15
ATOM     15  C   UNL     1      -4.835   2.649  24.730  0.00  0.00    +0.000 C 
ATOM     23  C   UNL     1      -6.232   2.309  25.254  0.00  0.00    +0.009 C 
ATOM     24  C   UNL     1      -4.696   4.162  24.557  0.00  0.00    +0.009 C 
ENDBRANCH  13  15
ENDBRANCH   5  13
BRANCH  11  17
ATOM     17  C   UNL     1      -1.437   2.648  23.918  0.00  0.00    +0.181 C 
BRANCH  17   2
ATOM      2  O   UNL     1      -2.063   2.544  22.655  0.00  0.00    -0.393 OA
ATOM     28  H   UNL     1      -1.374   2.674  21.982  0.00  0.00    +0.209 HD
ENDBRANCH  17   2
ENDBRANCH  11  17
TORSDOF 7
ENDMDL
