MODEL 1
REMARK VINA RESULT:      14.4      0.000      0.000
REMARK  Name = 26742832
REMARK  3 active torsions:
REMARK  status: ('A' for Active; 'I' for Inactive)
REMARK    1  A    between atoms: N_6  and  C_21
REMARK    2  A    between atoms: N_7  and  C_18
REMARK    3  A    between atoms: C_21  and  C_25
REMARK                            x       y       z     vdW  Elec       q    Type
REMARK                         _______ _______ _______ _____ _____    ______ ____
ROOT
ATOM      1  O   UNL     1      -4.383  -1.286  23.502  0.00  0.00    -0.276 OA
ATOM      2  O   UNL     1       3.285   0.031  21.139  0.00  0.00    -0.253 OA
ATOM      5  N   UNL     1       1.435   0.026  22.543  0.00  0.00    -0.285 N 
ATOM      6  N   UNL     1      -3.050  -0.613  25.280  0.00  0.00    -0.297 N 
ATOM      7  N   UNL     1       3.583   0.632  23.332  0.00  0.00    -0.296 N 
ATOM      8  C   UNL     1      -0.516   0.863  23.867  0.00  0.00    +0.011 C 
ATOM      9  C   UNL     1      -1.484   0.342  22.783  0.00  0.00    +0.004 C 
ATOM     10  C   UNL     1      -0.753   0.373  21.430  0.00  0.00    +0.023 C 
ATOM     11  C   UNL     1       0.820   0.091  23.881  0.00  0.00    +0.113 C 
ATOM     12  C   UNL     1      -1.136   0.961  25.273  0.00  0.00    +0.024 C 
ATOM     13  C   UNL     1      -2.054  -1.059  23.065  0.00  0.00    +0.100 C 
ATOM     14  C   UNL     1       0.550  -0.419  21.463  0.00  0.00    +0.109 C 
ATOM     15  C   UNL     1      -1.720  -0.336  25.822  0.00  0.00    +0.108 C 
ATOM     16  C   UNL     1      -3.275  -1.003  23.964  0.00  0.00    +0.216 C 
ATOM     17  C   UNL     1       2.801   0.219  22.259  0.00  0.00    +0.302 C 
ATOM     32  H   UNL     1       3.159   0.932  24.198  0.00  0.00    +0.151 HD
ENDROOT
BRANCH   7  18
ATOM     18  C   UNL     1       5.004   0.865  23.204  0.00  0.00    +0.074 C 
ATOM     19  C   UNL     1       5.646   1.117  24.572  0.00  0.00    +0.022 C 
ATOM     20  C   UNL     1       5.689  -0.296  22.474  0.00  0.00    +0.022 C 
ATOM     22  C   UNL     1       5.724  -0.150  25.424  0.00  0.00    +0.002 C 
ATOM     23  C   UNL     1       5.767  -1.560  23.329  0.00  0.00    +0.002 C 
ATOM     24  C   UNL     1       6.420  -1.286  24.681  0.00  0.00    +0.000 C 
ENDBRANCH   7  18
BRANCH   6  21
ATOM     21  C   UNL     1      -4.173  -0.456  26.195  0.00  0.00    +0.143 C 
BRANCH  21  25
ATOM      3  O   UNL     1      -4.256   4.272  24.745  0.00  0.00    -0.453 OA
ATOM      4  O   UNL     1      -6.455   4.636  25.660  0.00  0.00    -0.453 OA
ATOM     25  C   UNL     1      -4.814   0.896  26.071  0.00  0.00    -0.026 A 
ATOM     26  C   UNL     1      -4.133   1.930  25.426  0.00  0.00    +0.054 A 
ATOM     27  C   UNL     1      -6.097   1.109  26.605  0.00  0.00    +0.009 A 
ATOM     28  C   UNL     1      -4.763   3.154  25.334  0.00  0.00    +0.167 A 
ATOM     29  C   UNL     1      -6.713   2.359  26.499  0.00  0.00    +0.050 A 
ATOM     30  C   UNL     1      -6.019   3.362  25.856  0.00  0.00    +0.166 A 
ATOM     31  C   UNL     1      -5.335   5.206  24.954  0.00  0.00    +0.466 C 
ENDBRANCH  21  25
ENDBRANCH   6  21
TORSDOF 3
ENDMDL
