MODEL 1
REMARK VINA RESULT:       2.6      0.000      0.000
REMARK  Name = 44716910
REMARK  12 active torsions:
REMARK  status: ('A' for Active; 'I' for Inactive)
REMARK    1  A    between atoms: O_1  and  C_15
REMARK    2  A    between atoms: O_1  and  C_25
REMARK    3  A    between atoms: O_2  and  C_16
REMARK    4  A    between atoms: O_3  and  C_21
REMARK    5  A    between atoms: O_6  and  C_29
REMARK    6  A    between atoms: N_8  and  C_30
REMARK    7  A    between atoms: C_9  and  C_19
REMARK    8  A    between atoms: C_11  and  C_21
REMARK    9  A    between atoms: C_11  and  C_22
REMARK   10  A    between atoms: C_12  and  C_20
REMARK   11  A    between atoms: C_20  and  C_23
REMARK   12  A    between atoms: C_24  and  C_29
REMARK                            x       y       z     vdW  Elec       q    Type
REMARK                         _______ _______ _______ _____ _____    ______ ____
ROOT
ATOM      9  C   UNL     1      -3.185   1.517  24.767  0.00  0.00    -0.023 C 
ATOM     10  C   UNL     1      -2.615   2.985  24.853  0.00  0.00    +0.007 C 
ATOM     11  C   UNL     1      -1.297   3.282  24.039  0.00  0.00    +0.031 C 
ATOM     12  C   UNL     1      -4.291   1.382  25.895  0.00  0.00    +0.032 C 
ATOM     13  C   UNL     1      -2.030   0.523  25.063  0.00  0.00    +0.011 C 
ATOM     14  C   UNL     1      -3.739   4.026  24.661  0.00  0.00    +0.007 C 
ATOM     15  C   UNL     1      -0.247   2.175  24.359  0.00  0.00    +0.186 C 
ATOM     16  C   UNL     1      -5.397   2.457  25.803  0.00  0.00    +0.119 C 
ATOM     17  C   UNL     1      -0.784   0.756  24.216  0.00  0.00    +0.046 C 
ATOM     18  C   UNL     1      -4.827   3.871  25.726  0.00  0.00    +0.032 C 
ATOM     19  C   UNL     1      -3.777   1.162  23.381  0.00  0.00    +0.012 C 
ATOM     22  C   UNL     1      -0.702   4.640  24.512  0.00  0.00    +0.017 C 
ENDROOT
BRANCH  16   2
ATOM      2  O   UNL     1      -6.246   2.220  24.685  0.00  0.00    -0.391 OA
ATOM     36  H   UNL     1      -7.002   1.692  24.993  0.00  0.00    +0.210 HD
ENDBRANCH  16   2
BRANCH  15   1
ATOM      1  O   UNL     1       0.902   2.276  23.518  0.00  0.00    -0.446 OA
BRANCH   1  25
ATOM      5  O   UNL     1       1.079   0.097  22.849  0.00  0.00    -0.226 OA
ATOM      8  N   UNL     1       2.915   1.303  23.657  0.00  0.00    -0.251 N 
ATOM     25  C   UNL     1       1.595   1.113  23.296  0.00  0.00    +0.405 C 
ATOM     38  H   UNL     1       3.156   2.226  24.012  0.00  0.00    +0.158 HD
BRANCH   8  30
ATOM     30  C   UNL     1       3.977   0.373  23.595  0.00  0.00    +0.036 A 
ATOM     31  C   UNL     1       5.285   0.818  23.406  0.00  0.00    +0.023 A 
ATOM     32  C   UNL     1       3.716  -0.992  23.723  0.00  0.00    +0.023 A 
ATOM     33  C   UNL     1       6.333  -0.101  23.346  0.00  0.00    +0.002 A 
ATOM     34  C   UNL     1       4.764  -1.911  23.661  0.00  0.00    +0.002 A 
ATOM     35  C   UNL     1       6.072  -1.465  23.473  0.00  0.00    +0.000 A 
ENDBRANCH   8  30
ENDBRANCH   1  25
ENDBRANCH  15   1
BRANCH  12  20
ATOM     20  C   UNL     1      -4.926  -0.012  26.015  0.00  0.00    +0.102 C 
BRANCH  20  23
ATOM      4  O   UNL     1      -3.006  -1.101  26.906  0.00  0.00    -0.276 OA
ATOM      7  N   UNL     1      -3.883  -1.949  24.940  0.00  0.00    -0.296 N 
ATOM     23  C   UNL     1      -3.848  -1.066  26.007  0.00  0.00    +0.216 C 
ATOM     24  C   UNL     1      -2.971  -3.090  24.830  0.00  0.00    +0.101 C 
ATOM     26  C   UNL     1      -4.859  -1.945  23.854  0.00  0.00    +0.108 C 
ATOM     27  C   UNL     1      -3.643  -3.994  23.792  0.00  0.00    +0.026 C 
ATOM     28  C   UNL     1      -4.368  -3.008  22.883  0.00  0.00    +0.021 C 
BRANCH  24  29
ATOM     29  C   UNL     1      -1.575  -2.648  24.393  0.00  0.00    +0.178 C 
BRANCH  29   6
ATOM      6  O   UNL     1      -0.767  -2.513  25.547  0.00  0.00    -0.393 OA
ATOM     39  H   UNL     1      -1.052  -1.703  26.004  0.00  0.00    +0.209 HD
ENDBRANCH  29   6
ENDBRANCH  24  29
ENDBRANCH  20  23
ENDBRANCH  12  20
BRANCH  11  21
ATOM     21  C   UNL     1      -1.516   3.428  22.519  0.00  0.00    +0.166 C 
BRANCH  21   3
ATOM      3  O   UNL     1      -1.712   2.138  21.984  0.00  0.00    -0.394 OA
ATOM     37  H   UNL     1      -1.076   1.545  22.417  0.00  0.00    +0.209 HD
ENDBRANCH  21   3
ENDBRANCH  11  21
TORSDOF 10
ENDMDL
MODEL 2
REMARK VINA RESULT:       3.1      1.533      2.145
REMARK  Name = 44716910
REMARK  12 active torsions:
REMARK  status: ('A' for Active; 'I' for Inactive)
REMARK    1  A    between atoms: O_1  and  C_15
REMARK    2  A    between atoms: O_1  and  C_25
REMARK    3  A    between atoms: O_2  and  C_16
REMARK    4  A    between atoms: O_3  and  C_21
REMARK    5  A    between atoms: O_6  and  C_29
REMARK    6  A    between atoms: N_8  and  C_30
REMARK    7  A    between atoms: C_9  and  C_19
REMARK    8  A    between atoms: C_11  and  C_21
REMARK    9  A    between atoms: C_11  and  C_22
REMARK   10  A    between atoms: C_12  and  C_20
REMARK   11  A    between atoms: C_20  and  C_23
REMARK   12  A    between atoms: C_24  and  C_29
REMARK                            x       y       z     vdW  Elec       q    Type
REMARK                         _______ _______ _______ _____ _____    ______ ____
ROOT
ATOM      9  C   UNL     1      -3.084   2.188  24.553  0.00  0.00    -0.023 C 
ATOM     10  C   UNL     1      -2.066   3.018  25.427  0.00  0.00    +0.007 C 
ATOM     11  C   UNL     1      -0.648   3.292  24.793  0.00  0.00    +0.031 C 
ATOM     12  C   UNL     1      -4.282   1.774  25.506  0.00  0.00    +0.032 C 
ATOM     13  C   UNL     1      -2.368   0.907  24.048  0.00  0.00    +0.011 C 
ATOM     14  C   UNL     1      -2.749   4.260  26.039  0.00  0.00    +0.007 C 
ATOM     15  C   UNL     1      -0.070   1.948  24.253  0.00  0.00    +0.186 C 
ATOM     16  C   UNL     1      -4.947   2.976  26.216  0.00  0.00    +0.119 C 
ATOM     17  C   UNL     1      -1.035   1.178  23.358  0.00  0.00    +0.046 C 
ATOM     18  C   UNL     1      -3.929   3.865  26.927  0.00  0.00    +0.032 C 
ATOM     19  C   UNL     1      -3.613   2.959  23.319  0.00  0.00    +0.012 C 
ATOM     22  C   UNL     1       0.316   3.800  25.904  0.00  0.00    +0.017 C 
ENDROOT
BRANCH  16   2
ATOM      2  O   UNL     1      -5.704   3.755  25.296  0.00  0.00    -0.391 OA
ATOM     36  H   UNL     1      -6.366   3.171  24.887  0.00  0.00    +0.210 HD
ENDBRANCH  16   2
BRANCH  15   1
ATOM      1  O   UNL     1       1.127   2.151  23.501  0.00  0.00    -0.446 OA
BRANCH   1  25
ATOM      5  O   UNL     1       1.392   0.082  22.564  0.00  0.00    -0.226 OA
ATOM      8  N   UNL     1       3.123   1.158  23.716  0.00  0.00    -0.251 N 
ATOM     25  C   UNL     1       1.850   1.025  23.197  0.00  0.00    +0.405 C 
ATOM     38  H   UNL     1       3.317   2.022  24.216  0.00  0.00    +0.158 HD
BRANCH   8  30
ATOM     30  C   UNL     1       4.194   0.239  23.639  0.00  0.00    +0.036 A 
ATOM     31  C   UNL     1       3.956  -1.126  23.802  0.00  0.00    +0.023 A 
ATOM     32  C   UNL     1       5.489   0.696  23.398  0.00  0.00    +0.023 A 
ATOM     33  C   UNL     1       5.013  -2.033  23.726  0.00  0.00    +0.002 A 
ATOM     34  C   UNL     1       6.547  -0.210  23.324  0.00  0.00    +0.002 A 
ATOM     35  C   UNL     1       6.308  -1.575  23.487  0.00  0.00    +0.000 A 
ENDBRANCH   8  30
ENDBRANCH   1  25
ENDBRANCH  15   1
BRANCH  12  20
ATOM     20  C   UNL     1      -5.357   0.896  24.848  0.00  0.00    +0.102 C 
BRANCH  20  23
ATOM      4  O   UNL     1      -4.935  -0.565  23.017  0.00  0.00    -0.276 OA
ATOM      7  N   UNL     1      -3.884  -1.052  25.020  0.00  0.00    -0.296 N 
ATOM     23  C   UNL     1      -4.711  -0.302  24.200  0.00  0.00    +0.216 C 
ATOM     24  C   UNL     1      -3.103  -2.188  24.526  0.00  0.00    +0.101 C 
ATOM     26  C   UNL     1      -3.590  -0.778  26.424  0.00  0.00    +0.108 C 
ATOM     27  C   UNL     1      -2.049  -2.407  25.615  0.00  0.00    +0.026 C 
ATOM     28  C   UNL     1      -2.762  -1.967  26.889  0.00  0.00    +0.021 C 
BRANCH  24  29
ATOM     29  C   UNL     1      -3.983  -3.421  24.318  0.00  0.00    +0.178 C 
BRANCH  29   6
ATOM      6  O   UNL     1      -4.704  -3.258  23.112  0.00  0.00    -0.393 OA
ATOM     39  H   UNL     1      -5.649  -3.241  23.343  0.00  0.00    +0.209 HD
ENDBRANCH  29   6
ENDBRANCH  24  29
ENDBRANCH  20  23
ENDBRANCH  12  20
BRANCH  11  21
ATOM     21  C   UNL     1      -0.646   4.385  23.704  0.00  0.00    +0.166 C 
BRANCH  21   3
ATOM      3  O   UNL     1      -0.455   5.629  24.340  0.00  0.00    -0.394 OA
ATOM     37  H   UNL     1       0.255   6.092  23.864  0.00  0.00    +0.209 HD
ENDBRANCH  21   3
ENDBRANCH  11  21
TORSDOF 10
ENDMDL
MODEL 3
REMARK VINA RESULT:       4.2      2.005      2.688
REMARK  Name = 44716910
REMARK  12 active torsions:
REMARK  status: ('A' for Active; 'I' for Inactive)
REMARK    1  A    between atoms: O_1  and  C_15
REMARK    2  A    between atoms: O_1  and  C_25
REMARK    3  A    between atoms: O_2  and  C_16
REMARK    4  A    between atoms: O_3  and  C_21
REMARK    5  A    between atoms: O_6  and  C_29
REMARK    6  A    between atoms: N_8  and  C_30
REMARK    7  A    between atoms: C_9  and  C_19
REMARK    8  A    between atoms: C_11  and  C_21
REMARK    9  A    between atoms: C_11  and  C_22
REMARK   10  A    between atoms: C_12  and  C_20
REMARK   11  A    between atoms: C_20  and  C_23
REMARK   12  A    between atoms: C_24  and  C_29
REMARK                            x       y       z     vdW  Elec       q    Type
REMARK                         _______ _______ _______ _____ _____    ______ ____
ROOT
ATOM      9  C   UNL     1      -4.130   1.791  24.763  0.00  0.00    -0.023 C 
ATOM     10  C   UNL     1      -3.998   2.929  25.848  0.00  0.00    +0.007 C 
ATOM     11  C   UNL     1      -2.714   3.841  25.764  0.00  0.00    +0.031 C 
ATOM     12  C   UNL     1      -5.298   0.830  25.239  0.00  0.00    +0.032 C 
ATOM     13  C   UNL     1      -2.799   0.994  24.721  0.00  0.00    +0.011 C 
ATOM     14  C   UNL     1      -5.327   3.699  26.005  0.00  0.00    +0.007 C 
ATOM     15  C   UNL     1      -1.455   2.929  25.646  0.00  0.00    +0.186 C 
ATOM     16  C   UNL     1      -6.633   1.566  25.498  0.00  0.00    +0.119 C 
ATOM     17  C   UNL     1      -1.562   1.870  24.555  0.00  0.00    +0.046 C 
ATOM     18  C   UNL     1      -6.464   2.766  26.426  0.00  0.00    +0.032 C 
ATOM     19  C   UNL     1      -4.414   2.324  23.337  0.00  0.00    +0.012 C 
ATOM     22  C   UNL     1      -2.580   4.652  27.085  0.00  0.00    +0.017 C 
ENDROOT
BRANCH  16   2
ATOM      2  O   UNL     1      -7.228   1.986  24.274  0.00  0.00    -0.391 OA
ATOM     36  H   UNL     1      -7.065   2.939  24.176  0.00  0.00    +0.210 HD
ENDBRANCH  16   2
BRANCH  15   1
ATOM      1  O   UNL     1      -0.275   3.688  25.379  0.00  0.00    -0.446 OA
BRANCH   1  25
ATOM      5  O   UNL     1       0.595   4.093  23.304  0.00  0.00    -0.226 OA
ATOM      8  N   UNL     1       0.886   2.043  24.397  0.00  0.00    -0.251 N 
ATOM     25  C   UNL     1       0.429   3.339  24.254  0.00  0.00    +0.405 C 
ATOM     38  H   UNL     1       0.643   1.574  25.266  0.00  0.00    +0.158 HD
BRANCH   8  30
ATOM     30  C   UNL     1       1.651   1.285  23.483  0.00  0.00    +0.036 A 
ATOM     31  C   UNL     1       3.009   1.556  23.316  0.00  0.00    +0.023 A 
ATOM     32  C   UNL     1       1.049   0.264  22.748  0.00  0.00    +0.023 A 
ATOM     33  C   UNL     1       3.765   0.808  22.414  0.00  0.00    +0.002 A 
ATOM     34  C   UNL     1       1.803  -0.484  21.844  0.00  0.00    +0.002 A 
ATOM     35  C   UNL     1       3.162  -0.212  21.678  0.00  0.00    +0.000 A 
ENDBRANCH   8  30
ENDBRANCH   1  25
ENDBRANCH  15   1
BRANCH  12  20
ATOM     20  C   UNL     1      -5.541  -0.389  24.337  0.00  0.00    +0.102 C 
BRANCH  20  23
ATOM      4  O   UNL     1      -3.975  -1.116  22.697  0.00  0.00    -0.276 OA
ATOM      7  N   UNL     1      -3.346  -1.308  24.915  0.00  0.00    -0.296 N 
ATOM     23  C   UNL     1      -4.220  -0.968  23.896  0.00  0.00    +0.216 C 
ATOM     24  C   UNL     1      -1.987  -1.791  24.661  0.00  0.00    +0.101 C 
ATOM     26  C   UNL     1      -3.592  -1.150  26.346  0.00  0.00    +0.108 C 
ATOM     27  C   UNL     1      -1.278  -1.609  26.007  0.00  0.00    +0.026 C 
ATOM     28  C   UNL     1      -2.398  -1.805  27.023  0.00  0.00    +0.021 C 
BRANCH  24  29
ATOM     29  C   UNL     1      -1.989  -3.248  24.202  0.00  0.00    +0.178 C 
BRANCH  29   6
ATOM      6  O   UNL     1      -3.330  -3.692  24.126  0.00  0.00    -0.393 OA
ATOM     39  H   UNL     1      -3.379  -4.540  24.598  0.00  0.00    +0.209 HD
ENDBRANCH  29   6
ENDBRANCH  24  29
ENDBRANCH  20  23
ENDBRANCH  12  20
BRANCH  11  21
ATOM     21  C   UNL     1      -2.760   4.889  24.632  0.00  0.00    +0.166 C 
BRANCH  21   3
ATOM      3  O   UNL     1      -1.775   5.861  24.902  0.00  0.00    -0.394 OA
ATOM     37  H   UNL     1      -0.986   5.625  24.385  0.00  0.00    +0.209 HD
ENDBRANCH  21   3
ENDBRANCH  11  21
TORSDOF 10
ENDMDL
MODEL 4
REMARK VINA RESULT:       4.4      1.897      4.909
REMARK  Name = 44716910
REMARK  12 active torsions:
REMARK  status: ('A' for Active; 'I' for Inactive)
REMARK    1  A    between atoms: O_1  and  C_15
REMARK    2  A    between atoms: O_1  and  C_25
REMARK    3  A    between atoms: O_2  and  C_16
REMARK    4  A    between atoms: O_3  and  C_21
REMARK    5  A    between atoms: O_6  and  C_29
REMARK    6  A    between atoms: N_8  and  C_30
REMARK    7  A    between atoms: C_9  and  C_19
REMARK    8  A    between atoms: C_11  and  C_21
REMARK    9  A    between atoms: C_11  and  C_22
REMARK   10  A    between atoms: C_12  and  C_20
REMARK   11  A    between atoms: C_20  and  C_23
REMARK   12  A    between atoms: C_24  and  C_29
REMARK                            x       y       z     vdW  Elec       q    Type
REMARK                         _______ _______ _______ _____ _____    ______ ____
ROOT
ATOM      9  C   UNL     1      -3.920   1.328  25.001  0.00  0.00    -0.023 C 
ATOM     10  C   UNL     1      -4.500   0.069  24.249  0.00  0.00    +0.007 C 
ATOM     11  C   UNL     1      -3.558  -1.191  24.147  0.00  0.00    +0.031 C 
ATOM     12  C   UNL     1      -4.894   2.541  24.696  0.00  0.00    +0.032 C 
ATOM     13  C   UNL     1      -2.515   1.644  24.422  0.00  0.00    +0.011 C 
ATOM     14  C   UNL     1      -5.939  -0.238  24.716  0.00  0.00    +0.007 C 
ATOM     15  C   UNL     1      -2.159  -0.735  23.631  0.00  0.00    +0.186 C 
ATOM     16  C   UNL     1      -6.368   2.253  25.063  0.00  0.00    +0.119 C 
ATOM     17  C   UNL     1      -1.574   0.444  24.401  0.00  0.00    +0.046 C 
ATOM     18  C   UNL     1      -6.872   0.946  24.457  0.00  0.00    +0.032 C 
ATOM     19  C   UNL     1      -3.771   1.123  26.529  0.00  0.00    +0.012 C 
ATOM     22  C   UNL     1      -4.142  -2.179  23.096  0.00  0.00    +0.017 C 
ENDROOT
BRANCH  16   2
ATOM      2  O   UNL     1      -6.545   2.228  26.475  0.00  0.00    -0.391 OA
ATOM     36  H   UNL     1      -7.325   2.767  26.687  0.00  0.00    +0.210 HD
ENDBRANCH  16   2
BRANCH  15   1
ATOM      1  O   UNL     1      -1.201  -1.792  23.691  0.00  0.00    -0.446 OA
BRANCH   1  25
ATOM      5  O   UNL     1       0.343  -1.567  25.362  0.00  0.00    -0.226 OA
ATOM      8  N   UNL     1       0.824  -1.011  23.139  0.00  0.00    -0.251 N 
ATOM     25  C   UNL     1       0.037  -1.461  24.181  0.00  0.00    +0.405 C 
ATOM     38  H   UNL     1       0.388  -0.995  22.220  0.00  0.00    +0.158 HD
BRANCH   8  30
ATOM     30  C   UNL     1       2.165  -0.568  23.191  0.00  0.00    +0.036 A 
ATOM     31  C   UNL     1       3.162  -1.414  23.676  0.00  0.00    +0.023 A 
ATOM     32  C   UNL     1       2.492   0.716  22.755  0.00  0.00    +0.023 A 
ATOM     33  C   UNL     1       4.485  -0.977  23.726  0.00  0.00    +0.002 A 
ATOM     34  C   UNL     1       3.815   1.155  22.806  0.00  0.00    +0.002 A 
ATOM     35  C   UNL     1       4.812   0.307  23.291  0.00  0.00    +0.000 A 
ENDBRANCH   8  30
ENDBRANCH   1  25
ENDBRANCH  15   1
BRANCH  12  20
ATOM     20  C   UNL     1      -4.460   3.887  25.296  0.00  0.00    +0.102 C 
BRANCH  20  23
ATOM      4  O   UNL     1      -3.511   5.050  23.448  0.00  0.00    -0.276 OA
ATOM      7  N   UNL     1      -2.049   4.234  25.045  0.00  0.00    -0.296 N 
ATOM     23  C   UNL     1      -3.306   4.449  24.504  0.00  0.00    +0.216 C 
ATOM     24  C   UNL     1      -0.830   4.795  24.457  0.00  0.00    +0.101 C 
ATOM     26  C   UNL     1      -1.759   3.529  26.291  0.00  0.00    +0.108 C 
ATOM     27  C   UNL     1       0.201   4.686  25.583  0.00  0.00    +0.026 C 
ATOM     28  C   UNL     1      -0.241   3.443  26.347  0.00  0.00    +0.021 C 
BRANCH  24  29
ATOM     29  C   UNL     1      -0.406   4.022  23.209  0.00  0.00    +0.178 C 
BRANCH  29   6
ATOM      6  O   UNL     1       0.500   3.007  23.597  0.00  0.00    -0.393 OA
ATOM     39  H   UNL     1       0.572   3.042  24.566  0.00  0.00    +0.209 HD
ENDBRANCH  29   6
ENDBRANCH  24  29
ENDBRANCH  20  23
ENDBRANCH  12  20
BRANCH  11  21
ATOM     21  C   UNL     1      -3.440  -1.997  25.457  0.00  0.00    +0.166 C 
BRANCH  21   3
ATOM      3  O   UNL     1      -3.340  -3.362  25.120  0.00  0.00    -0.394 OA
ATOM     37  H   UNL     1      -3.625  -3.453  24.195  0.00  0.00    +0.209 HD
ENDBRANCH  21   3
ENDBRANCH  11  21
TORSDOF 10
ENDMDL
MODEL 5
REMARK VINA RESULT:       5.8      1.831      4.759
REMARK  Name = 44716910
REMARK  12 active torsions:
REMARK  status: ('A' for Active; 'I' for Inactive)
REMARK    1  A    between atoms: O_1  and  C_15
REMARK    2  A    between atoms: O_1  and  C_25
REMARK    3  A    between atoms: O_2  and  C_16
REMARK    4  A    between atoms: O_3  and  C_21
REMARK    5  A    between atoms: O_6  and  C_29
REMARK    6  A    between atoms: N_8  and  C_30
REMARK    7  A    between atoms: C_9  and  C_19
REMARK    8  A    between atoms: C_11  and  C_21
REMARK    9  A    between atoms: C_11  and  C_22
REMARK   10  A    between atoms: C_12  and  C_20
REMARK   11  A    between atoms: C_20  and  C_23
REMARK   12  A    between atoms: C_24  and  C_29
REMARK                            x       y       z     vdW  Elec       q    Type
REMARK                         _______ _______ _______ _____ _____    ______ ____
ROOT
ATOM      9  C   UNL     1      -3.568   1.406  24.548  0.00  0.00    -0.023 C 
ATOM     10  C   UNL     1      -3.886  -0.113  24.833  0.00  0.00    +0.007 C 
ATOM     11  C   UNL     1      -2.653  -1.095  24.893  0.00  0.00    +0.031 C 
ATOM     12  C   UNL     1      -4.947   2.114  24.218  0.00  0.00    +0.032 C 
ATOM     13  C   UNL     1      -2.640   1.491  23.307  0.00  0.00    +0.011 C 
ATOM     14  C   UNL     1      -4.884  -0.258  26.002  0.00  0.00    +0.007 C 
ATOM     15  C   UNL     1      -1.759  -0.859  23.638  0.00  0.00    +0.186 C 
ATOM     16  C   UNL     1      -6.015   1.925  25.319  0.00  0.00    +0.119 C 
ATOM     17  C   UNL     1      -1.403   0.605  23.401  0.00  0.00    +0.046 C 
ATOM     18  C   UNL     1      -6.201   0.458  25.700  0.00  0.00    +0.032 C 
ATOM     19  C   UNL     1      -2.859   2.122  25.725  0.00  0.00    +0.012 C 
ATOM     22  C   UNL     1      -3.168  -2.562  24.830  0.00  0.00    +0.017 C 
ENDROOT
BRANCH  16   2
ATOM      2  O   UNL     1      -5.692   2.685  26.478  0.00  0.00    -0.391 OA
ATOM     36  H   UNL     1      -6.490   3.171  26.747  0.00  0.00    +0.210 HD
ENDBRANCH  16   2
BRANCH  15   1
ATOM      1  O   UNL     1      -0.530  -1.582  23.720  0.00  0.00    -0.446 OA
BRANCH   1  25
ATOM      5  O   UNL     1       0.474  -0.633  21.898  0.00  0.00    -0.226 OA
ATOM      8  N   UNL     1       1.637  -1.041  23.888  0.00  0.00    -0.251 N 
ATOM     25  C   UNL     1       0.538  -1.039  23.051  0.00  0.00    +0.405 C 
ATOM     38  H   UNL     1       1.493  -1.424  24.819  0.00  0.00    +0.158 HD
BRANCH   8  30
ATOM     30  C   UNL     1       2.943  -0.576  23.610  0.00  0.00    +0.036 A 
ATOM     31  C   UNL     1       3.127   0.663  22.998  0.00  0.00    +0.023 A 
ATOM     32  C   UNL     1       4.047  -1.357  23.950  0.00  0.00    +0.023 A 
ATOM     33  C   UNL     1       4.415   1.122  22.724  0.00  0.00    +0.002 A 
ATOM     34  C   UNL     1       5.336  -0.900  23.675  0.00  0.00    +0.002 A 
ATOM     35  C   UNL     1       5.520   0.341  23.063  0.00  0.00    +0.000 A 
ENDBRANCH   8  30
ENDBRANCH   1  25
ENDBRANCH  15   1
BRANCH  12  20
ATOM     20  C   UNL     1      -4.838   3.601  23.847  0.00  0.00    +0.102 C 
BRANCH  20  23
ATOM      4  O   UNL     1      -3.243   3.598  22.080  0.00  0.00    -0.276 OA
ATOM      7  N   UNL     1      -2.558   4.454  24.117  0.00  0.00    -0.296 N 
ATOM     23  C   UNL     1      -3.479   3.881  23.256  0.00  0.00    +0.216 C 
ATOM     24  C   UNL     1      -1.227   4.879  23.680  0.00  0.00    +0.101 C 
ATOM     26  C   UNL     1      -2.794   4.806  25.515  0.00  0.00    +0.108 C 
ATOM     27  C   UNL     1      -0.760   5.820  24.795  0.00  0.00    +0.026 C 
ATOM     28  C   UNL     1      -1.438   5.255  26.038  0.00  0.00    +0.021 C 
BRANCH  24  29
ATOM     29  C   UNL     1      -0.290   3.684  23.504  0.00  0.00    +0.178 C 
BRANCH  29   6
ATOM      6  O   UNL     1       0.133   3.254  24.783  0.00  0.00    -0.393 OA
ATOM     39  H   UNL     1       0.553   4.015  25.218  0.00  0.00    +0.209 HD
ENDBRANCH  29   6
ENDBRANCH  24  29
ENDBRANCH  20  23
ENDBRANCH  12  20
BRANCH  11  21
ATOM     21  C   UNL     1      -1.832  -0.995  26.196  0.00  0.00    +0.166 C 
BRANCH  21   3
ATOM      3  O   UNL     1      -0.757  -0.113  25.965  0.00  0.00    -0.394 OA
ATOM     37  H   UNL     1      -0.424  -0.291  25.069  0.00  0.00    +0.209 HD
ENDBRANCH  21   3
ENDBRANCH  11  21
TORSDOF 10
ENDMDL
MODEL 6
REMARK VINA RESULT:       6.6     17.622     19.790
REMARK  Name = 44716910
REMARK  12 active torsions:
REMARK  status: ('A' for Active; 'I' for Inactive)
REMARK    1  A    between atoms: O_1  and  C_15
REMARK    2  A    between atoms: O_1  and  C_25
REMARK    3  A    between atoms: O_2  and  C_16
REMARK    4  A    between atoms: O_3  and  C_21
REMARK    5  A    between atoms: O_6  and  C_29
REMARK    6  A    between atoms: N_8  and  C_30
REMARK    7  A    between atoms: C_9  and  C_19
REMARK    8  A    between atoms: C_11  and  C_21
REMARK    9  A    between atoms: C_11  and  C_22
REMARK   10  A    between atoms: C_12  and  C_20
REMARK   11  A    between atoms: C_20  and  C_23
REMARK   12  A    between atoms: C_24  and  C_29
REMARK                            x       y       z     vdW  Elec       q    Type
REMARK                         _______ _______ _______ _____ _____    ______ ____
ROOT
ATOM      9  C   UNL     1      16.126  -7.399  27.026  0.00  0.00    -0.023 C 
ATOM     10  C   UNL     1      15.367  -8.614  27.686  0.00  0.00    +0.007 C 
ATOM     11  C   UNL     1      15.084  -8.515  29.235  0.00  0.00    +0.031 C 
ATOM     12  C   UNL     1      16.572  -7.863  25.577  0.00  0.00    +0.032 C 
ATOM     13  C   UNL     1      17.389  -7.088  27.874  0.00  0.00    +0.011 C 
ATOM     14  C   UNL     1      14.150  -9.034  26.834  0.00  0.00    +0.007 C 
ATOM     15  C   UNL     1      16.404  -8.121  29.964  0.00  0.00    +0.186 C 
ATOM     16  C   UNL     1      15.402  -8.378  24.709  0.00  0.00    +0.119 C 
ATOM     17  C   UNL     1      17.103  -6.908  29.361  0.00  0.00    +0.046 C 
ATOM     18  C   UNL     1      14.575  -9.444  25.423  0.00  0.00    +0.032 C 
ATOM     19  C   UNL     1      15.275  -6.107  26.945  0.00  0.00    +0.012 C 
ATOM     22  C   UNL     1      14.659  -9.916  29.765  0.00  0.00    +0.017 C 
ENDROOT
BRANCH  16   2
ATOM      2  O   UNL     1      14.557  -7.305  24.306  0.00  0.00    -0.391 OA
ATOM     36  H   UNL     1      14.866  -6.993  23.439  0.00  0.00    +0.210 HD
ENDBRANCH  16   2
BRANCH  15   1
ATOM      1  O   UNL     1      16.181  -7.833  31.345  0.00  0.00    -0.446 OA
BRANCH   1  25
ATOM      5  O   UNL     1      17.396  -6.466  32.717  0.00  0.00    -0.226 OA
ATOM      8  N   UNL     1      16.027  -5.622  31.016  0.00  0.00    -0.251 N 
ATOM     25  C   UNL     1      16.614  -6.608  31.786  0.00  0.00    +0.405 C 
ATOM     38  H   UNL     1      15.399  -5.940  30.281  0.00  0.00    +0.158 HD
BRANCH   8  30
ATOM     30  C   UNL     1      16.190  -4.223  31.122  0.00  0.00    +0.036 A 
ATOM     31  C   UNL     1      16.581  -3.656  32.334  0.00  0.00    +0.023 A 
ATOM     32  C   UNL     1      15.962  -3.408  30.012  0.00  0.00    +0.023 A 
ATOM     33  C   UNL     1      16.742  -2.274  32.439  0.00  0.00    +0.002 A 
ATOM     34  C   UNL     1      16.122  -2.027  30.117  0.00  0.00    +0.002 A 
ATOM     35  C   UNL     1      16.513  -1.460  31.330  0.00  0.00    +0.000 A 
ENDBRANCH   8  30
ENDBRANCH   1  25
ENDBRANCH  15   1
BRANCH  12  20
ATOM     20  C   UNL     1      17.390  -6.827  24.790  0.00  0.00    +0.102 C 
BRANCH  20  23
ATOM      4  O   UNL     1      15.726  -6.050  23.276  0.00  0.00    -0.276 OA
ATOM      7  N   UNL     1      16.537  -4.532  24.822  0.00  0.00    -0.296 N 
ATOM     23  C   UNL     1      16.470  -5.777  24.220  0.00  0.00    +0.216 C 
ATOM     24  C   UNL     1      15.645  -3.429  24.457  0.00  0.00    +0.101 C 
ATOM     26  C   UNL     1      17.401  -4.165  25.941  0.00  0.00    +0.108 C 
ATOM     27  C   UNL     1      15.768  -2.456  25.633  0.00  0.00    +0.026 C 
ATOM     28  C   UNL     1      17.199  -2.668  26.117  0.00  0.00    +0.021 C 
BRANCH  24  29
ATOM     29  C   UNL     1      16.061  -2.790  23.133  0.00  0.00    +0.178 C 
BRANCH  29   6
ATOM      6  O   UNL     1      15.981  -1.384  23.269  0.00  0.00    -0.393 OA
ATOM     39  H   UNL     1      16.833  -1.081  23.628  0.00  0.00    +0.209 HD
ENDBRANCH  29   6
ENDBRANCH  24  29
ENDBRANCH  20  23
ENDBRANCH  12  20
BRANCH  11  21
ATOM     21  C   UNL     1      13.930  -7.560  29.603  0.00  0.00    +0.166 C 
BRANCH  21   3
ATOM      3  O   UNL     1      13.139  -8.195  30.584  0.00  0.00    -0.394 OA
ATOM     37  H   UNL     1      12.208  -8.048  30.345  0.00  0.00    +0.209 HD
ENDBRANCH  21   3
ENDBRANCH  11  21
TORSDOF 10
ENDMDL
