MODEL 1
REMARK VINA RESULT:       4.3      0.000      0.000
REMARK  Name = 26743066
REMARK  7 active torsions:
REMARK  status: ('A' for Active; 'I' for Inactive)
REMARK    1  A    between atoms: O_4  and  C_34
REMARK    2  A    between atoms: N_8  and  C_16
REMARK    3  A    between atoms: C_11  and  C_14
REMARK    4  A    between atoms: C_12  and  C_18
REMARK    5  A    between atoms: C_14  and  C_23
REMARK    6  A    between atoms: C_18  and  C_24
REMARK    7  A    between atoms: C_31  and  C_34
REMARK                            x       y       z     vdW  Elec       q    Type
REMARK                         _______ _______ _______ _____ _____    ______ ____
ROOT
ATOM      1  O   UNL     1      -3.265  -1.567  26.591  0.00  0.00    -0.276 OA
ATOM      6  N   UNL     1      -2.101  -1.226  24.609  0.00  0.00    -0.301 N 
ATOM     16  C   UNL     1       0.520  -0.719  23.489  0.00  0.00    +0.095 C 
ATOM     19  C   UNL     1       0.346  -1.302  24.895  0.00  0.00    +0.044 C 
ATOM     20  C   UNL     1      -0.697   0.126  23.100  0.00  0.00    +0.044 C 
ATOM     21  C   UNL     1      -0.972  -2.065  25.016  0.00  0.00    +0.110 C 
ATOM     22  C   UNL     1      -1.995  -0.664  23.258  0.00  0.00    +0.110 C 
ATOM     23  C   UNL     1      -3.182  -1.053  25.472  0.00  0.00    +0.216 C 
ENDROOT
BRANCH  16   8
ATOM      3  O   UNL     1       0.870   2.248  23.082  0.00  0.00    -0.247 OA
ATOM      8  N   UNL     1       1.733   0.056  23.406  0.00  0.00    -0.289 N 
ATOM      9  N   UNL     1       3.187   1.781  23.195  0.00  0.00    -0.306 N 
ATOM     25  C   UNL     1       3.032  -0.458  23.506  0.00  0.00    +0.070 A 
ATOM     26  C   UNL     1       1.798   1.461  23.211  0.00  0.00    +0.328 A 
ATOM     27  C   UNL     1       3.920   0.607  23.375  0.00  0.00    +0.067 A 
ATOM     29  C   UNL     1       3.477  -1.749  23.696  0.00  0.00    +0.028 A 
ATOM     30  C   UNL     1       5.286   0.441  23.428  0.00  0.00    +0.028 A 
ATOM     32  C   UNL     1       4.861  -1.945  23.753  0.00  0.00    +0.002 A 
ATOM     33  C   UNL     1       5.756  -0.861  23.620  0.00  0.00    +0.002 A 
ATOM     36  H   UNL     1       3.588   2.702  23.075  0.00  0.00    +0.170 HD
ENDBRANCH  16   8
BRANCH  23  14
ATOM     14  C   UNL     1      -4.304  -0.172  24.981  0.00  0.00    +0.100 C 
BRANCH  14  11
ATOM      7  N   UNL     1      -6.273   3.030  24.626  0.00  0.00    -0.316 NA
ATOM     11  C   UNL     1      -4.349   1.124  25.798  0.00  0.00    +0.004 C 
ATOM     12  C   UNL     1      -3.907   2.381  25.011  0.00  0.00    +0.012 C 
ATOM     13  C   UNL     1      -5.756   1.361  26.373  0.00  0.00    +0.019 C 
ATOM     15  C   UNL     1      -4.972   2.815  23.991  0.00  0.00    +0.085 C 
ATOM     17  C   UNL     1      -6.748   1.829  25.310  0.00  0.00    +0.081 C 
ATOM     35  H   UNL     1      -6.952   3.308  23.919  0.00  0.00    +0.122 HD
BRANCH  12  18
ATOM     18  C   UNL     1      -2.548   2.213  24.330  0.00  0.00    +0.064 C 
BRANCH  18  24
ATOM      2  O   UNL     1       0.118   3.918  26.049  0.00  0.00    -0.348 OA
ATOM     10  N   UNL     1      -0.866   3.846  25.070  0.00  0.00    -0.082 NA
ATOM     24  C   UNL     1      -1.427   2.645  25.232  0.00  0.00    +0.085 A 
ATOM     28  C   UNL     1      -0.845   1.921  26.287  0.00  0.00    +0.083 A 
ATOM     31  C   UNL     1       0.121   2.765  26.767  0.00  0.00    +0.244 A 
BRANCH  31  34
ATOM      5  O   UNL     1       2.266   2.980  27.805  0.00  0.00    -0.242 OA
ATOM     34  C   UNL     1       1.060   2.634  27.826  0.00  0.00    +0.375 C 
BRANCH  34   4
ATOM      4  O   UNL     1       0.536   2.065  28.963  0.00  0.00    -0.475 OA
ATOM     37  H   UNL     1       0.933   1.186  29.142  0.00  0.00    +0.296 HD
ENDBRANCH  34   4
ENDBRANCH  31  34
ENDBRANCH  18  24
ENDBRANCH  12  18
ENDBRANCH  14  11
ENDBRANCH  23  14
TORSDOF 7
ENDMDL
MODEL 2
REMARK VINA RESULT:       4.6      2.260      4.195
REMARK  Name = 26743066
REMARK  7 active torsions:
REMARK  status: ('A' for Active; 'I' for Inactive)
REMARK    1  A    between atoms: O_4  and  C_34
REMARK    2  A    between atoms: N_8  and  C_16
REMARK    3  A    between atoms: C_11  and  C_14
REMARK    4  A    between atoms: C_12  and  C_18
REMARK    5  A    between atoms: C_14  and  C_23
REMARK    6  A    between atoms: C_18  and  C_24
REMARK    7  A    between atoms: C_31  and  C_34
REMARK                            x       y       z     vdW  Elec       q    Type
REMARK                         _______ _______ _______ _____ _____    ______ ____
ROOT
ATOM      1  O   UNL     1      -2.691   5.520  24.635  0.00  0.00    -0.276 OA
ATOM      6  N   UNL     1      -1.228   3.849  25.318  0.00  0.00    -0.301 N 
ATOM     16  C   UNL     1       0.927   2.123  24.450  0.00  0.00    +0.095 C 
ATOM     19  C   UNL     1       0.565   3.401  23.688  0.00  0.00    +0.044 C 
ATOM     20  C   UNL     1      -0.294   1.571  25.191  0.00  0.00    +0.044 C 
ATOM     21  C   UNL     1      -0.084   4.429  24.613  0.00  0.00    +0.110 C 
ATOM     22  C   UNL     1      -0.927   2.635  26.086  0.00  0.00    +0.110 C 
ATOM     23  C   UNL     1      -2.471   4.478  25.258  0.00  0.00    +0.216 C 
ENDROOT
BRANCH  16   8
ATOM      3  O   UNL     1      -0.494   0.296  22.516  0.00  0.00    -0.247 OA
ATOM      8  N   UNL     1       1.475   1.134  23.554  0.00  0.00    -0.289 N 
ATOM      9  N   UNL     1       1.673  -0.497  21.994  0.00  0.00    -0.306 N 
ATOM     25  C   UNL     1       2.835   0.832  23.414  0.00  0.00    +0.070 A 
ATOM     26  C   UNL     1       0.720   0.315  22.673  0.00  0.00    +0.328 A 
ATOM     27  C   UNL     1       2.950  -0.172  22.455  0.00  0.00    +0.067 A 
ATOM     29  C   UNL     1       3.943   1.354  24.047  0.00  0.00    +0.028 A 
ATOM     30  C   UNL     1       4.165  -0.700  22.080  0.00  0.00    +0.028 A 
ATOM     32  C   UNL     1       5.190   0.834  23.684  0.00  0.00    +0.002 A 
ATOM     33  C   UNL     1       5.299  -0.183  22.711  0.00  0.00    +0.002 A 
ATOM     36  H   UNL     1       1.471  -1.198  21.292  0.00  0.00    +0.170 HD
ENDBRANCH  16   8
BRANCH  23  14
ATOM     14  C   UNL     1      -3.600   3.817  26.009  0.00  0.00    +0.100 C 
BRANCH  14  11
ATOM      7  N   UNL     1      -6.678   1.633  26.086  0.00  0.00    -0.316 NA
ATOM     11  C   UNL     1      -4.843   3.729  25.116  0.00  0.00    +0.004 C 
ATOM     12  C   UNL     1      -5.010   2.368  24.400  0.00  0.00    +0.012 C 
ATOM     13  C   UNL     1      -6.118   4.033  25.921  0.00  0.00    +0.019 C 
ATOM     15  C   UNL     1      -5.453   1.265  25.375  0.00  0.00    +0.085 C 
ATOM     17  C   UNL     1      -6.519   2.877  26.836  0.00  0.00    +0.081 C 
ATOM     35  H   UNL     1      -6.935   0.882  26.726  0.00  0.00    +0.122 HD
BRANCH  12  18
ATOM     18  C   UNL     1      -3.758   1.937  23.635  0.00  0.00    +0.064 C 
BRANCH  18  24
ATOM      2  O   UNL     1      -3.553  -1.652  23.425  0.00  0.00    -0.348 OA
ATOM     10  N   UNL     1      -3.998  -0.417  22.968  0.00  0.00    -0.082 NA
ATOM     24  C   UNL     1      -3.480   0.472  23.820  0.00  0.00    +0.085 A 
ATOM     28  C   UNL     1      -2.708  -0.137  24.824  0.00  0.00    +0.083 A 
ATOM     31  C   UNL     1      -2.786  -1.472  24.531  0.00  0.00    +0.244 A 
BRANCH  31  34
ATOM      5  O   UNL     1      -1.009  -2.903  25.251  0.00  0.00    -0.242 OA
ATOM     34  C   UNL     1      -2.228  -2.619  25.158  0.00  0.00    +0.375 C 
BRANCH  34   4
ATOM      4  O   UNL     1      -3.166  -3.466  25.698  0.00  0.00    -0.475 OA
ATOM     37  H   UNL     1      -4.014  -3.003  25.869  0.00  0.00    +0.296 HD
ENDBRANCH  34   4
ENDBRANCH  31  34
ENDBRANCH  18  24
ENDBRANCH  12  18
ENDBRANCH  14  11
ENDBRANCH  23  14
TORSDOF 7
ENDMDL
MODEL 3
REMARK VINA RESULT:       5.9      2.479      5.553
REMARK  Name = 26743066
REMARK  7 active torsions:
REMARK  status: ('A' for Active; 'I' for Inactive)
REMARK    1  A    between atoms: O_4  and  C_34
REMARK    2  A    between atoms: N_8  and  C_16
REMARK    3  A    between atoms: C_11  and  C_14
REMARK    4  A    between atoms: C_12  and  C_18
REMARK    5  A    between atoms: C_14  and  C_23
REMARK    6  A    between atoms: C_18  and  C_24
REMARK    7  A    between atoms: C_31  and  C_34
REMARK                            x       y       z     vdW  Elec       q    Type
REMARK                         _______ _______ _______ _____ _____    ______ ____
ROOT
ATOM      1  O   UNL     1      -5.330   3.754  26.527  0.00  0.00    -0.276 OA
ATOM      6  N   UNL     1      -4.946   2.325  24.735  0.00  0.00    -0.301 N 
ATOM     16  C   UNL     1      -4.456  -0.431  23.999  0.00  0.00    +0.095 C 
ATOM     19  C   UNL     1      -5.084  -0.058  25.346  0.00  0.00    +0.044 C 
ATOM     20  C   UNL     1      -3.573   0.707  23.481  0.00  0.00    +0.044 C 
ATOM     21  C   UNL     1      -5.822   1.276  25.260  0.00  0.00    +0.110 C 
ATOM     22  C   UNL     1      -4.340   2.027  23.432  0.00  0.00    +0.110 C 
ATOM     23  C   UNL     1      -4.779   3.511  25.450  0.00  0.00    +0.216 C 
ENDROOT
BRANCH  16   8
ATOM      3  O   UNL     1      -5.161  -3.202  23.039  0.00  0.00    -0.247 OA
ATOM      8  N   UNL     1      -3.705  -1.657  24.110  0.00  0.00    -0.289 N 
ATOM      9  N   UNL     1      -3.072  -3.827  23.956  0.00  0.00    -0.306 N 
ATOM     25  C   UNL     1      -2.448  -1.785  24.715  0.00  0.00    +0.070 A 
ATOM     26  C   UNL     1      -4.122  -2.924  23.624  0.00  0.00    +0.328 A 
ATOM     27  C   UNL     1      -2.065  -3.121  24.617  0.00  0.00    +0.067 A 
ATOM     29  C   UNL     1      -1.642  -0.847  25.325  0.00  0.00    +0.028 A 
ATOM     30  C   UNL     1      -0.869  -3.586  25.118  0.00  0.00    +0.028 A 
ATOM     32  C   UNL     1      -0.422  -1.294  25.843  0.00  0.00    +0.002 A 
ATOM     33  C   UNL     1      -0.040  -2.649  25.740  0.00  0.00    +0.002 A 
ATOM     36  H   UNL     1      -3.047  -4.818  23.753  0.00  0.00    +0.170 HD
ENDBRANCH  16   8
BRANCH  23  14
ATOM     14  C   UNL     1      -3.859   4.541  24.844  0.00  0.00    +0.100 C 
BRANCH  14  11
ATOM      7  N   UNL     1      -0.467   6.117  24.328  0.00  0.00    -0.316 NA
ATOM     11  C   UNL     1      -2.670   4.795  25.779  0.00  0.00    +0.004 C 
ATOM     12  C   UNL     1      -1.376   4.054  25.369  0.00  0.00    +0.012 C 
ATOM     13  C   UNL     1      -2.373   6.301  25.889  0.00  0.00    +0.019 C 
ATOM     15  C   UNL     1      -0.725   4.690  24.130  0.00  0.00    +0.085 C 
ATOM     17  C   UNL     1      -1.691   6.853  24.638  0.00  0.00    +0.081 C 
ATOM     35  H   UNL     1      -0.044   6.503  23.485  0.00  0.00    +0.122 HD
BRANCH  12  18
ATOM     18  C   UNL     1      -1.588   2.555  25.155  0.00  0.00    +0.064 C 
BRANCH  18  24
ATOM      2  O   UNL     1       1.714   1.373  24.339  0.00  0.00    -0.348 OA
ATOM     10  N   UNL     1       0.827   2.096  25.128  0.00  0.00    -0.082 NA
ATOM     24  C   UNL     1      -0.369   1.909  24.562  0.00  0.00    +0.085 A 
ATOM     28  C   UNL     1      -0.298   1.086  23.424  0.00  0.00    +0.083 A 
ATOM     31  C   UNL     1       1.033   0.776  23.328  0.00  0.00    +0.244 A 
BRANCH  31  34
ATOM      5  O   UNL     1       1.352  -0.437  21.291  0.00  0.00    -0.242 OA
ATOM     34  C   UNL     1       1.761  -0.017  22.401  0.00  0.00    +0.375 C 
BRANCH  34   4
ATOM      4  O   UNL     1       3.035  -0.324  22.815  0.00  0.00    -0.475 OA
ATOM     37  H   UNL     1       3.167  -1.293  22.888  0.00  0.00    +0.296 HD
ENDBRANCH  34   4
ENDBRANCH  31  34
ENDBRANCH  18  24
ENDBRANCH  12  18
ENDBRANCH  14  11
ENDBRANCH  23  14
TORSDOF 7
ENDMDL
MODEL 4
REMARK VINA RESULT:       7.9      2.322      7.226
REMARK  Name = 26743066
REMARK  7 active torsions:
REMARK  status: ('A' for Active; 'I' for Inactive)
REMARK    1  A    between atoms: O_4  and  C_34
REMARK    2  A    between atoms: N_8  and  C_16
REMARK    3  A    between atoms: C_11  and  C_14
REMARK    4  A    between atoms: C_12  and  C_18
REMARK    5  A    between atoms: C_14  and  C_23
REMARK    6  A    between atoms: C_18  and  C_24
REMARK    7  A    between atoms: C_31  and  C_34
REMARK                            x       y       z     vdW  Elec       q    Type
REMARK                         _______ _______ _______ _____ _____    ______ ____
ROOT
ATOM      1  O   UNL     1      -0.687  -2.683  23.054  0.00  0.00    -0.276 OA
ATOM      6  N   UNL     1      -1.568  -1.359  24.748  0.00  0.00    -0.301 N 
ATOM     16  C   UNL     1      -3.918   0.103  25.596  0.00  0.00    +0.095 C 
ATOM     19  C   UNL     1      -3.997  -0.999  24.535  0.00  0.00    +0.044 C 
ATOM     20  C   UNL     1      -2.527   0.743  25.609  0.00  0.00    +0.044 C 
ATOM     21  C   UNL     1      -2.875  -2.019  24.715  0.00  0.00    +0.110 C 
ATOM     22  C   UNL     1      -1.433  -0.311  25.767  0.00  0.00    +0.110 C 
ATOM     23  C   UNL     1      -0.560  -1.773  23.877  0.00  0.00    +0.216 C 
ENDROOT
BRANCH  16   8
ATOM      3  O   UNL     1      -6.608  -0.182  24.265  0.00  0.00    -0.247 OA
ATOM      8  N   UNL     1      -4.940   1.097  25.375  0.00  0.00    -0.289 N 
ATOM      9  N   UNL     1      -6.858   2.121  24.741  0.00  0.00    -0.306 N 
ATOM     25  C   UNL     1      -4.859   2.441  25.760  0.00  0.00    +0.070 A 
ATOM     26  C   UNL     1      -6.185   0.866  24.733  0.00  0.00    +0.328 A 
ATOM     27  C   UNL     1      -6.042   3.065  25.367  0.00  0.00    +0.067 A 
ATOM     29  C   UNL     1      -3.859   3.135  26.407  0.00  0.00    +0.028 A 
ATOM     30  C   UNL     1      -6.284   4.401  25.598  0.00  0.00    +0.028 A 
ATOM     32  C   UNL     1      -4.081   4.493  26.654  0.00  0.00    +0.002 A 
ATOM     33  C   UNL     1      -5.281   5.120  26.253  0.00  0.00    +0.002 A 
ATOM     36  H   UNL     1      -7.776   2.311  24.360  0.00  0.00    +0.170 HD
ENDBRANCH  16   8
BRANCH  23  14
ATOM     14  C   UNL     1       0.756  -1.042  23.971  0.00  0.00    +0.100 C 
BRANCH  14  11
ATOM      7  N   UNL     1       3.612   0.769  22.294  0.00  0.00    -0.316 NA
ATOM     11  C   UNL     1       0.815   0.067  22.913  0.00  0.00    +0.004 C 
ATOM     12  C   UNL     1       1.477   1.375  23.407  0.00  0.00    +0.012 C 
ATOM     13  C   UNL     1       1.545  -0.420  21.650  0.00  0.00    +0.019 C 
ATOM     15  C   UNL     1       3.001   1.223  23.543  0.00  0.00    +0.085 C 
ATOM     17  C   UNL     1       3.057  -0.508  21.849  0.00  0.00    +0.081 C 
ATOM     35  H   UNL     1       4.619   0.673  22.426  0.00  0.00    +0.122 HD
BRANCH  12  18
ATOM     18  C   UNL     1       0.871   1.898  24.710  0.00  0.00    +0.064 C 
BRANCH  18  24
ATOM      2  O   UNL     1      -1.597   4.518  24.600  0.00  0.00    -0.348 OA
ATOM     10  N   UNL     1      -0.407   3.968  25.064  0.00  0.00    -0.082 NA
ATOM     24  C   UNL     1      -0.310   2.787  24.445  0.00  0.00    +0.085 A 
ATOM     28  C   UNL     1      -1.398   2.541  23.590  0.00  0.00    +0.083 A 
ATOM     31  C   UNL     1      -2.177   3.659  23.724  0.00  0.00    +0.244 A 
BRANCH  31  34
ATOM      5  O   UNL     1      -3.963   5.162  23.196  0.00  0.00    -0.242 OA
ATOM     34  C   UNL     1      -3.413   4.036  23.130  0.00  0.00    +0.375 C 
BRANCH  34   4
ATOM      4  O   UNL     1      -4.020   3.024  22.425  0.00  0.00    -0.475 OA
ATOM     37  H   UNL     1      -4.802   3.348  21.930  0.00  0.00    +0.296 HD
ENDBRANCH  34   4
ENDBRANCH  31  34
ENDBRANCH  18  24
ENDBRANCH  12  18
ENDBRANCH  14  11
ENDBRANCH  23  14
TORSDOF 7
ENDMDL
MODEL 5
REMARK VINA RESULT:       8.0      1.653      6.687
REMARK  Name = 26743066
REMARK  7 active torsions:
REMARK  status: ('A' for Active; 'I' for Inactive)
REMARK    1  A    between atoms: O_4  and  C_34
REMARK    2  A    between atoms: N_8  and  C_16
REMARK    3  A    between atoms: C_11  and  C_14
REMARK    4  A    between atoms: C_12  and  C_18
REMARK    5  A    between atoms: C_14  and  C_23
REMARK    6  A    between atoms: C_18  and  C_24
REMARK    7  A    between atoms: C_31  and  C_34
REMARK                            x       y       z     vdW  Elec       q    Type
REMARK                         _______ _______ _______ _____ _____    ______ ____
ROOT
ATOM      1  O   UNL     1      -1.511  -2.599  22.882  0.00  0.00    -0.276 OA
ATOM      6  N   UNL     1      -2.083  -1.401  24.789  0.00  0.00    -0.301 N 
ATOM     16  C   UNL     1      -4.127   0.261  25.988  0.00  0.00    +0.095 C 
ATOM     19  C   UNL     1      -4.434  -0.664  24.806  0.00  0.00    +0.044 C 
ATOM     20  C   UNL     1      -2.655   0.682  25.976  0.00  0.00    +0.044 C 
ATOM     21  C   UNL     1      -3.475  -1.852  24.772  0.00  0.00    +0.110 C 
ATOM     22  C   UNL     1      -1.730  -0.532  25.918  0.00  0.00    +0.110 C 
ATOM     23  C   UNL     1      -1.200  -1.837  23.801  0.00  0.00    +0.216 C 
ENDROOT
BRANCH  16   8
ATOM      3  O   UNL     1      -6.807   0.662  27.310  0.00  0.00    -0.247 OA
ATOM      8  N   UNL     1      -4.993   1.414  25.969  0.00  0.00    -0.289 N 
ATOM      9  N   UNL     1      -6.735   2.815  26.332  0.00  0.00    -0.306 N 
ATOM     25  C   UNL     1      -4.728   2.616  25.300  0.00  0.00    +0.070 A 
ATOM     26  C   UNL     1      -6.247   1.510  26.628  0.00  0.00    +0.328 A 
ATOM     27  C   UNL     1      -5.804   3.472  25.527  0.00  0.00    +0.067 A 
ATOM     29  C   UNL     1      -3.650   3.000  24.531  0.00  0.00    +0.028 A 
ATOM     30  C   UNL     1      -5.858   4.745  25.003  0.00  0.00    +0.028 A 
ATOM     32  C   UNL     1      -3.681   4.289  23.988  0.00  0.00    +0.002 A 
ATOM     33  C   UNL     1      -4.773   5.152  24.221  0.00  0.00    +0.002 A 
ATOM     36  H   UNL     1      -7.611   3.213  26.647  0.00  0.00    +0.170 HD
ENDBRANCH  16   8
BRANCH  23  14
ATOM     14  C   UNL     1       0.216  -1.325  23.886  0.00  0.00    +0.100 C 
BRANCH  14  11
ATOM      7  N   UNL     1       3.108   0.953  23.050  0.00  0.00    -0.316 NA
ATOM     11  C   UNL     1       0.514  -0.407  22.695  0.00  0.00    +0.004 C 
ATOM     12  C   UNL     1       0.629   1.090  23.068  0.00  0.00    +0.012 C 
ATOM     13  C   UNL     1       1.800  -0.845  21.974  0.00  0.00    +0.019 C 
ATOM     15  C   UNL     1       1.939   1.391  23.814  0.00  0.00    +0.085 C 
ATOM     17  C   UNL     1       3.060  -0.477  22.756  0.00  0.00    +0.081 C 
ATOM     35  H   UNL     1       3.954   1.162  23.580  0.00  0.00    +0.122 HD
BRANCH  12  18
ATOM     18  C   UNL     1      -0.572   1.603  23.863  0.00  0.00    +0.064 C 
BRANCH  18  24
ATOM      2  O   UNL     1       0.147   3.763  26.654  0.00  0.00    -0.348 OA
ATOM     10  N   UNL     1      -0.366   3.523  25.384  0.00  0.00    -0.082 NA
ATOM     24  C   UNL     1      -0.144   2.225  25.161  0.00  0.00    +0.085 A 
ATOM     28  C   UNL     1       0.500   1.600  26.243  0.00  0.00    +0.083 A 
ATOM     31  C   UNL     1       0.660   2.610  27.155  0.00  0.00    +0.244 A 
BRANCH  31  34
ATOM      5  O   UNL     1       0.625   2.595  29.547  0.00  0.00    -0.242 OA
ATOM     34  C   UNL     1       1.239   2.638  28.453  0.00  0.00    +0.375 C 
BRANCH  34   4
ATOM      4  O   UNL     1       2.610   2.722  28.446  0.00  0.00    -0.475 OA
ATOM     37  H   UNL     1       2.931   3.329  27.746  0.00  0.00    +0.296 HD
ENDBRANCH  34   4
ENDBRANCH  31  34
ENDBRANCH  18  24
ENDBRANCH  12  18
ENDBRANCH  14  11
ENDBRANCH  23  14
TORSDOF 7
ENDMDL
