MODEL 1
REMARK VINA RESULT:      -5.9      0.000      0.000
REMARK  Name = 56774094
REMARK  10 active torsions:
REMARK  status: ('A' for Active; 'I' for Inactive)
REMARK    1  A    between atoms: O_2  and  C_20
REMARK    2  A    between atoms: O_2  and  C_23
REMARK    3  A    between atoms: N_3  and  C_8
REMARK    4  A    between atoms: N_3  and  C_14
REMARK    5  A    between atoms: C_6  and  C_11
REMARK    6  A    between atoms: C_6  and  C_12
REMARK    7  A    between atoms: C_7  and  C_10
REMARK    8  A    between atoms: C_10  and  C_13
REMARK    9  A    between atoms: C_14  and  C_16
REMARK   10  A    between atoms: C_17  and  C_20
REMARK                            x       y       z     vdW  Elec       q    Type
REMARK                         _______ _______ _______ _____ _____    ______ ____
ROOT
ATOM      6  C   UNL     1      -3.572  -1.232  24.558  0.00  0.00    -0.016 C 
ATOM      7  C   UNL     1      -2.248  -0.776  23.913  0.00  0.00    +0.004 C 
ATOM      8  C   UNL     1      -4.173   0.111  24.093  0.00  0.00    +0.060 C 
ATOM      9  C   UNL     1      -2.735   0.673  24.117  0.00  0.00    +0.023 C 
ATOM     11  C   UNL     1      -3.557  -1.355  26.072  0.00  0.00    +0.013 C 
ATOM     12  C   UNL     1      -4.141  -2.498  23.954  0.00  0.00    +0.013 C 
ENDROOT
BRANCH   8   3
ATOM      3  N   UNL     1      -4.948   0.745  25.161  0.00  0.00    -0.309 NA
ATOM     24  H   UNL     1      -4.436   0.815  26.041  0.00  0.00    +0.123 HD
BRANCH   3  14
ATOM     14  C   UNL     1      -5.339   2.088  24.748  0.00  0.00    +0.118 C 
BRANCH  14  16
ATOM      5  N   UNL     1      -2.642   4.648  24.038  0.00  0.00    -0.263 NA
ATOM     16  C   UNL     1      -4.235   3.087  24.972  0.00  0.00    -0.015 A 
ATOM     18  C   UNL     1      -3.784   3.381  26.253  0.00  0.00    +0.008 A 
ATOM     19  C   UNL     1      -3.637   3.742  23.906  0.00  0.00    +0.115 A 
ATOM     21  C   UNL     1      -2.762   4.307  26.429  0.00  0.00    +0.020 A 
ATOM     22  C   UNL     1      -2.230   4.908  25.299  0.00  0.00    +0.111 A 
ENDBRANCH  14  16
ENDBRANCH   3  14
ENDBRANCH   8   3
BRANCH   7  10
ATOM     10  C   UNL     1      -0.971  -1.119  24.647  0.00  0.00    +0.063 C 
BRANCH  10  13
ATOM      1  O   UNL     1       1.442   1.421  23.784  0.00  0.00    -0.357 OA
ATOM      4  N   UNL     1       0.298   0.983  24.439  0.00  0.00    -0.083 NA
ATOM     13  C   UNL     1       0.181  -0.305  24.106  0.00  0.00    +0.084 A 
ATOM     15  C   UNL     1       1.211  -0.731  23.251  0.00  0.00    +0.073 A 
ATOM     17  C   UNL     1       1.978   0.391  23.079  0.00  0.00    +0.163 A 
BRANCH  17  20
ATOM     20  C   UNL     1       3.201   0.680  22.322  0.00  0.00    +0.236 C 
BRANCH  20   2
ATOM      2  O   UNL     1       4.244   1.098  23.205  0.00  0.00    -0.375 OA
ATOM     23  C   UNL     1       5.169   0.049  23.439  0.00  0.00    +0.194 C 
ENDBRANCH  20   2
ENDBRANCH  17  20
ENDBRANCH  10  13
ENDBRANCH   7  10
TORSDOF 7
ENDMDL
MODEL 2
REMARK VINA RESULT:      -5.7      1.604      4.553
REMARK  Name = 56774094
REMARK  10 active torsions:
REMARK  status: ('A' for Active; 'I' for Inactive)
REMARK    1  A    between atoms: O_2  and  C_20
REMARK    2  A    between atoms: O_2  and  C_23
REMARK    3  A    between atoms: N_3  and  C_8
REMARK    4  A    between atoms: N_3  and  C_14
REMARK    5  A    between atoms: C_6  and  C_11
REMARK    6  A    between atoms: C_6  and  C_12
REMARK    7  A    between atoms: C_7  and  C_10
REMARK    8  A    between atoms: C_10  and  C_13
REMARK    9  A    between atoms: C_14  and  C_16
REMARK   10  A    between atoms: C_17  and  C_20
REMARK                            x       y       z     vdW  Elec       q    Type
REMARK                         _______ _______ _______ _____ _____    ______ ____
ROOT
ATOM      6  C   UNL     1      -4.315   3.822  24.879  0.00  0.00    -0.016 C 
ATOM      7  C   UNL     1      -3.129   4.004  25.849  0.00  0.00    +0.004 C 
ATOM      8  C   UNL     1      -4.617   2.501  25.617  0.00  0.00    +0.060 C 
ATOM      9  C   UNL     1      -3.125   2.470  26.011  0.00  0.00    +0.023 C 
ATOM     11  C   UNL     1      -3.943   3.590  23.425  0.00  0.00    +0.013 C 
ATOM     12  C   UNL     1      -5.349   4.925  24.966  0.00  0.00    +0.013 C 
ENDROOT
BRANCH   8   3
ATOM      3  N   UNL     1      -4.882   1.415  24.673  0.00  0.00    -0.309 NA
ATOM     24  H   UNL     1      -4.164   1.324  23.953  0.00  0.00    +0.123 HD
BRANCH   3  14
ATOM     14  C   UNL     1      -4.970   0.151  25.397  0.00  0.00    +0.118 C 
BRANCH  14  16
ATOM      5  N   UNL     1      -1.482  -1.287  25.087  0.00  0.00    -0.263 NA
ATOM     16  C   UNL     1      -3.846  -0.782  25.033  0.00  0.00    -0.015 A 
ATOM     18  C   UNL     1      -4.089  -1.959  24.336  0.00  0.00    +0.008 A 
ATOM     19  C   UNL     1      -2.536  -0.494  25.384  0.00  0.00    +0.115 A 
ATOM     21  C   UNL     1      -3.031  -2.801  24.013  0.00  0.00    +0.020 A 
ATOM     22  C   UNL     1      -1.758  -2.424  24.409  0.00  0.00    +0.111 A 
ENDBRANCH  14  16
ENDBRANCH   3  14
ENDBRANCH   8   3
BRANCH   7  10
ATOM     10  C   UNL     1      -1.854   4.579  25.277  0.00  0.00    +0.063 C 
BRANCH  10  13
ATOM      1  O   UNL     1       0.746   2.089  25.531  0.00  0.00    -0.357 OA
ATOM      4  N   UNL     1      -0.055   3.091  26.066  0.00  0.00    -0.083 NA
ATOM     13  C   UNL     1      -0.836   3.485  25.057  0.00  0.00    +0.084 A 
ATOM     15  C   UNL     1      -0.576   2.776  23.872  0.00  0.00    +0.073 A 
ATOM     17  C   UNL     1       0.427   1.911  24.223  0.00  0.00    +0.163 A 
BRANCH  17  20
ATOM     20  C   UNL     1       1.183   0.884  23.498  0.00  0.00    +0.236 C 
BRANCH  20   2
ATOM      2  O   UNL     1       2.553   1.273  23.370  0.00  0.00    -0.375 OA
ATOM     23  C   UNL     1       3.243   0.429  22.463  0.00  0.00    +0.194 C 
ENDBRANCH  20   2
ENDBRANCH  17  20
ENDBRANCH  10  13
ENDBRANCH   7  10
TORSDOF 7
ENDMDL
MODEL 3
REMARK VINA RESULT:      -5.0      2.713      6.773
REMARK  Name = 56774094
REMARK  10 active torsions:
REMARK  status: ('A' for Active; 'I' for Inactive)
REMARK    1  A    between atoms: O_2  and  C_20
REMARK    2  A    between atoms: O_2  and  C_23
REMARK    3  A    between atoms: N_3  and  C_8
REMARK    4  A    between atoms: N_3  and  C_14
REMARK    5  A    between atoms: C_6  and  C_11
REMARK    6  A    between atoms: C_6  and  C_12
REMARK    7  A    between atoms: C_7  and  C_10
REMARK    8  A    between atoms: C_10  and  C_13
REMARK    9  A    between atoms: C_14  and  C_16
REMARK   10  A    between atoms: C_17  and  C_20
REMARK                            x       y       z     vdW  Elec       q    Type
REMARK                         _______ _______ _______ _____ _____    ______ ____
ROOT
ATOM      6  C   UNL     1      -0.828   3.130  24.789  0.00  0.00    -0.016 C 
ATOM      7  C   UNL     1      -2.189   2.817  24.134  0.00  0.00    +0.004 C 
ATOM      8  C   UNL     1      -0.175   2.370  23.615  0.00  0.00    +0.060 C 
ATOM      9  C   UNL     1      -1.507   1.602  23.473  0.00  0.00    +0.023 C 
ATOM     11  C   UNL     1      -0.569   2.448  26.122  0.00  0.00    +0.013 C 
ATOM     12  C   UNL     1      -0.536   4.610  24.913  0.00  0.00    +0.013 C 
ENDROOT
BRANCH   8   3
ATOM      3  N   UNL     1       0.857   1.447  24.089  0.00  0.00    -0.309 NA
ATOM     24  H   UNL     1       0.522   0.803  24.806  0.00  0.00    +0.123 HD
BRANCH   3  14
ATOM     14  C   UNL     1       1.361   0.663  22.966  0.00  0.00    +0.118 C 
BRANCH  14  16
ATOM      5  N   UNL     1       4.329  -1.529  23.811  0.00  0.00    -0.263 NA
ATOM     16  C   UNL     1       2.784   0.222  23.185  0.00  0.00    -0.015 A 
ATOM     18  C   UNL     1       3.844   1.096  22.982  0.00  0.00    +0.008 A 
ATOM     19  C   UNL     1       3.076  -1.070  23.595  0.00  0.00    +0.115 A 
ATOM     21  C   UNL     1       5.148   0.660  23.192  0.00  0.00    +0.020 A 
ATOM     22  C   UNL     1       5.335  -0.650  23.602  0.00  0.00    +0.111 A 
ENDBRANCH  14  16
ENDBRANCH   3  14
ENDBRANCH   8   3
BRANCH   7  10
ATOM     10  C   UNL     1      -3.334   2.470  25.058  0.00  0.00    +0.063 C 
BRANCH  10  13
ATOM      1  O   UNL     1      -4.756  -0.777  24.383  0.00  0.00    -0.357 OA
ATOM      4  N   UNL     1      -4.752   0.609  24.285  0.00  0.00    -0.083 NA
ATOM     13  C   UNL     1      -3.665   0.999  24.955  0.00  0.00    +0.084 A 
ATOM     15  C   UNL     1      -2.951  -0.084  25.493  0.00  0.00    +0.073 A 
ATOM     17  C   UNL     1      -3.679  -1.179  25.106  0.00  0.00    +0.163 A 
BRANCH  17  20
ATOM     20  C   UNL     1      -3.527  -2.624  25.309  0.00  0.00    +0.236 C 
BRANCH  20   2
ATOM      2  O   UNL     1      -2.729  -3.190  24.266  0.00  0.00    -0.375 OA
ATOM     23  C   UNL     1      -1.462  -2.558  24.188  0.00  0.00    +0.194 C 
ENDBRANCH  20   2
ENDBRANCH  17  20
ENDBRANCH  10  13
ENDBRANCH   7  10
TORSDOF 7
ENDMDL
MODEL 4
REMARK VINA RESULT:      -4.9      2.050      2.704
REMARK  Name = 56774094
REMARK  10 active torsions:
REMARK  status: ('A' for Active; 'I' for Inactive)
REMARK    1  A    between atoms: O_2  and  C_20
REMARK    2  A    between atoms: O_2  and  C_23
REMARK    3  A    between atoms: N_3  and  C_8
REMARK    4  A    between atoms: N_3  and  C_14
REMARK    5  A    between atoms: C_6  and  C_11
REMARK    6  A    between atoms: C_6  and  C_12
REMARK    7  A    between atoms: C_7  and  C_10
REMARK    8  A    between atoms: C_10  and  C_13
REMARK    9  A    between atoms: C_14  and  C_16
REMARK   10  A    between atoms: C_17  and  C_20
REMARK                            x       y       z     vdW  Elec       q    Type
REMARK                         _______ _______ _______ _____ _____    ______ ____
ROOT
ATOM      6  C   UNL     1      -3.648  -1.492  24.575  0.00  0.00    -0.016 C 
ATOM      7  C   UNL     1      -2.487  -1.020  23.676  0.00  0.00    +0.004 C 
ATOM      8  C   UNL     1      -4.416  -0.236  24.110  0.00  0.00    +0.060 C 
ATOM      9  C   UNL     1      -3.040   0.410  23.840  0.00  0.00    +0.023 C 
ATOM     11  C   UNL     1      -3.372  -1.469  26.069  0.00  0.00    +0.013 C 
ATOM     12  C   UNL     1      -4.213  -2.841  24.185  0.00  0.00    +0.013 C 
ENDROOT
BRANCH   8   3
ATOM      3  N   UNL     1      -5.048   0.447  25.239  0.00  0.00    -0.309 NA
ATOM     24  H   UNL     1      -4.421   0.572  26.035  0.00  0.00    +0.123 HD
BRANCH   3  14
ATOM     14  C   UNL     1      -5.516   1.761  24.812  0.00  0.00    +0.118 C 
BRANCH  14  16
ATOM      5  N   UNL     1      -3.047   4.168  26.375  0.00  0.00    -0.263 NA
ATOM     16  C   UNL     1      -4.442   2.809  24.943  0.00  0.00    -0.015 A 
ATOM     18  C   UNL     1      -3.859   3.381  23.819  0.00  0.00    +0.008 A 
ATOM     19  C   UNL     1      -4.005   3.233  26.188  0.00  0.00    +0.115 A 
ATOM     21  C   UNL     1      -2.870   4.346  23.971  0.00  0.00    +0.020 A 
ATOM     22  C   UNL     1      -2.503   4.701  25.258  0.00  0.00    +0.111 A 
ENDBRANCH  14  16
ENDBRANCH   3  14
ENDBRANCH   8   3
BRANCH   7  10
ATOM     10  C   UNL     1      -1.084  -1.216  24.204  0.00  0.00    +0.063 C 
BRANCH  10  13
ATOM      1  O   UNL     1       0.596   1.950  24.623  0.00  0.00    -0.357 OA
ATOM      4  N   UNL     1       0.254   0.828  23.879  0.00  0.00    -0.083 NA
ATOM     13  C   UNL     1      -0.517   0.098  24.689  0.00  0.00    +0.084 A 
ATOM     15  C   UNL     1      -0.695   0.703  25.944  0.00  0.00    +0.073 A 
ATOM     17  C   UNL     1       0.026   1.864  25.852  0.00  0.00    +0.163 A 
BRANCH  17  20
ATOM     20  C   UNL     1       0.285   2.975  26.775  0.00  0.00    +0.236 C 
BRANCH  20   2
ATOM      2  O   UNL     1       1.484   2.735  27.516  0.00  0.00    -0.375 OA
ATOM     23  C   UNL     1       1.198   2.444  28.874  0.00  0.00    +0.194 C 
ENDBRANCH  20   2
ENDBRANCH  17  20
ENDBRANCH  10  13
ENDBRANCH   7  10
TORSDOF 7
ENDMDL
MODEL 5
REMARK VINA RESULT:      -4.5     15.452     17.693
REMARK  Name = 56774094
REMARK  10 active torsions:
REMARK  status: ('A' for Active; 'I' for Inactive)
REMARK    1  A    between atoms: O_2  and  C_20
REMARK    2  A    between atoms: O_2  and  C_23
REMARK    3  A    between atoms: N_3  and  C_8
REMARK    4  A    between atoms: N_3  and  C_14
REMARK    5  A    between atoms: C_6  and  C_11
REMARK    6  A    between atoms: C_6  and  C_12
REMARK    7  A    between atoms: C_7  and  C_10
REMARK    8  A    between atoms: C_10  and  C_13
REMARK    9  A    between atoms: C_14  and  C_16
REMARK   10  A    between atoms: C_17  and  C_20
REMARK                            x       y       z     vdW  Elec       q    Type
REMARK                         _______ _______ _______ _____ _____    ______ ____
ROOT
ATOM      6  C   UNL     1      -5.248 -10.141  11.258  0.00  0.00    -0.016 C 
ATOM      7  C   UNL     1      -3.850 -10.781  11.142  0.00  0.00    +0.004 C 
ATOM      8  C   UNL     1      -5.503 -10.620   9.813  0.00  0.00    +0.060 C 
ATOM      9  C   UNL     1      -3.973 -10.591   9.616  0.00  0.00    +0.023 C 
ATOM     11  C   UNL     1      -5.269  -8.626  11.368  0.00  0.00    +0.013 C 
ATOM     12  C   UNL     1      -6.104 -10.739  12.354  0.00  0.00    +0.013 C 
ENDROOT
BRANCH   8   3
ATOM      3  N   UNL     1      -6.106  -9.561   9.002  0.00  0.00    -0.309 NA
ATOM     24  H   UNL     1      -5.708  -9.496   8.065  0.00  0.00    +0.123 HD
BRANCH   3  14
ATOM     14  C   UNL     1      -7.540  -9.800   8.878  0.00  0.00    +0.118 C 
BRANCH  14  16
ATOM      5  N   UNL     1      -8.258  -6.139   8.235  0.00  0.00    -0.263 NA
ATOM     16  C   UNL     1      -8.299  -8.527   8.612  0.00  0.00    -0.015 A 
ATOM     18  C   UNL     1      -9.684  -8.529   8.499  0.00  0.00    +0.008 A 
ATOM     19  C   UNL     1      -7.638  -7.316   8.473  0.00  0.00    +0.115 A 
ATOM     21  C   UNL     1     -10.358  -7.338   8.254  0.00  0.00    +0.020 A 
ATOM     22  C   UNL     1      -9.606  -6.181   8.131  0.00  0.00    +0.111 A 
ENDBRANCH  14  16
ENDBRANCH   3  14
ENDBRANCH   8   3
BRANCH   7  10
ATOM     10  C   UNL     1      -2.697 -10.038  11.778  0.00  0.00    +0.063 C 
BRANCH  10  13
ATOM      1  O   UNL     1      -1.825 -10.689  15.218  0.00  0.00    -0.357 OA
ATOM      4  N   UNL     1      -1.498 -10.494  13.882  0.00  0.00    -0.083 NA
ATOM     13  C   UNL     1      -2.666 -10.291  13.267  0.00  0.00    +0.084 A 
ATOM     15  C   UNL     1      -3.754 -10.346  14.154  0.00  0.00    +0.073 A 
ATOM     17  C   UNL     1      -3.171 -10.599  15.368  0.00  0.00    +0.163 A 
BRANCH  17  20
ATOM     20  C   UNL     1      -3.694 -10.781  16.727  0.00  0.00    +0.236 C 
BRANCH  20   2
ATOM      2  O   UNL     1      -5.090 -10.477  16.767  0.00  0.00    -0.375 OA
ATOM     23  C   UNL     1      -5.617 -10.656  18.071  0.00  0.00    +0.194 C 
ENDBRANCH  20   2
ENDBRANCH  17  20
ENDBRANCH  10  13
ENDBRANCH   7  10
TORSDOF 7
ENDMDL
MODEL 6
REMARK VINA RESULT:      -4.4      2.810      6.678
REMARK  Name = 56774094
REMARK  10 active torsions:
REMARK  status: ('A' for Active; 'I' for Inactive)
REMARK    1  A    between atoms: O_2  and  C_20
REMARK    2  A    between atoms: O_2  and  C_23
REMARK    3  A    between atoms: N_3  and  C_8
REMARK    4  A    between atoms: N_3  and  C_14
REMARK    5  A    between atoms: C_6  and  C_11
REMARK    6  A    between atoms: C_6  and  C_12
REMARK    7  A    between atoms: C_7  and  C_10
REMARK    8  A    between atoms: C_10  and  C_13
REMARK    9  A    between atoms: C_14  and  C_16
REMARK   10  A    between atoms: C_17  and  C_20
REMARK                            x       y       z     vdW  Elec       q    Type
REMARK                         _______ _______ _______ _____ _____    ______ ____
ROOT
ATOM      6  C   UNL     1       0.376   1.752  24.450  0.00  0.00    -0.016 C 
ATOM      7  C   UNL     1      -0.717   2.431  23.599  0.00  0.00    +0.004 C 
ATOM      8  C   UNL     1      -0.495   0.479  24.416  0.00  0.00    +0.060 C 
ATOM      9  C   UNL     1      -1.707   1.409  24.194  0.00  0.00    +0.023 C 
ATOM     11  C   UNL     1       0.541   2.293  25.860  0.00  0.00    +0.013 C 
ATOM     12  C   UNL     1       1.728   1.692  23.771  0.00  0.00    +0.013 C 
ENDROOT
BRANCH   8   3
ATOM      3  N   UNL     1      -0.599  -0.127  25.745  0.00  0.00    -0.309 NA
ATOM     24  H   UNL     1      -1.351   0.269  26.309  0.00  0.00    +0.123 HD
BRANCH   3  14
ATOM     14  C   UNL     1      -0.833  -1.561  25.608  0.00  0.00    +0.118 C 
BRANCH  14  16
ATOM      5  N   UNL     1      -4.450  -1.174  24.560  0.00  0.00    -0.263 NA
ATOM     16  C   UNL     1      -2.166  -1.853  24.972  0.00  0.00    -0.015 A 
ATOM     18  C   UNL     1      -2.370  -3.013  24.235  0.00  0.00    +0.008 A 
ATOM     19  C   UNL     1      -3.229  -0.972  25.104  0.00  0.00    +0.115 A 
ATOM     21  C   UNL     1      -3.612  -3.256  23.660  0.00  0.00    +0.020 A 
ATOM     22  C   UNL     1      -4.610  -2.314  23.850  0.00  0.00    +0.111 A 
ENDBRANCH  14  16
ENDBRANCH   3  14
ENDBRANCH   8   3
BRANCH   7  10
ATOM     10  C   UNL     1      -1.038   3.874  23.914  0.00  0.00    +0.063 C 
BRANCH  10  13
ATOM      1  O   UNL     1      -3.563   4.264  26.463  0.00  0.00    -0.357 OA
ATOM      4  N   UNL     1      -2.243   4.261  26.029  0.00  0.00    -0.083 NA
ATOM     13  C   UNL     1      -2.307   3.964  24.728  0.00  0.00    +0.084 A 
ATOM     15  C   UNL     1      -3.628   3.770  24.290  0.00  0.00    +0.073 A 
ATOM     17  C   UNL     1      -4.379   3.969  25.418  0.00  0.00    +0.163 A 
BRANCH  17  20
ATOM     20  C   UNL     1      -5.818   3.930  25.701  0.00  0.00    +0.236 C 
BRANCH  20   2
ATOM      2  O   UNL     1      -6.179   2.664  26.261  0.00  0.00    -0.375 OA
ATOM     23  C   UNL     1      -6.268   1.666  25.257  0.00  0.00    +0.194 C 
ENDBRANCH  20   2
ENDBRANCH  17  20
ENDBRANCH  10  13
ENDBRANCH   7  10
TORSDOF 7
ENDMDL
MODEL 7
REMARK VINA RESULT:      -4.3      2.068      3.087
REMARK  Name = 56774094
REMARK  10 active torsions:
REMARK  status: ('A' for Active; 'I' for Inactive)
REMARK    1  A    between atoms: O_2  and  C_20
REMARK    2  A    between atoms: O_2  and  C_23
REMARK    3  A    between atoms: N_3  and  C_8
REMARK    4  A    between atoms: N_3  and  C_14
REMARK    5  A    between atoms: C_6  and  C_11
REMARK    6  A    between atoms: C_6  and  C_12
REMARK    7  A    between atoms: C_7  and  C_10
REMARK    8  A    between atoms: C_10  and  C_13
REMARK    9  A    between atoms: C_14  and  C_16
REMARK   10  A    between atoms: C_17  and  C_20
REMARK                            x       y       z     vdW  Elec       q    Type
REMARK                         _______ _______ _______ _____ _____    ______ ____
ROOT
ATOM      6  C   UNL     1      -3.022  -2.243  25.200  0.00  0.00    -0.016 C 
ATOM      7  C   UNL     1      -1.676  -2.201  24.449  0.00  0.00    +0.004 C 
ATOM      8  C   UNL     1      -3.690  -1.833  23.871  0.00  0.00    +0.060 C 
ATOM      9  C   UNL     1      -2.337  -1.204  23.476  0.00  0.00    +0.023 C 
ATOM     11  C   UNL     1      -3.206  -1.188  26.278  0.00  0.00    +0.013 C 
ATOM     12  C   UNL     1      -3.364  -3.606  25.764  0.00  0.00    +0.013 C 
ENDROOT
BRANCH   8   3
ATOM      3  N   UNL     1      -4.669  -0.765  24.076  0.00  0.00    -0.309 NA
ATOM     24  H   UNL     1      -4.894  -0.609  25.059  0.00  0.00    +0.123 HD
BRANCH   3  14
ATOM     14  C   UNL     1      -4.152   0.481  23.520  0.00  0.00    +0.118 C 
BRANCH  14  16
ATOM      5  N   UNL     1      -4.394   4.047  24.767  0.00  0.00    -0.263 NA
ATOM     16  C   UNL     1      -4.578   1.676  24.331  0.00  0.00    -0.015 A 
ATOM     18  C   UNL     1      -5.506   1.551  25.357  0.00  0.00    +0.008 A 
ATOM     19  C   UNL     1      -4.056   2.935  24.077  0.00  0.00    +0.115 A 
ATOM     21  C   UNL     1      -5.880   2.673  26.090  0.00  0.00    +0.020 A 
ATOM     22  C   UNL     1      -5.301   3.887  25.758  0.00  0.00    +0.111 A 
ENDBRANCH  14  16
ENDBRANCH   3  14
ENDBRANCH   8   3
BRANCH   7  10
ATOM     10  C   UNL     1      -0.485  -1.650  25.201  0.00  0.00    +0.063 C 
BRANCH  10  13
ATOM      1  O   UNL     1       0.723   1.283  23.480  0.00  0.00    -0.357 OA
ATOM      4  N   UNL     1       0.630  -0.093  23.650  0.00  0.00    -0.083 NA
ATOM     13  C   UNL     1      -0.157  -0.257  24.716  0.00  0.00    +0.084 A 
ATOM     15  C   UNL     1      -0.585   0.966  25.258  0.00  0.00    +0.073 A 
ATOM     17  C   UNL     1      -0.004   1.904  24.445  0.00  0.00    +0.163 A 
BRANCH  17  20
ATOM     20  C   UNL     1      -0.017   3.371  24.415  0.00  0.00    +0.236 C 
BRANCH  20   2
ATOM      2  O   UNL     1      -0.992   3.877  25.330  0.00  0.00    -0.375 OA
ATOM     23  C   UNL     1      -1.237   5.256  25.106  0.00  0.00    +0.194 C 
ENDBRANCH  20   2
ENDBRANCH  17  20
ENDBRANCH  10  13
ENDBRANCH   7  10
TORSDOF 7
ENDMDL
MODEL 8
REMARK VINA RESULT:      -4.0      2.974      6.423
REMARK  Name = 56774094
REMARK  10 active torsions:
REMARK  status: ('A' for Active; 'I' for Inactive)
REMARK    1  A    between atoms: O_2  and  C_20
REMARK    2  A    between atoms: O_2  and  C_23
REMARK    3  A    between atoms: N_3  and  C_8
REMARK    4  A    between atoms: N_3  and  C_14
REMARK    5  A    between atoms: C_6  and  C_11
REMARK    6  A    between atoms: C_6  and  C_12
REMARK    7  A    between atoms: C_7  and  C_10
REMARK    8  A    between atoms: C_10  and  C_13
REMARK    9  A    between atoms: C_14  and  C_16
REMARK   10  A    between atoms: C_17  and  C_20
REMARK                            x       y       z     vdW  Elec       q    Type
REMARK                         _______ _______ _______ _____ _____    ______ ____
ROOT
ATOM      6  C   UNL     1      -1.949   4.574  24.977  0.00  0.00    -0.016 C 
ATOM      7  C   UNL     1      -2.989   4.231  23.892  0.00  0.00    +0.004 C 
ATOM      8  C   UNL     1      -0.963   3.667  24.211  0.00  0.00    +0.060 C 
ATOM      9  C   UNL     1      -2.198   2.928  23.653  0.00  0.00    +0.023 C 
ATOM     11  C   UNL     1      -2.250   4.040  26.367  0.00  0.00    +0.013 C 
ATOM     12  C   UNL     1      -1.620   6.049  25.062  0.00  0.00    +0.013 C 
ENDROOT
BRANCH   8   3
ATOM      3  N   UNL     1      -0.247   2.773  25.122  0.00  0.00    -0.309 NA
ATOM     24  H   UNL     1      -0.852   2.349  25.827  0.00  0.00    +0.123 HD
BRANCH   3  14
ATOM     14  C   UNL     1       0.387   1.704  24.357  0.00  0.00    +0.118 C 
BRANCH  14  16
ATOM      5  N   UNL     1      -0.575  -1.944  24.048  0.00  0.00    -0.263 NA
ATOM     16  C   UNL     1      -0.195   0.356  24.690  0.00  0.00    -0.015 A 
ATOM     18  C   UNL     1      -0.869   0.142  25.886  0.00  0.00    +0.008 A 
ATOM     19  C   UNL     1      -0.076  -0.710  23.812  0.00  0.00    +0.115 A 
ATOM     21  C   UNL     1      -1.397  -1.114  26.165  0.00  0.00    +0.020 A 
ATOM     22  C   UNL     1      -1.224  -2.114  25.222  0.00  0.00    +0.111 A 
ENDBRANCH  14  16
ENDBRANCH   3  14
ENDBRANCH   8   3
BRANCH   7  10
ATOM     10  C   UNL     1      -4.416   4.025  24.347  0.00  0.00    +0.063 C 
BRANCH  10  13
ATOM      1  O   UNL     1      -5.486   0.907  25.814  0.00  0.00    -0.357 OA
ATOM      4  N   UNL     1      -5.534   2.290  25.693  0.00  0.00    -0.083 NA
ATOM     13  C   UNL     1      -4.637   2.585  24.749  0.00  0.00    +0.084 A 
ATOM     15  C   UNL     1      -3.997   1.442  24.243  0.00  0.00    +0.073 A 
ATOM     17  C   UNL     1      -4.566   0.412  24.946  0.00  0.00    +0.163 A 
BRANCH  17  20
ATOM     20  C   UNL     1      -4.384  -1.044  24.941  0.00  0.00    +0.236 C 
BRANCH  20   2
ATOM      2  O   UNL     1      -4.264  -1.524  23.600  0.00  0.00    -0.375 OA
ATOM     23  C   UNL     1      -4.180  -2.939  23.568  0.00  0.00    +0.194 C 
ENDBRANCH  20   2
ENDBRANCH  17  20
ENDBRANCH  10  13
ENDBRANCH   7  10
TORSDOF 7
ENDMDL
MODEL 9
REMARK VINA RESULT:      -4.0      1.594      4.296
REMARK  Name = 56774094
REMARK  10 active torsions:
REMARK  status: ('A' for Active; 'I' for Inactive)
REMARK    1  A    between atoms: O_2  and  C_20
REMARK    2  A    between atoms: O_2  and  C_23
REMARK    3  A    between atoms: N_3  and  C_8
REMARK    4  A    between atoms: N_3  and  C_14
REMARK    5  A    between atoms: C_6  and  C_11
REMARK    6  A    between atoms: C_6  and  C_12
REMARK    7  A    between atoms: C_7  and  C_10
REMARK    8  A    between atoms: C_10  and  C_13
REMARK    9  A    between atoms: C_14  and  C_16
REMARK   10  A    between atoms: C_17  and  C_20
REMARK                            x       y       z     vdW  Elec       q    Type
REMARK                         _______ _______ _______ _____ _____    ______ ____
ROOT
ATOM      6  C   UNL     1      -2.562   3.410  25.152  0.00  0.00    -0.016 C 
ATOM      7  C   UNL     1      -1.199   2.694  25.226  0.00  0.00    +0.004 C 
ATOM      8  C   UNL     1      -3.206   2.062  25.541  0.00  0.00    +0.060 C 
ATOM      9  C   UNL     1      -1.958   1.382  24.939  0.00  0.00    +0.023 C 
ATOM     11  C   UNL     1      -2.990   3.866  23.767  0.00  0.00    +0.013 C 
ATOM     12  C   UNL     1      -2.702   4.559  26.128  0.00  0.00    +0.013 C 
ENDROOT
BRANCH   8   3
ATOM      3  N   UNL     1      -4.363   1.764  24.696  0.00  0.00    -0.309 NA
ATOM     24  H   UNL     1      -4.109   1.514  23.740  0.00  0.00    +0.123 HD
BRANCH   3  14
ATOM     14  C   UNL     1      -5.116   0.657  25.277  0.00  0.00    +0.118 C 
BRANCH  14  16
ATOM      5  N   UNL     1      -3.080  -2.481  25.856  0.00  0.00    -0.263 NA
ATOM     16  C   UNL     1      -4.448  -0.668  25.026  0.00  0.00    -0.015 A 
ATOM     18  C   UNL     1      -4.555  -1.303  23.794  0.00  0.00    +0.008 A 
ATOM     19  C   UNL     1      -3.705  -1.293  26.016  0.00  0.00    +0.115 A 
ATOM     21  C   UNL     1      -3.926  -2.526  23.592  0.00  0.00    +0.020 A 
ATOM     22  C   UNL     1      -3.207  -3.068  24.645  0.00  0.00    +0.111 A 
ENDBRANCH  14  16
ENDBRANCH   3  14
ENDBRANCH   8   3
BRANCH   7  10
ATOM     10  C   UNL     1      -0.169   3.065  24.183  0.00  0.00    +0.063 C 
BRANCH  10  13
ATOM      1  O   UNL     1       0.908  -0.203  23.094  0.00  0.00    -0.357 OA
ATOM      4  N   UNL     1      -0.071   0.706  23.478  0.00  0.00    -0.083 NA
ATOM     13  C   UNL     1       0.590   1.838  23.734  0.00  0.00    +0.084 A 
ATOM     15  C   UNL     1       1.974   1.706  23.533  0.00  0.00    +0.073 A 
ATOM     17  C   UNL     1       2.123   0.405  23.131  0.00  0.00    +0.163 A 
BRANCH  17  20
ATOM     20  C   UNL     1       3.279  -0.416  22.753  0.00  0.00    +0.236 C 
BRANCH  20   2
ATOM      2  O   UNL     1       4.455   0.393  22.667  0.00  0.00    -0.375 OA
ATOM     23  C   UNL     1       5.401   0.028  23.658  0.00  0.00    +0.194 C 
ENDBRANCH  20   2
ENDBRANCH  17  20
ENDBRANCH  10  13
ENDBRANCH   7  10
TORSDOF 7
ENDMDL
MODEL 10
REMARK VINA RESULT:      -3.4      2.381      3.035
REMARK  Name = 56774094
REMARK  10 active torsions:
REMARK  status: ('A' for Active; 'I' for Inactive)
REMARK    1  A    between atoms: O_2  and  C_20
REMARK    2  A    between atoms: O_2  and  C_23
REMARK    3  A    between atoms: N_3  and  C_8
REMARK    4  A    between atoms: N_3  and  C_14
REMARK    5  A    between atoms: C_6  and  C_11
REMARK    6  A    between atoms: C_6  and  C_12
REMARK    7  A    between atoms: C_7  and  C_10
REMARK    8  A    between atoms: C_10  and  C_13
REMARK    9  A    between atoms: C_14  and  C_16
REMARK   10  A    between atoms: C_17  and  C_20
REMARK                            x       y       z     vdW  Elec       q    Type
REMARK                         _______ _______ _______ _____ _____    ______ ____
ROOT
ATOM      6  C   UNL     1      -3.282  -2.088  24.837  0.00  0.00    -0.016 C 
ATOM      7  C   UNL     1      -2.170  -1.552  23.913  0.00  0.00    +0.004 C 
ATOM      8  C   UNL     1      -4.235  -1.095  24.139  0.00  0.00    +0.060 C 
ATOM      9  C   UNL     1      -2.986  -0.248  23.812  0.00  0.00    +0.023 C 
ATOM     11  C   UNL     1      -3.116  -1.774  26.315  0.00  0.00    +0.013 C 
ATOM     12  C   UNL     1      -3.562  -3.565  24.663  0.00  0.00    +0.013 C 
ENDROOT
BRANCH   8   3
ATOM      3  N   UNL     1      -5.056  -0.374  25.113  0.00  0.00    -0.309 NA
ATOM     24  H   UNL     1      -4.509   0.060  25.858  0.00  0.00    +0.123 HD
BRANCH   3  14
ATOM     14  C   UNL     1      -5.814   0.670  24.432  0.00  0.00    +0.118 C 
BRANCH  14  16
ATOM      5  N   UNL     1      -5.178   3.951  26.212  0.00  0.00    -0.263 NA
ATOM     16  C   UNL     1      -5.270   2.042  24.729  0.00  0.00    -0.015 A 
ATOM     18  C   UNL     1      -4.393   2.671  23.853  0.00  0.00    +0.008 A 
ATOM     19  C   UNL     1      -5.628   2.718  25.885  0.00  0.00    +0.115 A 
ATOM     21  C   UNL     1      -3.908   3.939  24.154  0.00  0.00    +0.020 A 
ATOM     22  C   UNL     1      -4.327   4.530  25.335  0.00  0.00    +0.111 A 
ENDBRANCH  14  16
ENDBRANCH   3  14
ENDBRANCH   8   3
BRANCH   7  10
ATOM     10  C   UNL     1      -0.793  -1.387  24.517  0.00  0.00    +0.063 C 
BRANCH  10  13
ATOM      1  O   UNL     1      -0.441   1.817  26.140  0.00  0.00    -0.357 OA
ATOM      4  N   UNL     1      -0.750   0.462  26.145  0.00  0.00    -0.083 NA
ATOM     13  C   UNL     1      -0.553   0.058  24.888  0.00  0.00    +0.084 A 
ATOM     15  C   UNL     1      -0.124   1.102  24.052  0.00  0.00    +0.073 A 
ATOM     17  C   UNL     1      -0.070   2.187  24.887  0.00  0.00    +0.163 A 
BRANCH  17  20
ATOM     20  C   UNL     1       0.294   3.596  24.700  0.00  0.00    +0.236 C 
BRANCH  20   2
ATOM      2  O   UNL     1      -0.842   4.347  24.264  0.00  0.00    -0.375 OA
ATOM     23  C   UNL     1      -0.887   5.619  24.890  0.00  0.00    +0.194 C 
ENDBRANCH  20   2
ENDBRANCH  17  20
ENDBRANCH  10  13
ENDBRANCH   7  10
TORSDOF 7
ENDMDL
