MODEL 1
REMARK VINA RESULT:       1.2      0.000      0.000
REMARK  Name = 51137137
REMARK  6 active torsions:
REMARK  status: ('A' for Active; 'I' for Inactive)
REMARK    1  A    between atoms: S_1  and  C_21
REMARK    2  A    between atoms: S_1  and  C_28
REMARK    3  A    between atoms: N_5  and  C_12
REMARK    4  A    between atoms: C_8  and  C_13
REMARK    5  A    between atoms: C_12  and  C_14
REMARK    6  A    between atoms: C_28  and  C_29
REMARK                            x       y       z     vdW  Elec       q    Type
REMARK                         _______ _______ _______ _____ _____    ______ ____
ROOT
ATOM      5  N   UNL     1      -5.053  -0.640  24.591  0.00  0.00    -0.297 NA
ATOM      8  C   UNL     1      -2.841  -1.352  24.271  0.00  0.00    +0.090 C 
ATOM      9  C   UNL     1      -3.923  -0.437  23.682  0.00  0.00    +0.097 C 
ATOM     10  C   UNL     1      -3.219  -1.495  25.756  0.00  0.00    +0.029 C 
ATOM     11  C   UNL     1      -4.466  -0.636  25.930  0.00  0.00    +0.085 C 
ENDROOT
BRANCH   8  13
ATOM      2  O   UNL     1      -1.246   0.488  24.203  0.00  0.00    -0.439 OA
ATOM      6  N   UNL     1      -0.381  -1.531  23.643  0.00  0.00    -0.213 NA
ATOM     13  C   UNL     1      -1.440  -0.848  24.018  0.00  0.00    +0.201 A 
ATOM     16  C   UNL     1       0.603  -0.574  23.570  0.00  0.00    +0.111 A 
ATOM     17  C   UNL     1       0.076   0.663  23.912  0.00  0.00    +0.155 A 
ATOM     20  C   UNL     1       1.960  -0.662  23.226  0.00  0.00    +0.058 A 
ATOM     21  C   UNL     1       2.722   0.515  23.245  0.00  0.00    +0.090 A 
ATOM     22  C   UNL     1       0.799   1.849  23.943  0.00  0.00    +0.050 A 
ATOM     24  C   UNL     1       2.150   1.745  23.596  0.00  0.00    +0.030 A 
BRANCH  21   1
ATOM      1  S   UNL     1       4.418   0.444  22.824  0.00  0.00    -0.003 S 
ATOM      3  O   UNL     1       4.539   0.374  21.375  0.00  0.00    -0.169 OA
ATOM      4  O   UNL     1       5.103   1.495  23.560  0.00  0.00    -0.169 OA
BRANCH   1  28
ATOM     28  C   UNL     1       4.964  -1.122  23.466  0.00  0.00    +0.168 C 
ATOM     29  C   UNL     1       5.852  -0.944  24.678  0.00  0.00    +0.028 C 
ENDBRANCH   1  28
ENDBRANCH  21   1
ENDBRANCH   8  13
BRANCH   5  12
ATOM     12  C   UNL     1      -6.081   0.377  24.433  0.00  0.00    +0.121 C 
BRANCH  12  14
ATOM      7  N   UNL     1      -5.793   3.365  26.561  0.00  0.00    -0.360 N 
ATOM     14  C   UNL     1      -5.725   1.652  25.152  0.00  0.00    -0.008 A 
ATOM     15  C   UNL     1      -4.602   2.486  24.893  0.00  0.00    +0.004 A 
ATOM     18  C   UNL     1      -6.439   2.219  26.183  0.00  0.00    +0.088 A 
ATOM     19  C   UNL     1      -4.668   3.554  25.791  0.00  0.00    +0.047 A 
ATOM     23  C   UNL     1      -3.532   2.435  23.977  0.00  0.00    +0.010 A 
ATOM     25  C   UNL     1      -3.713   4.576  25.819  0.00  0.00    +0.026 A 
ATOM     26  C   UNL     1      -2.569   3.451  23.995  0.00  0.00    +0.001 A 
ATOM     27  C   UNL     1      -2.661   4.504  24.903  0.00  0.00    +0.002 A 
ATOM     30  H   UNL     1      -6.098   3.985  27.300  0.00  0.00    +0.165 HD
ENDBRANCH  12  14
ENDBRANCH   5  12
TORSDOF 5
ENDMDL
MODEL 2
REMARK VINA RESULT:       1.9      1.704      3.611
REMARK  Name = 51137137
REMARK  6 active torsions:
REMARK  status: ('A' for Active; 'I' for Inactive)
REMARK    1  A    between atoms: S_1  and  C_21
REMARK    2  A    between atoms: S_1  and  C_28
REMARK    3  A    between atoms: N_5  and  C_12
REMARK    4  A    between atoms: C_8  and  C_13
REMARK    5  A    between atoms: C_12  and  C_14
REMARK    6  A    between atoms: C_28  and  C_29
REMARK                            x       y       z     vdW  Elec       q    Type
REMARK                         _______ _______ _______ _____ _____    ______ ____
ROOT
ATOM      5  N   UNL     1      -4.139   4.793  25.747  0.00  0.00    -0.297 NA
ATOM      8  C   UNL     1      -1.855   4.291  25.569  0.00  0.00    +0.090 C 
ATOM      9  C   UNL     1      -3.208   3.685  25.965  0.00  0.00    +0.097 C 
ATOM     10  C   UNL     1      -2.209   5.432  24.598  0.00  0.00    +0.029 C 
ATOM     11  C   UNL     1      -3.728   5.388  24.476  0.00  0.00    +0.085 C 
ENDROOT
BRANCH   8  13
ATOM      2  O   UNL     1      -1.294   1.970  25.086  0.00  0.00    -0.439 OA
ATOM      6  N   UNL     1       0.299   3.470  24.489  0.00  0.00    -0.213 NA
ATOM     13  C   UNL     1      -0.887   3.269  25.021  0.00  0.00    +0.201 A 
ATOM     16  C   UNL     1       0.721   2.201  24.171  0.00  0.00    +0.111 A 
ATOM     17  C   UNL     1      -0.252   1.281  24.536  0.00  0.00    +0.155 A 
ATOM     20  C   UNL     1       1.903   1.738  23.577  0.00  0.00    +0.058 A 
ATOM     21  C   UNL     1       2.045   0.357  23.379  0.00  0.00    +0.090 A 
ATOM     22  C   UNL     1      -0.148  -0.093  24.356  0.00  0.00    +0.050 A 
ATOM     24  C   UNL     1       1.038  -0.538  23.763  0.00  0.00    +0.030 A 
BRANCH  21   1
ATOM      1  S   UNL     1       3.506  -0.257  22.638  0.00  0.00    -0.003 S 
ATOM      3  O   UNL     1       3.780  -1.583  23.172  0.00  0.00    -0.169 OA
ATOM      4  O   UNL     1       3.391  -0.062  21.201  0.00  0.00    -0.169 OA
BRANCH   1  28
ATOM     28  C   UNL     1       4.788   0.820  23.238  0.00  0.00    +0.168 C 
ATOM     29  C   UNL     1       5.817   0.059  24.043  0.00  0.00    +0.028 C 
ENDBRANCH   1  28
ENDBRANCH  21   1
ENDBRANCH   8  13
BRANCH   5  12
ATOM     12  C   UNL     1      -5.527   4.356  25.730  0.00  0.00    +0.121 C 
BRANCH  12  14
ATOM      7  N   UNL     1      -6.254   0.806  26.367  0.00  0.00    -0.360 N 
ATOM     14  C   UNL     1      -5.645   2.856  25.772  0.00  0.00    -0.008 A 
ATOM     15  C   UNL     1      -4.979   1.930  24.922  0.00  0.00    +0.004 A 
ATOM     18  C   UNL     1      -6.421   2.135  26.651  0.00  0.00    +0.088 A 
ATOM     19  C   UNL     1      -5.379   0.650  25.316  0.00  0.00    +0.047 A 
ATOM     23  C   UNL     1      -4.071   2.057  23.851  0.00  0.00    +0.010 A 
ATOM     25  C   UNL     1      -4.914  -0.512  24.689  0.00  0.00    +0.026 A 
ATOM     26  C   UNL     1      -3.600   0.903  23.215  0.00  0.00    +0.001 A 
ATOM     27  C   UNL     1      -4.016  -0.361  23.630  0.00  0.00    +0.002 A 
ATOM     30  H   UNL     1      -6.707   0.047  26.858  0.00  0.00    +0.165 HD
ENDBRANCH  12  14
ENDBRANCH   5  12
TORSDOF 5
ENDMDL
MODEL 3
REMARK VINA RESULT:       2.2      1.102      1.361
REMARK  Name = 51137137
REMARK  6 active torsions:
REMARK  status: ('A' for Active; 'I' for Inactive)
REMARK    1  A    between atoms: S_1  and  C_21
REMARK    2  A    between atoms: S_1  and  C_28
REMARK    3  A    between atoms: N_5  and  C_12
REMARK    4  A    between atoms: C_8  and  C_13
REMARK    5  A    between atoms: C_12  and  C_14
REMARK    6  A    between atoms: C_28  and  C_29
REMARK                            x       y       z     vdW  Elec       q    Type
REMARK                         _______ _______ _______ _____ _____    ______ ____
ROOT
ATOM      5  N   UNL     1      -4.569  -0.212  24.686  0.00  0.00    -0.297 NA
ATOM      8  C   UNL     1      -2.500  -1.224  24.244  0.00  0.00    +0.090 C 
ATOM      9  C   UNL     1      -3.492  -0.190  23.695  0.00  0.00    +0.097 C 
ATOM     10  C   UNL     1      -2.784  -1.269  25.756  0.00  0.00    +0.029 C 
ATOM     11  C   UNL     1      -3.891  -0.246  25.981  0.00  0.00    +0.085 C 
ENDROOT
BRANCH   8  13
ATOM      2  O   UNL     1      -0.801  -0.827  22.543  0.00  0.00    -0.439 OA
ATOM      6  N   UNL     1      -0.040  -0.732  24.676  0.00  0.00    -0.213 NA
ATOM     13  C   UNL     1      -1.067  -0.920  23.876  0.00  0.00    +0.201 A 
ATOM     16  C   UNL     1       0.998  -0.495  23.807  0.00  0.00    +0.111 A 
ATOM     17  C   UNL     1       0.535  -0.552  22.501  0.00  0.00    +0.155 A 
ATOM     20  C   UNL     1       2.355  -0.223  24.035  0.00  0.00    +0.058 A 
ATOM     21  C   UNL     1       3.182  -0.022  22.921  0.00  0.00    +0.090 A 
ATOM     22  C   UNL     1       1.323  -0.358  21.374  0.00  0.00    +0.050 A 
ATOM     24  C   UNL     1       2.674  -0.089  21.617  0.00  0.00    +0.030 A 
BRANCH  21   1
ATOM      1  S   UNL     1       4.880   0.321  23.166  0.00  0.00    -0.003 S 
ATOM      3  O   UNL     1       5.603   0.010  21.941  0.00  0.00    -0.169 OA
ATOM      4  O   UNL     1       4.986   1.647  23.754  0.00  0.00    -0.169 OA
BRANCH   1  28
ATOM     28  C   UNL     1       5.395  -0.864  24.388  0.00  0.00    +0.168 C 
ATOM     29  C   UNL     1       5.001  -2.271  23.995  0.00  0.00    +0.028 C 
ENDBRANCH   1  28
ENDBRANCH  21   1
ENDBRANCH   8  13
BRANCH   5  12
ATOM     12  C   UNL     1      -5.464   0.929  24.559  0.00  0.00    +0.121 C 
BRANCH  12  14
ATOM      7  N   UNL     1      -4.641   4.025  26.369  0.00  0.00    -0.360 N 
ATOM     14  C   UNL     1      -4.874   2.175  25.165  0.00  0.00    -0.008 A 
ATOM     15  C   UNL     1      -3.577   2.705  24.920  0.00  0.00    +0.004 A 
ATOM     18  C   UNL     1      -5.505   3.009  26.060  0.00  0.00    +0.088 A 
ATOM     19  C   UNL     1      -3.455   3.865  25.688  0.00  0.00    +0.047 A 
ATOM     23  C   UNL     1      -2.489   2.306  24.116  0.00  0.00    +0.010 A 
ATOM     25  C   UNL     1      -2.296   4.650  25.691  0.00  0.00    +0.026 A 
ATOM     26  C   UNL     1      -1.324   3.082  24.110  0.00  0.00    +0.001 A 
ATOM     27  C   UNL     1      -1.232   4.235  24.887  0.00  0.00    +0.002 A 
ATOM     30  H   UNL     1      -4.842   4.785  27.005  0.00  0.00    +0.165 HD
ENDBRANCH  12  14
ENDBRANCH   5  12
TORSDOF 5
ENDMDL
MODEL 4
REMARK VINA RESULT:       2.3      1.425      3.528
REMARK  Name = 51137137
REMARK  6 active torsions:
REMARK  status: ('A' for Active; 'I' for Inactive)
REMARK    1  A    between atoms: S_1  and  C_21
REMARK    2  A    between atoms: S_1  and  C_28
REMARK    3  A    between atoms: N_5  and  C_12
REMARK    4  A    between atoms: C_8  and  C_13
REMARK    5  A    between atoms: C_12  and  C_14
REMARK    6  A    between atoms: C_28  and  C_29
REMARK                            x       y       z     vdW  Elec       q    Type
REMARK                         _______ _______ _______ _____ _____    ______ ____
ROOT
ATOM      5  N   UNL     1      -4.414   3.696  25.859  0.00  0.00    -0.297 NA
ATOM      8  C   UNL     1      -2.153   3.836  25.250  0.00  0.00    +0.090 C 
ATOM      9  C   UNL     1      -3.144   3.001  26.074  0.00  0.00    +0.097 C 
ATOM     10  C   UNL     1      -3.019   4.518  24.176  0.00  0.00    +0.029 C 
ATOM     11  C   UNL     1      -4.435   4.013  24.432  0.00  0.00    +0.085 C 
ENDROOT
BRANCH   8  13
ATOM      2  O   UNL     1      -1.322   1.801  24.200  0.00  0.00    -0.439 OA
ATOM      6  N   UNL     1       0.276   3.338  24.674  0.00  0.00    -0.213 NA
ATOM     13  C   UNL     1      -1.000   3.022  24.712  0.00  0.00    +0.201 A 
ATOM     16  C   UNL     1       0.856   2.239  24.087  0.00  0.00    +0.111 A 
ATOM     17  C   UNL     1      -0.119   1.296  23.797  0.00  0.00    +0.155 A 
ATOM     20  C   UNL     1       2.191   1.955  23.766  0.00  0.00    +0.058 A 
ATOM     21  C   UNL     1       2.475   0.722  23.161  0.00  0.00    +0.090 A 
ATOM     22  C   UNL     1       0.124   0.066  23.199  0.00  0.00    +0.050 A 
ATOM     24  C   UNL     1       1.460  -0.203  22.885  0.00  0.00    +0.030 A 
BRANCH  21   1
ATOM      1  S   UNL     1       4.129   0.334  22.743  0.00  0.00    -0.003 S 
ATOM      3  O   UNL     1       4.203   0.077  21.313  0.00  0.00    -0.169 OA
ATOM      4  O   UNL     1       4.988   1.342  23.346  0.00  0.00    -0.169 OA
BRANCH   1  28
ATOM     28  C   UNL     1       4.438  -1.213  23.565  0.00  0.00    +0.168 C 
ATOM     29  C   UNL     1       5.711  -1.162  24.380  0.00  0.00    +0.028 C 
ENDBRANCH   1  28
ENDBRANCH  21   1
ENDBRANCH   8  13
BRANCH   5  12
ATOM     12  C   UNL     1      -5.560   2.896  26.266  0.00  0.00    +0.121 C 
BRANCH  12  14
ATOM      7  N   UNL     1      -6.548   0.168  24.004  0.00  0.00    -0.360 N 
ATOM     14  C   UNL     1      -5.713   1.663  25.416  0.00  0.00    -0.008 A 
ATOM     15  C   UNL     1      -4.788   0.588  25.308  0.00  0.00    +0.004 A 
ATOM     18  C   UNL     1      -6.786   1.376  24.603  0.00  0.00    +0.088 A 
ATOM     19  C   UNL     1      -5.335  -0.337  24.415  0.00  0.00    +0.047 A 
ATOM     23  C   UNL     1      -3.532   0.311  25.885  0.00  0.00    +0.010 A 
ATOM     25  C   UNL     1      -4.687  -1.528  24.069  0.00  0.00    +0.026 A 
ATOM     26  C   UNL     1      -2.872  -0.876  25.548  0.00  0.00    +0.001 A 
ATOM     27  C   UNL     1      -3.443  -1.780  24.654  0.00  0.00    +0.002 A 
ATOM     30  H   UNL     1      -7.172  -0.289  23.353  0.00  0.00    +0.165 HD
ENDBRANCH  12  14
ENDBRANCH   5  12
TORSDOF 5
ENDMDL
MODEL 5
REMARK VINA RESULT:       2.8      1.471      1.752
REMARK  Name = 51137137
REMARK  6 active torsions:
REMARK  status: ('A' for Active; 'I' for Inactive)
REMARK    1  A    between atoms: S_1  and  C_21
REMARK    2  A    between atoms: S_1  and  C_28
REMARK    3  A    between atoms: N_5  and  C_12
REMARK    4  A    between atoms: C_8  and  C_13
REMARK    5  A    between atoms: C_12  and  C_14
REMARK    6  A    between atoms: C_28  and  C_29
REMARK                            x       y       z     vdW  Elec       q    Type
REMARK                         _______ _______ _______ _____ _____    ______ ____
ROOT
ATOM      5  N   UNL     1      -4.646   0.300  24.902  0.00  0.00    -0.297 NA
ATOM      8  C   UNL     1      -2.745  -0.715  23.976  0.00  0.00    +0.090 C 
ATOM      9  C   UNL     1      -3.488   0.625  24.067  0.00  0.00    +0.097 C 
ATOM     10  C   UNL     1      -3.180  -1.487  25.235  0.00  0.00    +0.029 C 
ATOM     11  C   UNL     1      -4.114  -0.537  25.976  0.00  0.00    +0.085 C 
ENDROOT
BRANCH   8  13
ATOM      2  O   UNL     1      -0.819   0.705  23.519  0.00  0.00    -0.439 OA
ATOM      6  N   UNL     1      -0.314  -1.468  23.926  0.00  0.00    -0.213 NA
ATOM     13  C   UNL     1      -1.252  -0.553  23.816  0.00  0.00    +0.201 A 
ATOM     16  C   UNL     1       0.842  -0.765  23.683  0.00  0.00    +0.111 A 
ATOM     17  C   UNL     1       0.536   0.565  23.433  0.00  0.00    +0.155 A 
ATOM     20  C   UNL     1       2.185  -1.170  23.653  0.00  0.00    +0.058 A 
ATOM     21  C   UNL     1       3.158  -0.201  23.370  0.00  0.00    +0.090 A 
ATOM     22  C   UNL     1       1.472   1.551  23.150  0.00  0.00    +0.050 A 
ATOM     24  C   UNL     1       2.806   1.132  23.123  0.00  0.00    +0.030 A 
BRANCH  21   1
ATOM      1  S   UNL     1       4.844  -0.668  23.327  0.00  0.00    -0.003 S 
ATOM      3  O   UNL     1       4.944  -2.091  23.616  0.00  0.00    -0.169 OA
ATOM      4  O   UNL     1       5.421  -0.134  22.103  0.00  0.00    -0.169 OA
BRANCH   1  28
ATOM     28  C   UNL     1       5.573   0.194  24.701  0.00  0.00    +0.168 C 
ATOM     29  C   UNL     1       6.355   1.405  24.242  0.00  0.00    +0.028 C 
ENDBRANCH   1  28
ENDBRANCH  21   1
ENDBRANCH   8  13
BRANCH   5  12
ATOM     12  C   UNL     1      -5.316   1.489  25.407  0.00  0.00    +0.121 C 
BRANCH  12  14
ATOM      7  N   UNL     1      -4.063   4.781  24.344  0.00  0.00    -0.360 N 
ATOM     14  C   UNL     1      -4.553   2.746  25.081  0.00  0.00    -0.008 A 
ATOM     15  C   UNL     1      -3.179   2.996  25.349  0.00  0.00    +0.004 A 
ATOM     18  C   UNL     1      -5.070   3.861  24.461  0.00  0.00    +0.088 A 
ATOM     19  C   UNL     1      -2.896   4.281  24.878  0.00  0.00    +0.047 A 
ATOM     23  C   UNL     1      -2.144   2.252  25.951  0.00  0.00    +0.010 A 
ATOM     25  C   UNL     1      -1.626   4.860  24.978  0.00  0.00    +0.026 A 
ATOM     26  C   UNL     1      -0.869   2.819  26.059  0.00  0.00    +0.001 A 
ATOM     27  C   UNL     1      -0.617   4.103  25.579  0.00  0.00    +0.002 A 
ATOM     30  H   UNL     1      -4.159   5.696  23.925  0.00  0.00    +0.165 HD
ENDBRANCH  12  14
ENDBRANCH   5  12
TORSDOF 5
ENDMDL
