MODEL 1
REMARK VINA RESULT:      -4.9      0.000      0.000
REMARK  Name = 26744664
REMARK  10 active torsions:
REMARK  status: ('A' for Active; 'I' for Inactive)
REMARK    1  A    between atoms: O_2  and  C_8
REMARK    2  A    between atoms: O_3  and  C_10
REMARK    3  A    between atoms: O_5  and  C_21
REMARK    4  A    between atoms: O_5  and  C_22
REMARK    5  A    between atoms: N_6  and  C_13
REMARK    6  A    between atoms: N_7  and  C_15
REMARK    7  A    between atoms: C_9  and  C_12
REMARK    8  A    between atoms: C_11  and  C_13
REMARK    9  A    between atoms: C_12  and  C_14
REMARK   10  A    between atoms: C_15  and  C_16
REMARK                            x       y       z     vdW  Elec       q    Type
REMARK                         _______ _______ _______ _____ _____    ______ ____
ROOT
ATOM     12  C   UNL     1      -3.961  -1.686  24.882  0.00  0.00    +0.130 C 
ENDROOT
BRANCH  12   9
ATOM      1  O   UNL     1      -2.233  -0.564  26.147  0.00  0.00    -0.366 OA
ATOM      8  C   UNL     1      -1.502  -1.771  24.259  0.00  0.00    +0.175 C 
ATOM      9  C   UNL     1      -2.527  -1.744  25.379  0.00  0.00    +0.158 C 
ATOM     10  C   UNL     1      -0.279  -1.208  24.952  0.00  0.00    +0.175 C 
ATOM     11  C   UNL     1      -0.888  -0.129  25.842  0.00  0.00    +0.163 C 
BRANCH   8   2
ATOM      2  O   UNL     1      -1.305  -3.074  23.751  0.00  0.00    -0.387 OA
ATOM     23  H   UNL     1      -0.550  -3.038  23.140  0.00  0.00    +0.210 HD
ENDBRANCH   8   2
BRANCH  10   3
ATOM      3  O   UNL     1       0.311  -2.196  25.796  0.00  0.00    -0.387 OA
ATOM     24  H   UNL     1       0.911  -1.734  26.408  0.00  0.00    +0.210 HD
ENDBRANCH  10   3
BRANCH  11  13
ATOM     13  C   UNL     1      -0.982   1.227  25.155  0.00  0.00    +0.112 C 
BRANCH  13   6
ATOM      6  N   UNL     1       0.329   1.681  24.712  0.00  0.00    -0.328 NA
ATOM     25  H   UNL     1       0.992   0.909  24.753  0.00  0.00    +0.118 HD
ATOM     26  H   UNL     1       0.676   2.390  25.357  0.00  0.00    +0.118 HD
ENDBRANCH  13   6
ENDBRANCH  11  13
ENDBRANCH  12   9
BRANCH  12  14
ATOM      4  O   UNL     1      -3.965   0.106  23.256  0.00  0.00    -0.276 OA
ATOM      7  N   UNL     1      -5.138   0.378  25.244  0.00  0.00    -0.311 N 
ATOM     14  C   UNL     1      -4.337  -0.316  24.348  0.00  0.00    +0.216 C 
ATOM     27  H   UNL     1      -5.375  -0.054  26.133  0.00  0.00    +0.149 HD
BRANCH   7  15
ATOM     15  C   UNL     1      -5.638   1.708  24.989  0.00  0.00    +0.139 C 
BRANCH  15  16
ATOM     16  C   UNL     1      -4.545   2.737  25.029  0.00  0.00    -0.030 A 
ATOM     17  C   UNL     1      -4.074   3.208  26.254  0.00  0.00    +0.009 A 
ATOM     18  C   UNL     1      -4.001   3.221  23.839  0.00  0.00    +0.009 A 
ATOM     19  C   UNL     1      -3.058   4.163  26.290  0.00  0.00    +0.046 A 
ATOM     20  C   UNL     1      -2.985   4.177  23.876  0.00  0.00    +0.046 A 
ATOM     21  C   UNL     1      -2.515   4.648  25.101  0.00  0.00    +0.120 A 
BRANCH  21   5
ATOM      5  O   UNL     1      -1.523   5.580  25.137  0.00  0.00    -0.495 OA
ATOM     22  C   UNL     1      -0.241   5.184  24.652  0.00  0.00    +0.277 C 
ENDBRANCH  21   5
ENDBRANCH  15  16
ENDBRANCH   7  15
ENDBRANCH  12  14
TORSDOF 9
ENDMDL
MODEL 2
REMARK VINA RESULT:      -4.7     14.584     17.079
REMARK  Name = 26744664
REMARK  10 active torsions:
REMARK  status: ('A' for Active; 'I' for Inactive)
REMARK    1  A    between atoms: O_2  and  C_8
REMARK    2  A    between atoms: O_3  and  C_10
REMARK    3  A    between atoms: O_5  and  C_21
REMARK    4  A    between atoms: O_5  and  C_22
REMARK    5  A    between atoms: N_6  and  C_13
REMARK    6  A    between atoms: N_7  and  C_15
REMARK    7  A    between atoms: C_9  and  C_12
REMARK    8  A    between atoms: C_11  and  C_13
REMARK    9  A    between atoms: C_12  and  C_14
REMARK   10  A    between atoms: C_15  and  C_16
REMARK                            x       y       z     vdW  Elec       q    Type
REMARK                         _______ _______ _______ _____ _____    ______ ____
ROOT
ATOM     12  C   UNL     1      -3.147 -10.716  11.042  0.00  0.00    +0.130 C 
ENDROOT
BRANCH  12   9
ATOM      1  O   UNL     1      -4.869  -9.176  11.755  0.00  0.00    -0.366 OA
ATOM      8  C   UNL     1      -5.109 -10.047   9.577  0.00  0.00    +0.175 C 
ATOM      9  C   UNL     1      -4.096  -9.608  10.621  0.00  0.00    +0.158 C 
ATOM     10  C   UNL     1      -6.232  -9.058   9.809  0.00  0.00    +0.175 C 
ATOM     11  C   UNL     1      -6.227  -8.922  11.328  0.00  0.00    +0.163 C 
BRANCH   8   2
ATOM      2  O   UNL     1      -4.579  -9.994   8.270  0.00  0.00    -0.387 OA
ATOM     23  H   UNL     1      -3.678  -9.633   8.335  0.00  0.00    +0.210 HD
ENDBRANCH   8   2
BRANCH  10   3
ATOM      3  O   UNL     1      -5.897  -7.788   9.250  0.00  0.00    -0.387 OA
ATOM     24  H   UNL     1      -6.686  -7.457   8.787  0.00  0.00    +0.210 HD
ENDBRANCH  10   3
BRANCH  11  13
ATOM     13  C   UNL     1      -7.130  -9.934  12.020  0.00  0.00    +0.112 C 
BRANCH  13   6
ATOM      6  N   UNL     1      -8.058  -9.273  12.928  0.00  0.00    -0.328 NA
ATOM     25  H   UNL     1      -7.713  -8.341  13.153  0.00  0.00    +0.118 HD
ATOM     26  H   UNL     1      -8.092  -9.786  13.808  0.00  0.00    +0.118 HD
ENDBRANCH  13   6
ENDBRANCH  11  13
ENDBRANCH  12   9
BRANCH  12  14
ATOM      4  O   UNL     1      -1.347  -9.953  12.468  0.00  0.00    -0.276 OA
ATOM      7  N   UNL     1      -3.288 -10.781  13.441  0.00  0.00    -0.311 N 
ATOM     14  C   UNL     1      -2.474 -10.431  12.373  0.00  0.00    +0.216 C 
ATOM     27  H   UNL     1      -4.201 -11.188  13.255  0.00  0.00    +0.149 HD
BRANCH   7  15
ATOM     15  C   UNL     1      -2.894 -10.618  14.820  0.00  0.00    +0.139 C 
BRANCH  15  16
ATOM     16  C   UNL     1      -4.079 -10.475  15.731  0.00  0.00    -0.030 A 
ATOM     17  C   UNL     1      -3.958 -10.781  17.086  0.00  0.00    +0.009 A 
ATOM     18  C   UNL     1      -5.301 -10.036  15.222  0.00  0.00    +0.009 A 
ATOM     19  C   UNL     1      -5.059 -10.648  17.933  0.00  0.00    +0.046 A 
ATOM     20  C   UNL     1      -6.402  -9.903  16.068  0.00  0.00    +0.046 A 
ATOM     21  C   UNL     1      -6.280 -10.209  17.423  0.00  0.00    +0.120 A 
BRANCH  21   5
ATOM      5  O   UNL     1      -7.354 -10.079  18.249  0.00  0.00    -0.495 OA
ATOM     22  C   UNL     1      -8.625  -9.868  17.635  0.00  0.00    +0.277 C 
ENDBRANCH  21   5
ENDBRANCH  15  16
ENDBRANCH   7  15
ENDBRANCH  12  14
TORSDOF 9
ENDMDL
MODEL 3
REMARK VINA RESULT:      -4.5      1.723      3.965
REMARK  Name = 26744664
REMARK  10 active torsions:
REMARK  status: ('A' for Active; 'I' for Inactive)
REMARK    1  A    between atoms: O_2  and  C_8
REMARK    2  A    between atoms: O_3  and  C_10
REMARK    3  A    between atoms: O_5  and  C_21
REMARK    4  A    between atoms: O_5  and  C_22
REMARK    5  A    between atoms: N_6  and  C_13
REMARK    6  A    between atoms: N_7  and  C_15
REMARK    7  A    between atoms: C_9  and  C_12
REMARK    8  A    between atoms: C_11  and  C_13
REMARK    9  A    between atoms: C_12  and  C_14
REMARK   10  A    between atoms: C_15  and  C_16
REMARK                            x       y       z     vdW  Elec       q    Type
REMARK                         _______ _______ _______ _____ _____    ______ ____
ROOT
ATOM     12  C   UNL     1       0.797   0.824  24.171  0.00  0.00    +0.130 C 
ENDROOT
BRANCH  12   9
ATOM      1  O   UNL     1      -1.437   0.163  23.523  0.00  0.00    -0.366 OA
ATOM      8  C   UNL     1      -0.445  -1.118  25.235  0.00  0.00    +0.175 C 
ATOM      9  C   UNL     1      -0.162  -0.336  23.964  0.00  0.00    +0.158 C 
ATOM     10  C   UNL     1      -1.796  -1.726  24.923  0.00  0.00    +0.175 C 
ATOM     11  C   UNL     1      -2.486  -0.595  24.167  0.00  0.00    +0.163 C 
BRANCH   8   2
ATOM      2  O   UNL     1       0.554  -2.081  25.498  0.00  0.00    -0.387 OA
ATOM     23  H   UNL     1       1.410  -1.620  25.499  0.00  0.00    +0.210 HD
ENDBRANCH   8   2
BRANCH  10   3
ATOM      3  O   UNL     1      -1.649  -2.829  24.031  0.00  0.00    -0.387 OA
ATOM     24  H   UNL     1      -1.806  -2.497  23.130  0.00  0.00    +0.210 HD
ENDBRANCH  10   3
BRANCH  11  13
ATOM     13  C   UNL     1      -3.251   0.354  25.081  0.00  0.00    +0.112 C 
BRANCH  13   6
ATOM      6  N   UNL     1      -4.676   0.050  25.074  0.00  0.00    -0.328 NA
ATOM     25  H   UNL     1      -5.048   0.170  24.133  0.00  0.00    +0.118 HD
ATOM     26  H   UNL     1      -5.167   0.722  25.663  0.00  0.00    +0.118 HD
ENDBRANCH  13   6
ENDBRANCH  11  13
ENDBRANCH  12   9
BRANCH  12  14
ATOM      4  O   UNL     1      -0.024   1.979  26.132  0.00  0.00    -0.276 OA
ATOM      7  N   UNL     1      -0.185   3.014  24.058  0.00  0.00    -0.311 N 
ATOM     14  C   UNL     1       0.158   1.981  24.918  0.00  0.00    +0.216 C 
ATOM     27  H   UNL     1      -0.007   2.910  23.063  0.00  0.00    +0.149 HD
BRANCH   7  15
ATOM     15  C   UNL     1      -0.811   4.237  24.504  0.00  0.00    +0.139 C 
BRANCH  15  16
ATOM     16  C   UNL     1      -2.251   4.029  24.875  0.00  0.00    -0.030 A 
ATOM     17  C   UNL     1      -3.181   3.683  23.895  0.00  0.00    +0.009 A 
ATOM     18  C   UNL     1      -2.658   4.180  26.200  0.00  0.00    +0.009 A 
ATOM     19  C   UNL     1      -4.519   3.489  24.240  0.00  0.00    +0.046 A 
ATOM     20  C   UNL     1      -3.995   3.985  26.546  0.00  0.00    +0.046 A 
ATOM     21  C   UNL     1      -4.925   3.641  25.565  0.00  0.00    +0.120 A 
BRANCH  21   5
ATOM      5  O   UNL     1      -6.230   3.451  25.903  0.00  0.00    -0.495 OA
ATOM     22  C   UNL     1      -6.586   2.173  26.429  0.00  0.00    +0.277 C 
ENDBRANCH  21   5
ENDBRANCH  15  16
ENDBRANCH   7  15
ENDBRANCH  12  14
TORSDOF 9
ENDMDL
MODEL 4
REMARK VINA RESULT:      -4.5      2.823      5.538
REMARK  Name = 26744664
REMARK  10 active torsions:
REMARK  status: ('A' for Active; 'I' for Inactive)
REMARK    1  A    between atoms: O_2  and  C_8
REMARK    2  A    between atoms: O_3  and  C_10
REMARK    3  A    between atoms: O_5  and  C_21
REMARK    4  A    between atoms: O_5  and  C_22
REMARK    5  A    between atoms: N_6  and  C_13
REMARK    6  A    between atoms: N_7  and  C_15
REMARK    7  A    between atoms: C_9  and  C_12
REMARK    8  A    between atoms: C_11  and  C_13
REMARK    9  A    between atoms: C_12  and  C_14
REMARK   10  A    between atoms: C_15  and  C_16
REMARK                            x       y       z     vdW  Elec       q    Type
REMARK                         _______ _______ _______ _____ _____    ______ ____
ROOT
ATOM     12  C   UNL     1      -5.040   0.482  24.313  0.00  0.00    +0.130 C 
ENDROOT
BRANCH  12   9
ATOM      1  O   UNL     1      -4.351   2.777  23.990  0.00  0.00    -0.366 OA
ATOM      8  C   UNL     1      -5.347   2.288  26.070  0.00  0.00    +0.175 C 
ATOM      9  C   UNL     1      -5.356   1.941  24.591  0.00  0.00    +0.158 C 
ATOM     10  C   UNL     1      -5.055   3.773  26.032  0.00  0.00    +0.175 C 
ATOM     11  C   UNL     1      -4.052   3.871  24.888  0.00  0.00    +0.163 C 
BRANCH   8   2
ATOM      2  O   UNL     1      -6.574   1.976  26.695  0.00  0.00    -0.387 OA
ATOM     23  H   UNL     1      -7.256   1.953  26.003  0.00  0.00    +0.210 HD
ENDBRANCH   8   2
BRANCH  10   3
ATOM      3  O   UNL     1      -6.226   4.499  25.658  0.00  0.00    -0.387 OA
ATOM     24  H   UNL     1      -6.941   4.225  26.258  0.00  0.00    +0.210 HD
ENDBRANCH  10   3
BRANCH  11  13
ATOM     13  C   UNL     1      -2.608   3.715  25.346  0.00  0.00    +0.112 C 
BRANCH  13   6
ATOM      6  N   UNL     1      -1.863   4.953  25.158  0.00  0.00    -0.328 NA
ATOM     25  H   UNL     1      -1.726   5.412  26.057  0.00  0.00    +0.118 HD
ATOM     26  H   UNL     1      -2.415   5.596  24.591  0.00  0.00    +0.118 HD
ENDBRANCH  13   6
ENDBRANCH  11  13
ENDBRANCH  12   9
BRANCH  12  14
ATOM      4  O   UNL     1      -4.023  -0.960  25.968  0.00  0.00    -0.276 OA
ATOM      7  N   UNL     1      -2.721   0.654  24.919  0.00  0.00    -0.311 N 
ATOM     14  C   UNL     1      -3.897  -0.039  25.165  0.00  0.00    +0.216 C 
ATOM     27  H   UNL     1      -2.726   1.415  24.245  0.00  0.00    +0.149 HD
BRANCH   7  15
ATOM     15  C   UNL     1      -1.478   0.364  25.595  0.00  0.00    +0.139 C 
BRANCH  15  16
ATOM     16  C   UNL     1      -0.309   0.371  24.651  0.00  0.00    -0.030 A 
ATOM     17  C   UNL     1      -0.019  -0.763  23.893  0.00  0.00    +0.009 A 
ATOM     18  C   UNL     1       0.484   1.511  24.533  0.00  0.00    +0.009 A 
ATOM     19  C   UNL     1       1.066  -0.756  23.016  0.00  0.00    +0.046 A 
ATOM     20  C   UNL     1       1.569   1.518  23.656  0.00  0.00    +0.046 A 
ATOM     21  C   UNL     1       1.860   0.384  22.899  0.00  0.00    +0.120 A 
BRANCH  21   5
ATOM      5  O   UNL     1       2.919   0.391  22.043  0.00  0.00    -0.495 OA
ATOM     22  C   UNL     1       4.191   0.738  22.587  0.00  0.00    +0.277 C 
ENDBRANCH  21   5
ENDBRANCH  15  16
ENDBRANCH   7  15
ENDBRANCH  12  14
TORSDOF 9
ENDMDL
MODEL 5
REMARK VINA RESULT:      -4.4      2.122      6.045
REMARK  Name = 26744664
REMARK  10 active torsions:
REMARK  status: ('A' for Active; 'I' for Inactive)
REMARK    1  A    between atoms: O_2  and  C_8
REMARK    2  A    between atoms: O_3  and  C_10
REMARK    3  A    between atoms: O_5  and  C_21
REMARK    4  A    between atoms: O_5  and  C_22
REMARK    5  A    between atoms: N_6  and  C_13
REMARK    6  A    between atoms: N_7  and  C_15
REMARK    7  A    between atoms: C_9  and  C_12
REMARK    8  A    between atoms: C_11  and  C_13
REMARK    9  A    between atoms: C_12  and  C_14
REMARK   10  A    between atoms: C_15  and  C_16
REMARK                            x       y       z     vdW  Elec       q    Type
REMARK                         _______ _______ _______ _____ _____    ______ ____
ROOT
ATOM     12  C   UNL     1      -3.032   4.908  25.878  0.00  0.00    +0.130 C 
ENDROOT
BRANCH  12   9
ATOM      1  O   UNL     1      -3.488   2.534  25.864  0.00  0.00    -0.366 OA
ATOM      8  C   UNL     1      -5.310   3.932  25.329  0.00  0.00    +0.175 C 
ATOM      9  C   UNL     1      -4.051   3.821  26.172  0.00  0.00    +0.158 C 
ATOM     10  C   UNL     1      -5.808   2.502  25.339  0.00  0.00    +0.175 C 
ATOM     11  C   UNL     1      -4.507   1.711  25.250  0.00  0.00    +0.163 C 
BRANCH   8   2
ATOM      2  O   UNL     1      -6.234   4.849  25.874  0.00  0.00    -0.387 OA
ATOM     23  H   UNL     1      -6.683   5.287  25.131  0.00  0.00    +0.210 HD
ENDBRANCH   8   2
BRANCH  10   3
ATOM      3  O   UNL     1      -6.424   2.200  26.590  0.00  0.00    -0.387 OA
ATOM     24  H   UNL     1      -6.000   2.760  27.265  0.00  0.00    +0.210 HD
ENDBRANCH  10   3
BRANCH  11  13
ATOM     13  C   UNL     1      -4.076   1.431  23.816  0.00  0.00    +0.112 C 
BRANCH  13   6
ATOM      6  N   UNL     1      -2.983   2.307  23.417  0.00  0.00    -0.328 NA
ATOM     25  H   UNL     1      -2.271   1.768  22.927  0.00  0.00    +0.118 HD
ATOM     26  H   UNL     1      -2.533   2.685  24.250  0.00  0.00    +0.118 HD
ENDBRANCH  13   6
ENDBRANCH  11  13
ENDBRANCH  12   9
BRANCH  12  14
ATOM      4  O   UNL     1      -1.183   4.792  24.322  0.00  0.00    -0.276 OA
ATOM      7  N   UNL     1      -1.257   3.304  26.106  0.00  0.00    -0.311 N 
ATOM     14  C   UNL     1      -1.730   4.353  25.330  0.00  0.00    +0.216 C 
ATOM     27  H   UNL     1      -1.795   3.004  26.914  0.00  0.00    +0.149 HD
BRANCH   7  15
ATOM     15  C   UNL     1      -0.036   2.592  25.810  0.00  0.00    +0.139 C 
BRANCH  15  16
ATOM     16  C   UNL     1      -0.304   1.204  25.301  0.00  0.00    -0.030 A 
ATOM     17  C   UNL     1      -1.103   0.332  26.040  0.00  0.00    +0.009 A 
ATOM     18  C   UNL     1       0.245   0.789  24.088  0.00  0.00    +0.009 A 
ATOM     19  C   UNL     1      -1.352  -0.956  25.567  0.00  0.00    +0.046 A 
ATOM     20  C   UNL     1      -0.005  -0.499  23.615  0.00  0.00    +0.046 A 
ATOM     21  C   UNL     1      -0.803  -1.371  24.355  0.00  0.00    +0.120 A 
BRANCH  21   5
ATOM      5  O   UNL     1      -1.046  -2.628  23.893  0.00  0.00    -0.495 OA
ATOM     22  C   UNL     1      -2.368  -3.139  24.062  0.00  0.00    +0.277 C 
ENDBRANCH  21   5
ENDBRANCH  15  16
ENDBRANCH   7  15
ENDBRANCH  12  14
TORSDOF 9
ENDMDL
MODEL 6
REMARK VINA RESULT:      -4.0      1.981      4.993
REMARK  Name = 26744664
REMARK  10 active torsions:
REMARK  status: ('A' for Active; 'I' for Inactive)
REMARK    1  A    between atoms: O_2  and  C_8
REMARK    2  A    between atoms: O_3  and  C_10
REMARK    3  A    between atoms: O_5  and  C_21
REMARK    4  A    between atoms: O_5  and  C_22
REMARK    5  A    between atoms: N_6  and  C_13
REMARK    6  A    between atoms: N_7  and  C_15
REMARK    7  A    between atoms: C_9  and  C_12
REMARK    8  A    between atoms: C_11  and  C_13
REMARK    9  A    between atoms: C_12  and  C_14
REMARK   10  A    between atoms: C_15  and  C_16
REMARK                            x       y       z     vdW  Elec       q    Type
REMARK                         _______ _______ _______ _____ _____    ______ ____
ROOT
ATOM     12  C   UNL     1      -2.484   4.494  24.514  0.00  0.00    +0.130 C 
ENDROOT
BRANCH  12   9
ATOM      1  O   UNL     1      -0.426   3.342  23.985  0.00  0.00    -0.366 OA
ATOM      8  C   UNL     1      -1.411   2.783  26.053  0.00  0.00    +0.175 C 
ATOM      9  C   UNL     1      -1.192   3.913  25.060  0.00  0.00    +0.158 C 
ATOM     10  C   UNL     1      -0.108   2.021  25.938  0.00  0.00    +0.175 C 
ATOM     11  C   UNL     1       0.183   2.112  24.444  0.00  0.00    +0.163 C 
BRANCH   8   2
ATOM      2  O   UNL     1      -1.664   3.265  27.356  0.00  0.00    -0.387 OA
ATOM     23  H   UNL     1      -0.804   3.458  27.767  0.00  0.00    +0.210 HD
ENDBRANCH   8   2
BRANCH  10   3
ATOM      3  O   UNL     1       0.931   2.708  26.634  0.00  0.00    -0.387 OA
ATOM     24  H   UNL     1       0.529   3.482  27.065  0.00  0.00    +0.210 HD
ENDBRANCH  10   3
BRANCH  11  13
ATOM     13  C   UNL     1      -0.426   0.966  23.646  0.00  0.00    +0.112 C 
BRANCH  13   6
ATOM      6  N   UNL     1       0.366  -0.248  23.789  0.00  0.00    -0.328 NA
ATOM     25  H   UNL     1       1.349  -0.038  23.623  0.00  0.00    +0.118 HD
ATOM     26  H   UNL     1       0.091  -0.916  23.070  0.00  0.00    +0.118 HD
ENDBRANCH  13   6
ENDBRANCH  11  13
ENDBRANCH  12   9
BRANCH  12  14
ATOM      4  O   UNL     1      -3.723   3.046  23.023  0.00  0.00    -0.276 OA
ATOM      7  N   UNL     1      -4.143   2.946  25.307  0.00  0.00    -0.311 N 
ATOM     14  C   UNL     1      -3.505   3.424  24.171  0.00  0.00    +0.216 C 
ATOM     27  H   UNL     1      -3.902   3.339  26.213  0.00  0.00    +0.149 HD
BRANCH   7  15
ATOM     15  C   UNL     1      -5.162   1.924  25.268  0.00  0.00    +0.139 C 
BRANCH  15  16
ATOM     16  C   UNL     1      -4.577   0.553  25.082  0.00  0.00    -0.030 A 
ATOM     17  C   UNL     1      -3.732   0.018  26.053  0.00  0.00    +0.009 A 
ATOM     18  C   UNL     1      -4.882  -0.185  23.939  0.00  0.00    +0.009 A 
ATOM     19  C   UNL     1      -3.190  -1.256  25.881  0.00  0.00    +0.046 A 
ATOM     20  C   UNL     1      -4.341  -1.459  23.766  0.00  0.00    +0.046 A 
ATOM     21  C   UNL     1      -3.494  -1.993  24.737  0.00  0.00    +0.120 A 
BRANCH  21   5
ATOM      5  O   UNL     1      -2.966  -3.237  24.569  0.00  0.00    -0.495 OA
ATOM     22  C   UNL     1      -1.604  -3.313  24.150  0.00  0.00    +0.277 C 
ENDBRANCH  21   5
ENDBRANCH  15  16
ENDBRANCH   7  15
ENDBRANCH  12  14
TORSDOF 9
ENDMDL
MODEL 7
REMARK VINA RESULT:      -3.8      1.809      5.283
REMARK  Name = 26744664
REMARK  10 active torsions:
REMARK  status: ('A' for Active; 'I' for Inactive)
REMARK    1  A    between atoms: O_2  and  C_8
REMARK    2  A    between atoms: O_3  and  C_10
REMARK    3  A    between atoms: O_5  and  C_21
REMARK    4  A    between atoms: O_5  and  C_22
REMARK    5  A    between atoms: N_6  and  C_13
REMARK    6  A    between atoms: N_7  and  C_15
REMARK    7  A    between atoms: C_9  and  C_12
REMARK    8  A    between atoms: C_11  and  C_13
REMARK    9  A    between atoms: C_12  and  C_14
REMARK   10  A    between atoms: C_15  and  C_16
REMARK                            x       y       z     vdW  Elec       q    Type
REMARK                         _______ _______ _______ _____ _____    ______ ____
ROOT
ATOM     12  C   UNL     1      -5.011   4.114  24.872  0.00  0.00    +0.130 C 
ENDROOT
BRANCH  12   9
ATOM      1  O   UNL     1      -3.035   3.785  23.519  0.00  0.00    -0.366 OA
ATOM      8  C   UNL     1      -2.760   3.447  25.836  0.00  0.00    +0.175 C 
ATOM      9  C   UNL     1      -3.502   4.264  24.793  0.00  0.00    +0.158 C 
ATOM     10  C   UNL     1      -1.408   3.268  25.177  0.00  0.00    +0.175 C 
ATOM     11  C   UNL     1      -1.793   3.070  23.714  0.00  0.00    +0.163 C 
BRANCH   8   2
ATOM      2  O   UNL     1      -2.690   4.113  27.079  0.00  0.00    -0.387 OA
ATOM     23  H   UNL     1      -1.890   3.800  27.534  0.00  0.00    +0.210 HD
ENDBRANCH   8   2
BRANCH  10   3
ATOM      3  O   UNL     1      -0.646   4.470  25.275  0.00  0.00    -0.387 OA
ATOM     24  H   UNL     1      -0.955   4.946  26.066  0.00  0.00    +0.210 HD
ENDBRANCH  10   3
BRANCH  11  13
ATOM     13  C   UNL     1      -2.035   1.610  23.353  0.00  0.00    +0.112 C 
BRANCH  13   6
ATOM      6  N   UNL     1      -0.803   0.839  23.441  0.00  0.00    -0.328 NA
ATOM     25  H   UNL     1      -0.762   0.356  24.337  0.00  0.00    +0.118 HD
ATOM     26  H   UNL     1      -0.005   1.473  23.422  0.00  0.00    +0.118 HD
ENDBRANCH  13   6
ENDBRANCH  11  13
ENDBRANCH  12   9
BRANCH  12  14
ATOM      4  O   UNL     1      -5.821   2.630  26.603  0.00  0.00    -0.276 OA
ATOM      7  N   UNL     1      -5.322   1.760  24.506  0.00  0.00    -0.311 N 
ATOM     14  C   UNL     1      -5.434   2.774  25.446  0.00  0.00    +0.216 C 
ATOM     27  H   UNL     1      -4.973   1.981  23.578  0.00  0.00    +0.149 HD
BRANCH   7  15
ATOM     15  C   UNL     1      -5.657   0.384  24.787  0.00  0.00    +0.139 C 
BRANCH  15  16
ATOM     16  C   UNL     1      -4.438  -0.492  24.845  0.00  0.00    -0.030 A 
ATOM     17  C   UNL     1      -3.441  -0.239  25.787  0.00  0.00    +0.009 A 
ATOM     18  C   UNL     1      -4.304  -1.559  23.957  0.00  0.00    +0.009 A 
ATOM     19  C   UNL     1      -2.310  -1.053  25.841  0.00  0.00    +0.046 A 
ATOM     20  C   UNL     1      -3.172  -2.373  24.011  0.00  0.00    +0.046 A 
ATOM     21  C   UNL     1      -2.176  -2.119  24.953  0.00  0.00    +0.120 A 
BRANCH  21   5
ATOM      5  O   UNL     1      -1.072  -2.914  25.006  0.00  0.00    -0.495 OA
ATOM     22  C   UNL     1       0.169  -2.283  25.321  0.00  0.00    +0.277 C 
ENDBRANCH  21   5
ENDBRANCH  15  16
ENDBRANCH   7  15
ENDBRANCH  12  14
TORSDOF 9
ENDMDL
MODEL 8
REMARK VINA RESULT:      -3.8     14.340     16.235
REMARK  Name = 26744664
REMARK  10 active torsions:
REMARK  status: ('A' for Active; 'I' for Inactive)
REMARK    1  A    between atoms: O_2  and  C_8
REMARK    2  A    between atoms: O_3  and  C_10
REMARK    3  A    between atoms: O_5  and  C_21
REMARK    4  A    between atoms: O_5  and  C_22
REMARK    5  A    between atoms: N_6  and  C_13
REMARK    6  A    between atoms: N_7  and  C_15
REMARK    7  A    between atoms: C_9  and  C_12
REMARK    8  A    between atoms: C_11  and  C_13
REMARK    9  A    between atoms: C_12  and  C_14
REMARK   10  A    between atoms: C_15  and  C_16
REMARK                            x       y       z     vdW  Elec       q    Type
REMARK                         _______ _______ _______ _____ _____    ______ ____
ROOT
ATOM     12  C   UNL     1      -2.309 -10.696  13.273  0.00  0.00    +0.130 C 
ENDROOT
BRANCH  12   9
ATOM      1  O   UNL     1      -4.454  -9.581  13.283  0.00  0.00    -0.366 OA
ATOM      8  C   UNL     1      -3.682 -10.301  11.175  0.00  0.00    +0.175 C 
ATOM      9  C   UNL     1      -3.244  -9.762  12.526  0.00  0.00    +0.158 C 
ATOM     10  C   UNL     1      -4.991  -9.569  10.966  0.00  0.00    +0.175 C 
ATOM     11  C   UNL     1      -5.578  -9.559  12.373  0.00  0.00    +0.163 C 
BRANCH   8   2
ATOM      2  O   UNL     1      -2.729 -10.041  10.167  0.00  0.00    -0.387 OA
ATOM     23  H   UNL     1      -2.042 -10.726  10.231  0.00  0.00    +0.210 HD
ENDBRANCH   8   2
BRANCH  10   3
ATOM      3  O   UNL     1      -4.747  -8.218  10.579  0.00  0.00    -0.387 OA
ATOM     24  H   UNL     1      -4.357  -7.762  11.345  0.00  0.00    +0.210 HD
ENDBRANCH  10   3
BRANCH  11  13
ATOM     13  C   UNL     1      -6.439 -10.780  12.669  0.00  0.00    +0.112 C 
BRANCH  13   6
ATOM      6  N   UNL     1      -7.672 -10.399  13.345  0.00  0.00    -0.328 NA
ATOM     25  H   UNL     1      -8.443 -10.969  13.001  0.00  0.00    +0.118 HD
ATOM     26  H   UNL     1      -7.902  -9.434  13.110  0.00  0.00    +0.118 HD
ENDBRANCH  13   6
ENDBRANCH  11  13
ENDBRANCH  12   9
BRANCH  12  14
ATOM      4  O   UNL     1      -1.227  -9.760  15.224  0.00  0.00    -0.276 OA
ATOM      7  N   UNL     1      -3.301 -10.781  15.460  0.00  0.00    -0.311 N 
ATOM     14  C   UNL     1      -2.193 -10.349  14.746  0.00  0.00    +0.216 C 
ATOM     27  H   UNL     1      -4.042 -11.277  14.972  0.00  0.00    +0.149 HD
BRANCH   7  15
ATOM     15  C   UNL     1      -3.450 -10.583  16.882  0.00  0.00    +0.139 C 
BRANCH  15  16
ATOM     16  C   UNL     1      -4.887 -10.395  17.277  0.00  0.00    -0.030 A 
ATOM     17  C   UNL     1      -5.804  -9.891  16.355  0.00  0.00    +0.009 A 
ATOM     18  C   UNL     1      -5.304 -10.726  18.566  0.00  0.00    +0.009 A 
ATOM     19  C   UNL     1      -7.139  -9.717  16.722  0.00  0.00    +0.046 A 
ATOM     20  C   UNL     1      -6.639 -10.552  18.933  0.00  0.00    +0.046 A 
ATOM     21  C   UNL     1      -7.555 -10.048  18.010  0.00  0.00    +0.120 A 
BRANCH  21   5
ATOM      5  O   UNL     1      -8.858  -9.879  18.369  0.00  0.00    -0.495 OA
ATOM     22  C   UNL     1      -9.678  -9.108  17.492  0.00  0.00    +0.277 C 
ENDBRANCH  21   5
ENDBRANCH  15  16
ENDBRANCH   7  15
ENDBRANCH  12  14
TORSDOF 9
ENDMDL
MODEL 9
REMARK VINA RESULT:      -3.6      1.992      6.143
REMARK  Name = 26744664
REMARK  10 active torsions:
REMARK  status: ('A' for Active; 'I' for Inactive)
REMARK    1  A    between atoms: O_2  and  C_8
REMARK    2  A    between atoms: O_3  and  C_10
REMARK    3  A    between atoms: O_5  and  C_21
REMARK    4  A    between atoms: O_5  and  C_22
REMARK    5  A    between atoms: N_6  and  C_13
REMARK    6  A    between atoms: N_7  and  C_15
REMARK    7  A    between atoms: C_9  and  C_12
REMARK    8  A    between atoms: C_11  and  C_13
REMARK    9  A    between atoms: C_12  and  C_14
REMARK   10  A    between atoms: C_15  and  C_16
REMARK                            x       y       z     vdW  Elec       q    Type
REMARK                         _______ _______ _______ _____ _____    ______ ____
ROOT
ATOM     12  C   UNL     1      -0.636   3.797  25.021  0.00  0.00    +0.130 C 
ENDROOT
BRANCH  12   9
ATOM      1  O   UNL     1      -2.947   4.505  24.990  0.00  0.00    -0.366 OA
ATOM      8  C   UNL     1      -2.479   2.482  23.874  0.00  0.00    +0.175 C 
ATOM      9  C   UNL     1      -1.923   3.853  24.218  0.00  0.00    +0.158 C 
ATOM     10  C   UNL     1      -3.949   2.790  23.682  0.00  0.00    +0.175 C 
ATOM     11  C   UNL     1      -4.204   3.822  24.776  0.00  0.00    +0.163 C 
BRANCH   8   2
ATOM      2  O   UNL     1      -1.868   1.935  22.725  0.00  0.00    -0.387 OA
ATOM     23  H   UNL     1      -2.568   1.525  22.190  0.00  0.00    +0.210 HD
ENDBRANCH   8   2
BRANCH  10   3
ATOM      3  O   UNL     1      -4.163   3.421  22.420  0.00  0.00    -0.387 OA
ATOM     24  H   UNL     1      -4.078   2.735  21.735  0.00  0.00    +0.210 HD
ENDBRANCH  10   3
BRANCH  11  13
ATOM     13  C   UNL     1      -4.625   3.196  26.100  0.00  0.00    +0.112 C 
BRANCH  13   6
ATOM      6  N   UNL     1      -6.027   2.804  26.070  0.00  0.00    -0.328 NA
ATOM     25  H   UNL     1      -6.103   1.791  26.150  0.00  0.00    +0.118 HD
ATOM     26  H   UNL     1      -6.427   3.050  25.164  0.00  0.00    +0.118 HD
ENDBRANCH  13   6
ENDBRANCH  11  13
ENDBRANCH  12   9
BRANCH  12  14
ATOM      4  O   UNL     1       0.802   1.950  24.409  0.00  0.00    -0.276 OA
ATOM      7  N   UNL     1      -0.705   1.681  26.158  0.00  0.00    -0.311 N 
ATOM     14  C   UNL     1      -0.084   2.388  25.139  0.00  0.00    +0.216 C 
ATOM     27  H   UNL     1      -1.442   2.130  26.694  0.00  0.00    +0.149 HD
BRANCH   7  15
ATOM     15  C   UNL     1      -0.373   0.314  26.486  0.00  0.00    +0.139 C 
BRANCH  15  16
ATOM     16  C   UNL     1      -1.318  -0.663  25.848  0.00  0.00    -0.030 A 
ATOM     17  C   UNL     1      -0.832  -1.631  24.969  0.00  0.00    +0.009 A 
ATOM     18  C   UNL     1      -2.681  -0.604  26.136  0.00  0.00    +0.009 A 
ATOM     19  C   UNL     1      -1.710  -2.540  24.378  0.00  0.00    +0.046 A 
ATOM     20  C   UNL     1      -3.559  -1.512  25.544  0.00  0.00    +0.046 A 
ATOM     21  C   UNL     1      -3.073  -2.479  24.665  0.00  0.00    +0.120 A 
BRANCH  21   5
ATOM      5  O   UNL     1      -3.930  -3.366  24.088  0.00  0.00    -0.495 OA
ATOM     22  C   UNL     1      -4.843  -2.851  23.120  0.00  0.00    +0.277 C 
ENDBRANCH  21   5
ENDBRANCH  15  16
ENDBRANCH   7  15
ENDBRANCH  12  14
TORSDOF 9
ENDMDL
MODEL 10
REMARK VINA RESULT:      -3.3      2.099      3.035
REMARK  Name = 26744664
REMARK  10 active torsions:
REMARK  status: ('A' for Active; 'I' for Inactive)
REMARK    1  A    between atoms: O_2  and  C_8
REMARK    2  A    between atoms: O_3  and  C_10
REMARK    3  A    between atoms: O_5  and  C_21
REMARK    4  A    between atoms: O_5  and  C_22
REMARK    5  A    between atoms: N_6  and  C_13
REMARK    6  A    between atoms: N_7  and  C_15
REMARK    7  A    between atoms: C_9  and  C_12
REMARK    8  A    between atoms: C_11  and  C_13
REMARK    9  A    between atoms: C_12  and  C_14
REMARK   10  A    between atoms: C_15  and  C_16
REMARK                            x       y       z     vdW  Elec       q    Type
REMARK                         _______ _______ _______ _____ _____    ______ ____
ROOT
ATOM     12  C   UNL     1      -0.980  -1.747  24.624  0.00  0.00    +0.130 C 
ENDROOT
BRANCH  12   9
ATOM      1  O   UNL     1      -0.154   0.248  25.710  0.00  0.00    -0.366 OA
ATOM      8  C   UNL     1      -0.181   0.300  23.353  0.00  0.00    +0.175 C 
ATOM      9  C   UNL     1       0.014  -0.601  24.561  0.00  0.00    +0.158 C 
ATOM     10  C   UNL     1       0.432   1.597  23.840  0.00  0.00    +0.175 C 
ATOM     11  C   UNL     1      -0.008   1.627  25.299  0.00  0.00    +0.163 C 
BRANCH   8   2
ATOM      2  O   UNL     1       0.449  -0.217  22.200  0.00  0.00    -0.387 OA
ATOM     23  H   UNL     1       1.019   0.483  21.840  0.00  0.00    +0.210 HD
ENDBRANCH   8   2
BRANCH  10   3
ATOM      3  O   UNL     1       1.856   1.515  23.808  0.00  0.00    -0.387 OA
ATOM     24  H   UNL     1       2.095   0.579  23.926  0.00  0.00    +0.210 HD
ENDBRANCH  10   3
BRANCH  11  13
ATOM     13  C   UNL     1      -1.351   2.318  25.503  0.00  0.00    +0.112 C 
BRANCH  13   6
ATOM      6  N   UNL     1      -1.195   3.766  25.528  0.00  0.00    -0.328 NA
ATOM     25  H   UNL     1      -0.215   4.009  25.390  0.00  0.00    +0.118 HD
ATOM     26  H   UNL     1      -1.450   4.117  26.451  0.00  0.00    +0.118 HD
ENDBRANCH  13   6
ENDBRANCH  11  13
ENDBRANCH  12   9
BRANCH  12  14
ATOM      4  O   UNL     1      -2.674  -1.087  26.221  0.00  0.00    -0.276 OA
ATOM      7  N   UNL     1      -3.213  -1.154  23.961  0.00  0.00    -0.311 N 
ATOM     14  C   UNL     1      -2.365  -1.294  25.050  0.00  0.00    +0.216 C 
ATOM     27  H   UNL     1      -2.864  -1.369  23.031  0.00  0.00    +0.149 HD
BRANCH   7  15
ATOM     15  C   UNL     1      -4.590  -0.738  24.082  0.00  0.00    +0.139 C 
BRANCH  15  16
ATOM     16  C   UNL     1      -4.709   0.715  24.446  0.00  0.00    -0.030 A 
ATOM     17  C   UNL     1      -5.424   1.094  25.582  0.00  0.00    +0.009 A 
ATOM     18  C   UNL     1      -4.102   1.685  23.648  0.00  0.00    +0.009 A 
ATOM     19  C   UNL     1      -5.533   2.443  25.920  0.00  0.00    +0.046 A 
ATOM     20  C   UNL     1      -4.211   3.034  23.987  0.00  0.00    +0.046 A 
ATOM     21  C   UNL     1      -4.927   3.412  25.122  0.00  0.00    +0.120 A 
BRANCH  21   5
ATOM      5  O   UNL     1      -5.033   4.728  25.452  0.00  0.00    -0.495 OA
ATOM     22  C   UNL     1      -6.344   5.293  25.460  0.00  0.00    +0.277 C 
ENDBRANCH  21   5
ENDBRANCH  15  16
ENDBRANCH   7  15
ENDBRANCH  12  14
TORSDOF 9
ENDMDL
