MODEL 1
REMARK VINA RESULT:      -1.1      0.000      0.000
REMARK  Name = 45361527
REMARK  11 active torsions:
REMARK  status: ('A' for Active; 'I' for Inactive)
REMARK    1  A    between atoms: O_1  and  C_10
REMARK    2  A    between atoms: N_4  and  C_14
REMARK    3  A    between atoms: N_5  and  C_24
REMARK    4  A    between atoms: C_7  and  C_17
REMARK    5  A    between atoms: C_9  and  C_19
REMARK    6  A    between atoms: C_13  and  C_18
REMARK    7  A    between atoms: C_18  and  C_20
REMARK    8  A    between atoms: C_18  and  C_21
REMARK    9  A    between atoms: C_22  and  C_23
REMARK   10  A    between atoms: C_23  and  C_25
REMARK   11  A    between atoms: C_24  and  C_26
REMARK                            x       y       z     vdW  Elec       q    Type
REMARK                         _______ _______ _______ _____ _____    ______ ____
ROOT
ATOM      7  C   UNL     1      -2.315  -0.838  25.263  0.00  0.00    -0.027 C 
ATOM      8  C   UNL     1      -2.495   0.239  24.141  0.00  0.00    +0.028 C 
ATOM      9  C   UNL     1      -1.105   0.832  23.709  0.00  0.00    +0.012 C 
ATOM     10  C   UNL     1      -3.576   1.286  24.533  0.00  0.00    +0.122 C 
ATOM     11  C   UNL     1      -3.685  -1.481  25.585  0.00  0.00    +0.007 C 
ATOM     12  C   UNL     1      -1.381  -1.955  24.744  0.00  0.00    +0.009 C 
ATOM     13  C   UNL     1      -4.913   0.632  24.954  0.00  0.00    +0.029 C 
ATOM     14  C   UNL     1      -0.149  -0.309  23.261  0.00  0.00    +0.076 C 
ATOM     15  C   UNL     1      -4.736  -0.462  26.006  0.00  0.00    +0.007 C 
ATOM     16  C   UNL     1      -0.026  -1.437  24.285  0.00  0.00    +0.023 C 
ATOM     17  C   UNL     1      -1.726  -0.244  26.568  0.00  0.00    +0.011 C 
ATOM     19  C   UNL     1      -1.206   1.878  22.586  0.00  0.00    +0.010 C 
ENDROOT
BRANCH  14   4
ATOM      3  O   UNL     1       1.338  -0.704  20.829  0.00  0.00    -0.275 OA
ATOM      4  N   UNL     1       1.178   0.190  22.965  0.00  0.00    -0.312 N 
ATOM     22  C   UNL     1       1.813  -0.056  21.757  0.00  0.00    +0.218 C 
ATOM     36  H   UNL     1       1.671   0.682  23.704  0.00  0.00    +0.149 HD
BRANCH  22  23
ATOM     23  C   UNL     1       3.186   0.586  21.715  0.00  0.00    +0.130 C 
BRANCH  23  25
ATOM     25  C   UNL     1       4.120   0.066  22.776  0.00  0.00    -0.039 A 
ATOM     27  C   UNL     1       4.039  -1.264  23.186  0.00  0.00    +0.004 A 
ATOM     28  C   UNL     1       5.067   0.916  23.349  0.00  0.00    +0.004 A 
ATOM     31  C   UNL     1       4.905  -1.745  24.169  0.00  0.00    +0.000 A 
ATOM     32  C   UNL     1       5.932   0.435  24.331  0.00  0.00    +0.000 A 
ATOM     33  C   UNL     1       5.851  -0.896  24.742  0.00  0.00    +0.000 A 
ENDBRANCH  23  25
ENDBRANCH  22  23
ENDBRANCH  14   4
BRANCH  10   1
ATOM      1  O   UNL     1      -3.865   2.117  23.407  0.00  0.00    -0.391 OA
ATOM     37  H   UNL     1      -3.043   2.567  23.145  0.00  0.00    +0.210 HD
ENDBRANCH  10   1
BRANCH  13  18
ATOM     18  C   UNL     1      -5.920   1.671  25.460  0.00  0.00    +0.077 C 
ATOM     20  C   UNL     1      -7.109   1.757  24.509  0.00  0.00    +0.017 C 
BRANCH  18  21
ATOM      2  O   UNL     1      -5.588   4.025  24.994  0.00  0.00    -0.276 OA
ATOM      5  N   UNL     1      -4.190   2.990  26.528  0.00  0.00    -0.311 N 
ATOM     21  C   UNL     1      -5.235   3.026  25.617  0.00  0.00    +0.216 C 
ATOM     38  H   UNL     1      -3.994   2.136  27.042  0.00  0.00    +0.149 HD
BRANCH   5  24
ATOM     24  C   UNL     1      -3.389   4.150  26.844  0.00  0.00    +0.141 C 
BRANCH  24  26
ATOM      6  N   UNL     1       0.040   3.149  25.605  0.00  0.00    -0.263 NA
ATOM     26  C   UNL     1      -2.101   4.170  26.073  0.00  0.00    -0.012 A 
ATOM     29  C   UNL     1      -1.835   5.172  25.147  0.00  0.00    +0.008 A 
ATOM     30  C   UNL     1      -1.139   3.190  26.263  0.00  0.00    +0.115 A 
ATOM     34  C   UNL     1      -0.632   5.164  24.449  0.00  0.00    +0.020 A 
ATOM     35  C   UNL     1       0.265   4.140  24.712  0.00  0.00    +0.111 A 
ENDBRANCH  24  26
ENDBRANCH   5  24
ENDBRANCH  18  21
ENDBRANCH  13  18
TORSDOF 8
ENDMDL
