MODEL 1
REMARK VINA RESULT:      -4.7      0.000      0.000
REMARK  Name = 86768995
REMARK  9 active torsions:
REMARK  status: ('A' for Active; 'I' for Inactive)
REMARK    1  A    between atoms: O_2  and  C_9
REMARK    2  A    between atoms: O_4  and  C_23
REMARK    3  A    between atoms: O_4  and  C_24
REMARK    4  A    between atoms: N_5  and  C_11
REMARK    5  A    between atoms: N_5  and  C_14
REMARK    6  A    between atoms: C_8  and  C_14
REMARK    7  A    between atoms: C_10  and  C_17
REMARK    8  A    between atoms: C_17  and  C_20
REMARK    9  A    between atoms: C_22  and  C_23
REMARK                            x       y       z     vdW  Elec       q    Type
REMARK                         _______ _______ _______ _____ _____    ______ ____
ROOT
ATOM      1  O   UNL     1      -5.951  -8.866  10.413  0.00  0.00    -0.369 OA
ATOM      8  C   UNL     1      -7.340  -9.100  10.679  0.00  0.00    +0.161 C 
ATOM      9  C   UNL     1      -8.136  -9.267   9.378  0.00  0.00    +0.145 C 
ATOM     10  C   UNL     1      -5.311  -9.856   9.604  0.00  0.00    +0.125 C 
ATOM     12  C   UNL     1      -7.491 -10.269   8.425  0.00  0.00    +0.036 C 
ATOM     13  C   UNL     1      -6.004  -9.972   8.246  0.00  0.00    +0.034 C 
ENDROOT
BRANCH   9   2
ATOM      2  O   UNL     1      -8.196  -8.005   8.709  0.00  0.00    -0.389 OA
ATOM     27  H   UNL     1      -7.790  -7.342   9.296  0.00  0.00    +0.210 HD
ENDBRANCH   9   2
BRANCH   8  14
ATOM     14  C   UNL     1      -7.526 -10.267  11.646  0.00  0.00    +0.115 C 
BRANCH  14   5
ATOM      5  N   UNL     1      -8.504  -9.940  12.672  0.00  0.00    -0.311 NA
ATOM     25  H   UNL     1      -8.744  -8.951  12.594  0.00  0.00    +0.122 HD
BRANCH   5  11
ATOM      6  N   UNL     1      -6.694  -9.266  16.463  0.00  0.00    -0.316 NA
ATOM     11  C   UNL     1      -7.978 -10.217  14.006  0.00  0.00    +0.056 C 
ATOM     15  C   UNL     1      -6.484  -9.882  14.070  0.00  0.00    +0.034 C 
ATOM     16  C   UNL     1      -8.742  -9.425  15.074  0.00  0.00    +0.034 C 
ATOM     18  C   UNL     1      -5.945 -10.063  15.489  0.00  0.00    +0.082 C 
ATOM     19  C   UNL     1      -8.114  -9.625  16.454  0.00  0.00    +0.082 C 
ATOM     26  H   UNL     1      -6.312  -9.428  17.394  0.00  0.00    +0.122 HD
ENDBRANCH   5  11
ENDBRANCH  14   5
ENDBRANCH   8  14
BRANCH  10  17
ATOM     17  C   UNL     1      -3.855  -9.440   9.435  0.00  0.00    +0.090 C 
BRANCH  17  20
ATOM      3  O   UNL     1      -1.364  -9.630  12.032  0.00  0.00    -0.357 OA
ATOM      7  N   UNL     1      -1.799  -9.240  10.771  0.00  0.00    -0.083 NA
ATOM     20  C   UNL     1      -3.056  -9.687  10.686  0.00  0.00    +0.086 A 
ATOM     21  C   UNL     1      -3.463 -10.359  11.850  0.00  0.00    +0.073 A 
ATOM     22  C   UNL     1      -2.364 -10.295  12.666  0.00  0.00    +0.163 A 
BRANCH  22  23
ATOM     23  C   UNL     1      -2.073 -10.781  14.020  0.00  0.00    +0.236 C 
BRANCH  23   4
ATOM      4  O   UNL     1      -1.238  -9.848  14.713  0.00  0.00    -0.375 OA
ATOM     24  C   UNL     1      -0.861 -10.346  15.985  0.00  0.00    +0.194 C 
ENDBRANCH  23   4
ENDBRANCH  22  23
ENDBRANCH  17  20
ENDBRANCH  10  17
TORSDOF 8
ENDMDL
MODEL 2
REMARK VINA RESULT:      -4.6     15.151     17.549
REMARK  Name = 86768995
REMARK  9 active torsions:
REMARK  status: ('A' for Active; 'I' for Inactive)
REMARK    1  A    between atoms: O_2  and  C_9
REMARK    2  A    between atoms: O_4  and  C_23
REMARK    3  A    between atoms: O_4  and  C_24
REMARK    4  A    between atoms: N_5  and  C_11
REMARK    5  A    between atoms: N_5  and  C_14
REMARK    6  A    between atoms: C_8  and  C_14
REMARK    7  A    between atoms: C_10  and  C_17
REMARK    8  A    between atoms: C_17  and  C_20
REMARK    9  A    between atoms: C_22  and  C_23
REMARK                            x       y       z     vdW  Elec       q    Type
REMARK                         _______ _______ _______ _____ _____    ______ ____
ROOT
ATOM      1  O   UNL     1      -3.570   2.295  25.701  0.00  0.00    -0.369 OA
ATOM      8  C   UNL     1      -4.797   1.665  25.309  0.00  0.00    +0.161 C 
ATOM      9  C   UNL     1      -6.012   2.513  25.711  0.00  0.00    +0.145 C 
ATOM     10  C   UNL     1      -3.386   3.626  25.212  0.00  0.00    +0.125 C 
ATOM     12  C   UNL     1      -5.873   3.970  25.276  0.00  0.00    +0.036 C 
ATOM     13  C   UNL     1      -4.518   4.536  25.689  0.00  0.00    +0.034 C 
ENDROOT
BRANCH   9   2
ATOM      2  O   UNL     1      -6.137   2.492  27.134  0.00  0.00    -0.389 OA
ATOM     27  H   UNL     1      -5.714   3.299  27.478  0.00  0.00    +0.210 HD
ENDBRANCH   9   2
BRANCH   8  14
ATOM     14  C   UNL     1      -4.783   1.309  23.824  0.00  0.00    +0.115 C 
BRANCH  14   5
ATOM      5  N   UNL     1      -3.508   0.720  23.445  0.00  0.00    -0.311 NA
ATOM     25  H   UNL     1      -3.552   0.445  22.462  0.00  0.00    +0.122 HD
BRANCH   5  11
ATOM      6  N   UNL     1      -2.198  -3.190  24.491  0.00  0.00    -0.316 NA
ATOM     11  C   UNL     1      -3.202  -0.446  24.270  0.00  0.00    +0.056 C 
ATOM     15  C   UNL     1      -4.022  -1.655  23.808  0.00  0.00    +0.034 C 
ATOM     16  C   UNL     1      -1.705  -0.774  24.222  0.00  0.00    +0.034 C 
ATOM     18  C   UNL     1      -3.632  -2.909  24.591  0.00  0.00    +0.082 C 
ATOM     19  C   UNL     1      -1.406  -2.063  24.989  0.00  0.00    +0.082 C 
ATOM     26  H   UNL     1      -1.980  -4.022  25.038  0.00  0.00    +0.122 HD
ENDBRANCH   5  11
ENDBRANCH  14   5
ENDBRANCH   8  14
BRANCH  10  17
ATOM     17  C   UNL     1      -2.040   4.121  25.726  0.00  0.00    +0.090 C 
BRANCH  17  20
ATOM      3  O   UNL     1       0.834   1.951  25.583  0.00  0.00    -0.357 OA
ATOM      7  N   UNL     1      -0.050   2.778  26.265  0.00  0.00    -0.083 NA
ATOM     20  C   UNL     1      -0.920   3.193  25.339  0.00  0.00    +0.086 A 
ATOM     21  C   UNL     1      -0.638   2.665  24.068  0.00  0.00    +0.073 A 
ATOM     22  C   UNL     1       0.473   1.891  24.275  0.00  0.00    +0.163 A 
BRANCH  22  23
ATOM     23  C   UNL     1       1.305   1.053  23.403  0.00  0.00    +0.236 C 
BRANCH  23   4
ATOM      4  O   UNL     1       2.653   1.534  23.391  0.00  0.00    -0.375 OA
ATOM     24  C   UNL     1       3.495   0.682  22.633  0.00  0.00    +0.194 C 
ENDBRANCH  23   4
ENDBRANCH  22  23
ENDBRANCH  17  20
ENDBRANCH  10  17
TORSDOF 8
ENDMDL
MODEL 3
REMARK VINA RESULT:      -4.4     14.602     17.424
REMARK  Name = 86768995
REMARK  9 active torsions:
REMARK  status: ('A' for Active; 'I' for Inactive)
REMARK    1  A    between atoms: O_2  and  C_9
REMARK    2  A    between atoms: O_4  and  C_23
REMARK    3  A    between atoms: O_4  and  C_24
REMARK    4  A    between atoms: N_5  and  C_11
REMARK    5  A    between atoms: N_5  and  C_14
REMARK    6  A    between atoms: C_8  and  C_14
REMARK    7  A    between atoms: C_10  and  C_17
REMARK    8  A    between atoms: C_17  and  C_20
REMARK    9  A    between atoms: C_22  and  C_23
REMARK                            x       y       z     vdW  Elec       q    Type
REMARK                         _______ _______ _______ _____ _____    ______ ____
ROOT
ATOM      1  O   UNL     1      -0.216   1.009  23.343  0.00  0.00    -0.369 OA
ATOM      8  C   UNL     1       0.138  -0.374  23.218  0.00  0.00    +0.161 C 
ATOM      9  C   UNL     1       1.496  -0.542  22.523  0.00  0.00    +0.145 C 
ATOM     10  C   UNL     1       0.749   1.825  24.012  0.00  0.00    +0.125 C 
ATOM     12  C   UNL     1       2.578   0.341  23.139  0.00  0.00    +0.036 C 
ATOM     13  C   UNL     1       2.091   1.780  23.282  0.00  0.00    +0.034 C 
ENDROOT
BRANCH   9   2
ATOM      2  O   UNL     1       1.359  -0.170  21.150  0.00  0.00    -0.389 OA
ATOM     27  H   UNL     1       0.412  -0.203  20.929  0.00  0.00    +0.210 HD
ENDBRANCH   9   2
BRANCH   8  14
ATOM     14  C   UNL     1       0.067  -1.085  24.568  0.00  0.00    +0.115 C 
BRANCH  14   5
ATOM      5  N   UNL     1      -0.856  -0.405  25.464  0.00  0.00    -0.311 NA
ATOM     25  H   UNL     1      -0.506  -0.487  26.419  0.00  0.00    +0.122 HD
BRANCH   5  11
ATOM      6  N   UNL     1      -4.396  -2.022  23.744  0.00  0.00    -0.316 NA
ATOM     11  C   UNL     1      -2.194  -0.984  25.376  0.00  0.00    +0.056 C 
ATOM     15  C   UNL     1      -3.121  -0.064  24.575  0.00  0.00    +0.034 C 
ATOM     16  C   UNL     1      -2.150  -2.376  24.735  0.00  0.00    +0.034 C 
ATOM     18  C   UNL     1      -4.494  -0.707  24.382  0.00  0.00    +0.082 C 
ATOM     19  C   UNL     1      -3.562  -2.929  24.537  0.00  0.00    +0.082 C 
ATOM     26  H   UNL     1      -5.330  -2.420  23.649  0.00  0.00    +0.122 HD
ENDBRANCH   5  11
ENDBRANCH  14   5
ENDBRANCH   8  14
BRANCH  10  17
ATOM     17  C   UNL     1       0.200   3.247  24.049  0.00  0.00    +0.090 C 
BRANCH  17  20
ATOM      3  O   UNL     1      -2.576   3.150  26.346  0.00  0.00    -0.357 OA
ATOM      7  N   UNL     1      -1.232   2.982  26.032  0.00  0.00    -0.083 NA
ATOM     20  C   UNL     1      -1.135   3.311  24.740  0.00  0.00    +0.086 A 
ATOM     21  C   UNL     1      -2.372   3.691  24.192  0.00  0.00    +0.073 A 
ATOM     22  C   UNL     1      -3.244   3.572  25.242  0.00  0.00    +0.163 A 
BRANCH  22  23
ATOM     23  C   UNL     1      -4.685   3.803  25.397  0.00  0.00    +0.236 C 
BRANCH  23   4
ATOM      4  O   UNL     1      -5.421   2.661  24.947  0.00  0.00    -0.375 OA
ATOM     24  C   UNL     1      -6.088   2.024  26.023  0.00  0.00    +0.194 C 
ENDBRANCH  23   4
ENDBRANCH  22  23
ENDBRANCH  17  20
ENDBRANCH  10  17
TORSDOF 8
ENDMDL
MODEL 4
REMARK VINA RESULT:      -4.2     14.761     16.842
REMARK  Name = 86768995
REMARK  9 active torsions:
REMARK  status: ('A' for Active; 'I' for Inactive)
REMARK    1  A    between atoms: O_2  and  C_9
REMARK    2  A    between atoms: O_4  and  C_23
REMARK    3  A    between atoms: O_4  and  C_24
REMARK    4  A    between atoms: N_5  and  C_11
REMARK    5  A    between atoms: N_5  and  C_14
REMARK    6  A    between atoms: C_8  and  C_14
REMARK    7  A    between atoms: C_10  and  C_17
REMARK    8  A    between atoms: C_17  and  C_20
REMARK    9  A    between atoms: C_22  and  C_23
REMARK                            x       y       z     vdW  Elec       q    Type
REMARK                         _______ _______ _______ _____ _____    ______ ____
ROOT
ATOM      1  O   UNL     1      -2.841   2.150  25.527  0.00  0.00    -0.369 OA
ATOM      8  C   UNL     1      -4.244   1.865  25.454  0.00  0.00    +0.161 C 
ATOM      9  C   UNL     1      -4.989   2.933  24.642  0.00  0.00    +0.145 C 
ATOM     10  C   UNL     1      -2.187   2.312  24.267  0.00  0.00    +0.125 C 
ATOM     12  C   UNL     1      -4.322   3.212  23.297  0.00  0.00    +0.036 C 
ATOM     13  C   UNL     1      -2.824   3.450  23.470  0.00  0.00    +0.034 C 
ENDROOT
BRANCH   9   2
ATOM      2  O   UNL     1      -4.997   4.153  25.386  0.00  0.00    -0.389 OA
ATOM     27  H   UNL     1      -4.530   3.991  26.224  0.00  0.00    +0.210 HD
ENDBRANCH   9   2
BRANCH   8  14
ATOM     14  C   UNL     1      -4.491   0.447  24.943  0.00  0.00    +0.115 C 
BRANCH  14   5
ATOM      5  N   UNL     1      -4.348  -0.524  26.016  0.00  0.00    -0.311 NA
ATOM     25  H   UNL     1      -4.166  -0.025  26.889  0.00  0.00    +0.122 HD
BRANCH   5  11
ATOM      6  N   UNL     1      -0.868  -2.158  24.193  0.00  0.00    -0.316 NA
ATOM     11  C   UNL     1      -3.254  -1.453  25.741  0.00  0.00    +0.056 C 
ATOM     15  C   UNL     1      -3.338  -1.961  24.298  0.00  0.00    +0.034 C 
ATOM     16  C   UNL     1      -1.894  -0.790  25.989  0.00  0.00    +0.034 C 
ATOM     18  C   UNL     1      -2.139  -2.848  23.963  0.00  0.00    +0.082 C 
ATOM     19  C   UNL     1      -0.752  -1.723  25.587  0.00  0.00    +0.082 C 
ATOM     26  H   UNL     1      -0.098  -2.789  23.972  0.00  0.00    +0.122 HD
ENDBRANCH   5  11
ENDBRANCH  14   5
ENDBRANCH   8  14
BRANCH  10  17
ATOM     17  C   UNL     1      -0.717   2.604  24.546  0.00  0.00    +0.090 C 
BRANCH  17  20
ATOM      3  O   UNL     1       0.752  -0.132  22.718  0.00  0.00    -0.357 OA
ATOM      7  N   UNL     1      -0.340   0.579  23.200  0.00  0.00    -0.083 NA
ATOM     20  C   UNL     1       0.187   1.605  23.877  0.00  0.00    +0.086 A 
ATOM     21  C   UNL     1       1.592   1.592  23.856  0.00  0.00    +0.073 A 
ATOM     22  C   UNL     1       1.897   0.480  23.115  0.00  0.00    +0.163 A 
BRANCH  22  23
ATOM     23  C   UNL     1       3.156  -0.143  22.689  0.00  0.00    +0.236 C 
BRANCH  23   4
ATOM      4  O   UNL     1       4.251   0.752  22.907  0.00  0.00    -0.375 OA
ATOM     24  C   UNL     1       5.355   0.079  23.488  0.00  0.00    +0.194 C 
ENDBRANCH  23   4
ENDBRANCH  22  23
ENDBRANCH  17  20
ENDBRANCH  10  17
TORSDOF 8
ENDMDL
MODEL 5
REMARK VINA RESULT:      -4.1     15.642     17.013
REMARK  Name = 86768995
REMARK  9 active torsions:
REMARK  status: ('A' for Active; 'I' for Inactive)
REMARK    1  A    between atoms: O_2  and  C_9
REMARK    2  A    between atoms: O_4  and  C_23
REMARK    3  A    between atoms: O_4  and  C_24
REMARK    4  A    between atoms: N_5  and  C_11
REMARK    5  A    between atoms: N_5  and  C_14
REMARK    6  A    between atoms: C_8  and  C_14
REMARK    7  A    between atoms: C_10  and  C_17
REMARK    8  A    between atoms: C_17  and  C_20
REMARK    9  A    between atoms: C_22  and  C_23
REMARK                            x       y       z     vdW  Elec       q    Type
REMARK                         _______ _______ _______ _____ _____    ______ ____
ROOT
ATOM      1  O   UNL     1      -3.486   0.156  23.650  0.00  0.00    -0.369 OA
ATOM      8  C   UNL     1      -4.363  -0.434  24.619  0.00  0.00    +0.161 C 
ATOM      9  C   UNL     1      -3.685  -1.602  25.347  0.00  0.00    +0.145 C 
ATOM     10  C   UNL     1      -2.226   0.598  24.161  0.00  0.00    +0.125 C 
ATOM     12  C   UNL     1      -2.302  -1.233  25.878  0.00  0.00    +0.036 C 
ATOM     13  C   UNL     1      -1.462  -0.565  24.793  0.00  0.00    +0.034 C 
ENDROOT
BRANCH   9   2
ATOM      2  O   UNL     1      -3.525  -2.686  24.429  0.00  0.00    -0.389 OA
ATOM     27  H   UNL     1      -2.842  -3.279  24.790  0.00  0.00    +0.210 HD
ENDBRANCH   9   2
BRANCH   8  14
ATOM     14  C   UNL     1      -4.919   0.621  25.573  0.00  0.00    +0.115 C 
BRANCH  14   5
ATOM      5  N   UNL     1      -5.587   1.684  24.838  0.00  0.00    -0.311 NA
ATOM     25  H   UNL     1      -5.620   1.430  23.849  0.00  0.00    +0.122 HD
BRANCH   5  11
ATOM      6  N   UNL     1      -2.376   4.472  24.997  0.00  0.00    -0.316 NA
ATOM     11  C   UNL     1      -4.884   2.955  24.998  0.00  0.00    +0.056 C 
ATOM     15  C   UNL     1      -3.873   2.863  26.146  0.00  0.00    +0.034 C 
ATOM     16  C   UNL     1      -4.173   3.357  23.700  0.00  0.00    +0.034 C 
ATOM     18  C   UNL     1      -3.053   4.149  26.254  0.00  0.00    +0.082 C 
ATOM     19  C   UNL     1      -3.342   4.624  23.905  0.00  0.00    +0.082 C 
ATOM     26  H   UNL     1      -1.856   5.341  25.109  0.00  0.00    +0.122 HD
ENDBRANCH   5  11
ENDBRANCH  14   5
ENDBRANCH   8  14
BRANCH  10  17
ATOM     17  C   UNL     1      -1.443   1.191  22.996  0.00  0.00    +0.090 C 
BRANCH  17  20
ATOM      3  O   UNL     1       2.055   1.343  23.853  0.00  0.00    -0.357 OA
ATOM      7  N   UNL     1       0.750   1.816  23.923  0.00  0.00    -0.083 NA
ATOM     20  C   UNL     1       0.039   0.982  23.157  0.00  0.00    +0.086 A 
ATOM     21  C   UNL     1       0.834  -0.025  22.585  0.00  0.00    +0.073 A 
ATOM     22  C   UNL     1       2.093   0.247  23.054  0.00  0.00    +0.163 A 
BRANCH  22  23
ATOM     23  C   UNL     1       3.405  -0.385  22.869  0.00  0.00    +0.236 C 
BRANCH  23   4
ATOM      4  O   UNL     1       4.443   0.596  22.944  0.00  0.00    -0.375 OA
ATOM     24  C   UNL     1       5.495   0.166  23.791  0.00  0.00    +0.194 C 
ENDBRANCH  23   4
ENDBRANCH  22  23
ENDBRANCH  17  20
ENDBRANCH  10  17
TORSDOF 8
ENDMDL
MODEL 6
REMARK VINA RESULT:      -3.8     14.465     17.184
REMARK  Name = 86768995
REMARK  9 active torsions:
REMARK  status: ('A' for Active; 'I' for Inactive)
REMARK    1  A    between atoms: O_2  and  C_9
REMARK    2  A    between atoms: O_4  and  C_23
REMARK    3  A    between atoms: O_4  and  C_24
REMARK    4  A    between atoms: N_5  and  C_11
REMARK    5  A    between atoms: N_5  and  C_14
REMARK    6  A    between atoms: C_8  and  C_14
REMARK    7  A    between atoms: C_10  and  C_17
REMARK    8  A    between atoms: C_17  and  C_20
REMARK    9  A    between atoms: C_22  and  C_23
REMARK                            x       y       z     vdW  Elec       q    Type
REMARK                         _______ _______ _______ _____ _____    ______ ____
ROOT
ATOM      1  O   UNL     1      -2.495   2.221  25.860  0.00  0.00    -0.369 OA
ATOM      8  C   UNL     1      -3.818   2.675  25.549  0.00  0.00    +0.161 C 
ATOM      9  C   UNL     1      -3.879   4.207  25.470  0.00  0.00    +0.145 C 
ATOM     10  C   UNL     1      -1.471   2.679  24.974  0.00  0.00    +0.125 C 
ATOM     12  C   UNL     1      -2.779   4.787  24.585  0.00  0.00    +0.036 C 
ATOM     13  C   UNL     1      -1.417   4.206  24.955  0.00  0.00    +0.034 C 
ENDROOT
BRANCH   9   2
ATOM      2  O   UNL     1      -3.709   4.742  26.784  0.00  0.00    -0.389 OA
ATOM     27  H   UNL     1      -3.697   3.995  27.408  0.00  0.00    +0.210 HD
ENDBRANCH   9   2
BRANCH   8  14
ATOM     14  C   UNL     1      -4.353   1.992  24.293  0.00  0.00    +0.115 C 
BRANCH  14   5
ATOM      5  N   UNL     1      -4.968   0.715  24.619  0.00  0.00    -0.311 NA
ATOM     25  H   UNL     1      -5.303   0.747  25.583  0.00  0.00    +0.122 HD
BRANCH   5  11
ATOM      6  N   UNL     1      -3.238  -3.151  25.026  0.00  0.00    -0.316 NA
ATOM     11  C   UNL     1      -4.016  -0.382  24.463  0.00  0.00    +0.056 C 
ATOM     15  C   UNL     1      -3.478  -0.817  25.830  0.00  0.00    +0.034 C 
ATOM     16  C   UNL     1      -4.662  -1.574  23.747  0.00  0.00    +0.034 C 
ATOM     18  C   UNL     1      -2.564  -2.035  25.694  0.00  0.00    +0.082 C 
ATOM     19  C   UNL     1      -3.701  -2.762  23.692  0.00  0.00    +0.082 C 
ATOM     26  H   UNL     1      -2.590  -3.933  24.942  0.00  0.00    +0.122 HD
ENDBRANCH   5  11
ENDBRANCH  14   5
ENDBRANCH   8  14
BRANCH  10  17
ATOM     17  C   UNL     1      -0.149   2.097  25.460  0.00  0.00    +0.090 C 
BRANCH  17  20
ATOM      3  O   UNL     1       0.747  -0.390  23.010  0.00  0.00    -0.357 OA
ATOM      7  N   UNL     1      -0.117   0.150  23.954  0.00  0.00    -0.083 NA
ATOM     20  C   UNL     1       0.505   1.244  24.407  0.00  0.00    +0.086 A 
ATOM     21  C   UNL     1       1.752   1.441  23.789  0.00  0.00    +0.073 A 
ATOM     22  C   UNL     1       1.856   0.387  22.919  0.00  0.00    +0.163 A 
BRANCH  22  23
ATOM     23  C   UNL     1       2.881  -0.041  21.960  0.00  0.00    +0.236 C 
BRANCH  23   4
ATOM      4  O   UNL     1       4.067   0.743  22.118  0.00  0.00    -0.375 OA
ATOM     24  C   UNL     1       4.912   0.198  23.118  0.00  0.00    +0.194 C 
ENDBRANCH  23   4
ENDBRANCH  22  23
ENDBRANCH  17  20
ENDBRANCH  10  17
TORSDOF 8
ENDMDL
MODEL 7
REMARK VINA RESULT:      -3.8     15.569     17.879
REMARK  Name = 86768995
REMARK  9 active torsions:
REMARK  status: ('A' for Active; 'I' for Inactive)
REMARK    1  A    between atoms: O_2  and  C_9
REMARK    2  A    between atoms: O_4  and  C_23
REMARK    3  A    between atoms: O_4  and  C_24
REMARK    4  A    between atoms: N_5  and  C_11
REMARK    5  A    between atoms: N_5  and  C_14
REMARK    6  A    between atoms: C_8  and  C_14
REMARK    7  A    between atoms: C_10  and  C_17
REMARK    8  A    between atoms: C_17  and  C_20
REMARK    9  A    between atoms: C_22  and  C_23
REMARK                            x       y       z     vdW  Elec       q    Type
REMARK                         _______ _______ _______ _____ _____    ______ ____
ROOT
ATOM      1  O   UNL     1      -1.882   0.153  24.326  0.00  0.00    -0.369 OA
ATOM      8  C   UNL     1      -0.520  -0.240  24.537  0.00  0.00    +0.161 C 
ATOM      9  C   UNL     1      -0.427  -1.443  25.485  0.00  0.00    +0.145 C 
ATOM     10  C   UNL     1      -2.747  -0.880  23.847  0.00  0.00    +0.125 C 
ATOM     12  C   UNL     1      -1.364  -2.577  25.079  0.00  0.00    +0.036 C 
ATOM     13  C   UNL     1      -2.775  -2.054  24.825  0.00  0.00    +0.034 C 
ENDROOT
BRANCH   9   2
ATOM      2  O   UNL     1      -0.795  -1.022  26.800  0.00  0.00    -0.389 OA
ATOM     27  H   UNL     1      -1.706  -1.326  26.962  0.00  0.00    +0.210 HD
ENDBRANCH   9   2
BRANCH   8  14
ATOM     14  C   UNL     1       0.198  -0.470  23.209  0.00  0.00    +0.115 C 
BRANCH  14   5
ATOM      5  N   UNL     1       1.169   0.582  22.954  0.00  0.00    -0.311 NA
ATOM     25  H   UNL     1       0.898   1.082  22.106  0.00  0.00    +0.122 HD
BRANCH   5  11
ATOM      6  N   UNL     1       5.173  -0.499  23.903  0.00  0.00    -0.316 NA
ATOM     11  C   UNL     1       2.512   0.030  22.795  0.00  0.00    +0.056 C 
ATOM     15  C   UNL     1       3.563   1.133  22.957  0.00  0.00    +0.034 C 
ATOM     16  C   UNL     1       2.767  -1.094  23.806  0.00  0.00    +0.034 C 
ATOM     18  C   UNL     1       4.976   0.551  22.902  0.00  0.00    +0.082 C 
ATOM     19  C   UNL     1       4.211  -1.589  23.717  0.00  0.00    +0.082 C 
ATOM     26  H   UNL     1       6.119  -0.869  23.821  0.00  0.00    +0.122 HD
ENDBRANCH   5  11
ENDBRANCH  14   5
ENDBRANCH   8  14
BRANCH  10  17
ATOM     17  C   UNL     1      -4.136  -0.277  23.684  0.00  0.00    +0.090 C 
BRANCH  17  20
ATOM      3  O   UNL     1      -4.970   2.560  25.745  0.00  0.00    -0.357 OA
ATOM      7  N   UNL     1      -5.129   1.238  25.351  0.00  0.00    -0.083 NA
ATOM     20  C   UNL     1      -4.246   1.062  24.362  0.00  0.00    +0.086 A 
ATOM     21  C   UNL     1      -3.510   2.228  24.093  0.00  0.00    +0.073 A 
ATOM     22  C   UNL     1      -4.003   3.140  24.989  0.00  0.00    +0.163 A 
BRANCH  22  23
ATOM     23  C   UNL     1      -3.703   4.548  25.275  0.00  0.00    +0.236 C 
BRANCH  23   4
ATOM      4  O   UNL     1      -2.465   4.657  25.985  0.00  0.00    -0.375 OA
ATOM     24  C   UNL     1      -1.404   5.013  25.115  0.00  0.00    +0.194 C 
ENDBRANCH  23   4
ENDBRANCH  22  23
ENDBRANCH  17  20
ENDBRANCH  10  17
TORSDOF 8
ENDMDL
MODEL 8
REMARK VINA RESULT:      -3.7     15.987     18.369
REMARK  Name = 86768995
REMARK  9 active torsions:
REMARK  status: ('A' for Active; 'I' for Inactive)
REMARK    1  A    between atoms: O_2  and  C_9
REMARK    2  A    between atoms: O_4  and  C_23
REMARK    3  A    between atoms: O_4  and  C_24
REMARK    4  A    between atoms: N_5  and  C_11
REMARK    5  A    between atoms: N_5  and  C_14
REMARK    6  A    between atoms: C_8  and  C_14
REMARK    7  A    between atoms: C_10  and  C_17
REMARK    8  A    between atoms: C_17  and  C_20
REMARK    9  A    between atoms: C_22  and  C_23
REMARK                            x       y       z     vdW  Elec       q    Type
REMARK                         _______ _______ _______ _____ _____    ______ ____
ROOT
ATOM      1  O   UNL     1       0.318   1.192  24.245  0.00  0.00    -0.369 OA
ATOM      8  C   UNL     1       0.586  -0.206  24.068  0.00  0.00    +0.161 C 
ATOM      9  C   UNL     1      -0.579  -1.065  24.576  0.00  0.00    +0.145 C 
ATOM     10  C   UNL     1      -0.895   1.658  23.648  0.00  0.00    +0.125 C 
ATOM     12  C   UNL     1      -1.927  -0.600  24.032  0.00  0.00    +0.036 C 
ATOM     13  C   UNL     1      -2.098   0.905  24.215  0.00  0.00    +0.034 C 
ENDROOT
BRANCH   9   2
ATOM      2  O   UNL     1      -0.630  -0.976  26.002  0.00  0.00    -0.389 OA
ATOM     27  H   UNL     1      -1.490  -1.329  26.288  0.00  0.00    +0.210 HD
ENDBRANCH   9   2
BRANCH   8  14
ATOM     14  C   UNL     1       0.969  -0.514  22.623  0.00  0.00    +0.115 C 
BRANCH  14   5
ATOM      5  N   UNL     1       2.004   0.395  22.155  0.00  0.00    -0.311 NA
ATOM     25  H   UNL     1       1.912   0.506  21.144  0.00  0.00    +0.122 HD
BRANCH   5  11
ATOM      6  N   UNL     1       5.436  -0.611  24.459  0.00  0.00    -0.316 NA
ATOM     11  C   UNL     1       3.335  -0.113  22.478  0.00  0.00    +0.056 C 
ATOM     15  C   UNL     1       4.212   1.011  23.037  0.00  0.00    +0.034 C 
ATOM     16  C   UNL     1       3.253  -1.268  23.483  0.00  0.00    +0.034 C 
ATOM     18  C   UNL     1       5.572   0.471  23.481  0.00  0.00    +0.082 C 
ATOM     19  C   UNL     1       4.650  -1.719  23.909  0.00  0.00    +0.082 C 
ATOM     26  H   UNL     1       6.363  -0.951  24.715  0.00  0.00    +0.122 HD
ENDBRANCH   5  11
ENDBRANCH  14   5
ENDBRANCH   8  14
BRANCH  10  17
ATOM     17  C   UNL     1      -1.004   3.150  23.937  0.00  0.00    +0.090 C 
BRANCH  17  20
ATOM      3  O   UNL     1      -3.436   4.123  26.413  0.00  0.00    -0.357 OA
ATOM      7  N   UNL     1      -2.129   3.925  25.984  0.00  0.00    -0.083 NA
ATOM     20  C   UNL     1      -2.241   3.476  24.730  0.00  0.00    +0.086 A 
ATOM     21  C   UNL     1      -3.581   3.372  24.319  0.00  0.00    +0.073 A 
ATOM     22  C   UNL     1      -4.292   3.790  25.413  0.00  0.00    +0.163 A 
BRANCH  22  23
ATOM     23  C   UNL     1      -5.724   3.941  25.698  0.00  0.00    +0.236 C 
BRANCH  23   4
ATOM      4  O   UNL     1      -6.216   2.788  26.388  0.00  0.00    -0.375 OA
ATOM     24  C   UNL     1      -6.140   1.631  25.572  0.00  0.00    +0.194 C 
ENDBRANCH  23   4
ENDBRANCH  22  23
ENDBRANCH  17  20
ENDBRANCH  10  17
TORSDOF 8
ENDMDL
MODEL 9
REMARK VINA RESULT:      -3.3     14.620     17.715
REMARK  Name = 86768995
REMARK  9 active torsions:
REMARK  status: ('A' for Active; 'I' for Inactive)
REMARK    1  A    between atoms: O_2  and  C_9
REMARK    2  A    between atoms: O_4  and  C_23
REMARK    3  A    between atoms: O_4  and  C_24
REMARK    4  A    between atoms: N_5  and  C_11
REMARK    5  A    between atoms: N_5  and  C_14
REMARK    6  A    between atoms: C_8  and  C_14
REMARK    7  A    between atoms: C_10  and  C_17
REMARK    8  A    between atoms: C_17  and  C_20
REMARK    9  A    between atoms: C_22  and  C_23
REMARK                            x       y       z     vdW  Elec       q    Type
REMARK                         _______ _______ _______ _____ _____    ______ ____
ROOT
ATOM      1  O   UNL     1      -3.686  -0.751  25.907  0.00  0.00    -0.369 OA
ATOM      8  C   UNL     1      -2.552  -1.628  25.924  0.00  0.00    +0.161 C 
ATOM      9  C   UNL     1      -2.783  -2.854  25.030  0.00  0.00    +0.145 C 
ATOM     10  C   UNL     1      -4.092  -0.307  24.610  0.00  0.00    +0.125 C 
ATOM     12  C   UNL     1      -3.276  -2.474  23.636  0.00  0.00    +0.036 C 
ATOM     13  C   UNL     1      -4.446  -1.498  23.720  0.00  0.00    +0.034 C 
ENDROOT
BRANCH   9   2
ATOM      2  O   UNL     1      -3.778  -3.683  25.633  0.00  0.00    -0.389 OA
ATOM     27  H   UNL     1      -3.887  -4.470  25.070  0.00  0.00    +0.210 HD
ENDBRANCH   9   2
BRANCH   8  14
ATOM     14  C   UNL     1      -1.268  -0.875  25.584  0.00  0.00    +0.115 C 
BRANCH  14   5
ATOM      5  N   UNL     1      -0.681  -1.379  24.352  0.00  0.00    -0.311 NA
ATOM     25  H   UNL     1      -0.026  -2.128  24.582  0.00  0.00    +0.122 HD
BRANCH   5  11
ATOM      6  N   UNL     1       2.240   1.583  23.460  0.00  0.00    -0.316 NA
ATOM     11  C   UNL     1       0.016  -0.318  23.630  0.00  0.00    +0.056 C 
ATOM     15  C   UNL     1       0.065   0.958  24.476  0.00  0.00    +0.034 C 
ATOM     16  C   UNL     1       1.435  -0.754  23.249  0.00  0.00    +0.034 C 
ATOM     18  C   UNL     1       0.886   2.043  23.778  0.00  0.00    +0.082 C 
ATOM     19  C   UNL     1       2.203   0.399  22.599  0.00  0.00    +0.082 C 
ATOM     26  H   UNL     1       2.745   2.329  22.984  0.00  0.00    +0.122 HD
ENDBRANCH   5  11
ENDBRANCH  14   5
ENDBRANCH   8  14
BRANCH  10  17
ATOM     17  C   UNL     1      -5.296   0.608  24.794  0.00  0.00    +0.090 C 
BRANCH  17  20
ATOM      3  O   UNL     1      -5.081   4.018  25.939  0.00  0.00    -0.357 OA
ATOM      7  N   UNL     1      -5.782   2.843  25.703  0.00  0.00    -0.083 NA
ATOM     20  C   UNL     1      -4.883   2.002  25.179  0.00  0.00    +0.086 A 
ATOM     21  C   UNL     1      -3.611   2.588  25.064  0.00  0.00    +0.073 A 
ATOM     22  C   UNL     1      -3.789   3.855  25.555  0.00  0.00    +0.163 A 
BRANCH  22  23
ATOM     23  C   UNL     1      -2.899   5.008  25.737  0.00  0.00    +0.236 C 
BRANCH  23   4
ATOM      4  O   UNL     1      -1.532   4.585  25.739  0.00  0.00    -0.375 OA
ATOM     24  C   UNL     1      -0.796   5.226  24.711  0.00  0.00    +0.194 C 
ENDBRANCH  23   4
ENDBRANCH  22  23
ENDBRANCH  17  20
ENDBRANCH  10  17
TORSDOF 8
ENDMDL
MODEL 10
REMARK VINA RESULT:      -2.9      1.888      2.172
REMARK  Name = 86768995
REMARK  9 active torsions:
REMARK  status: ('A' for Active; 'I' for Inactive)
REMARK    1  A    between atoms: O_2  and  C_9
REMARK    2  A    between atoms: O_4  and  C_23
REMARK    3  A    between atoms: O_4  and  C_24
REMARK    4  A    between atoms: N_5  and  C_11
REMARK    5  A    between atoms: N_5  and  C_14
REMARK    6  A    between atoms: C_8  and  C_14
REMARK    7  A    between atoms: C_10  and  C_17
REMARK    8  A    between atoms: C_17  and  C_20
REMARK    9  A    between atoms: C_22  and  C_23
REMARK                            x       y       z     vdW  Elec       q    Type
REMARK                         _______ _______ _______ _____ _____    ______ ____
ROOT
ATOM      1  O   UNL     1      -5.453  -9.061  11.169  0.00  0.00    -0.369 OA
ATOM      8  C   UNL     1      -6.716  -8.995  11.843  0.00  0.00    +0.161 C 
ATOM      9  C   UNL     1      -7.862  -9.438  10.924  0.00  0.00    +0.145 C 
ATOM     10  C   UNL     1      -5.129 -10.334  10.607  0.00  0.00    +0.125 C 
ATOM     12  C   UNL     1      -7.574 -10.769  10.234  0.00  0.00    +0.036 C 
ATOM     13  C   UNL     1      -6.189 -10.762   9.593  0.00  0.00    +0.034 C 
ENDROOT
BRANCH   9   2
ATOM      2  O   UNL     1      -8.045  -8.450   9.907  0.00  0.00    -0.389 OA
ATOM     27  H   UNL     1      -7.181  -8.299   9.485  0.00  0.00    +0.210 HD
ENDBRANCH   9   2
BRANCH   8  14
ATOM     14  C   UNL     1      -6.677  -9.766  13.161  0.00  0.00    +0.115 C 
BRANCH  14   5
ATOM      5  N   UNL     1      -7.860  -9.488  13.959  0.00  0.00    -0.311 NA
ATOM     25  H   UNL     1      -7.979  -8.477  14.032  0.00  0.00    +0.122 HD
BRANCH   5  11
ATOM      6  N   UNL     1      -7.357  -9.712  18.179  0.00  0.00    -0.316 NA
ATOM     11  C   UNL     1      -7.740 -10.068  15.295  0.00  0.00    +0.056 C 
ATOM     15  C   UNL     1      -6.374  -9.730  15.901  0.00  0.00    +0.034 C 
ATOM     16  C   UNL     1      -8.863  -9.571  16.213  0.00  0.00    +0.034 C 
ATOM     18  C   UNL     1      -6.276 -10.237  17.340  0.00  0.00    +0.082 C 
ATOM     19  C   UNL     1      -8.667 -10.084  17.640  0.00  0.00    +0.082 C 
ATOM     26  H   UNL     1      -7.262 -10.086  19.122  0.00  0.00    +0.122 HD
ENDBRANCH   5  11
ENDBRANCH  14   5
ENDBRANCH   8  14
BRANCH  10  17
ATOM     17  C   UNL     1      -3.763 -10.208   9.942  0.00  0.00    +0.090 C 
BRANCH  17  20
ATOM      3  O   UNL     1      -1.566 -10.048  12.794  0.00  0.00    -0.357 OA
ATOM      7  N   UNL     1      -2.682 -10.539  12.127  0.00  0.00    -0.083 NA
ATOM     20  C   UNL     1      -2.680  -9.916  10.944  0.00  0.00    +0.086 A 
ATOM     21  C   UNL     1      -1.598  -9.030  10.811  0.00  0.00    +0.073 A 
ATOM     22  C   UNL     1      -0.928  -9.150  12.000  0.00  0.00    +0.163 A 
BRANCH  22  23
ATOM     23  C   UNL     1       0.281  -8.529  12.553  0.00  0.00    +0.236 C 
BRANCH  23   4
ATOM      4  O   UNL     1       0.220  -7.107  12.405  0.00  0.00    -0.375 OA
ATOM     24  C   UNL     1       1.515  -6.552  12.249  0.00  0.00    +0.194 C 
ENDBRANCH  23   4
ENDBRANCH  22  23
ENDBRANCH  17  20
ENDBRANCH  10  17
TORSDOF 8
ENDMDL
