MODEL 1
REMARK VINA RESULT:      -1.6      0.000      0.000
REMARK  Name = 38028485
REMARK  11 active torsions:
REMARK  status: ('A' for Active; 'I' for Inactive)
REMARK    1  A    between atoms: N_4  and  C_15
REMARK    2  A    between atoms: N_5  and  C_22
REMARK    3  A    between atoms: N_6  and  C_24
REMARK    4  A    between atoms: C_8  and  C_12
REMARK    5  A    between atoms: C_9  and  C_15
REMARK    6  A    between atoms: C_11  and  C_16
REMARK    7  A    between atoms: C_12  and  C_17
REMARK    8  A    between atoms: C_12  and  C_18
REMARK    9  A    between atoms: C_13  and  C_19
REMARK   10  A    between atoms: C_16  and  C_20
REMARK   11  A    between atoms: C_22  and  C_23
REMARK                            x       y       z     vdW  Elec       q    Type
REMARK                         _______ _______ _______ _____ _____    ______ ____
ROOT
ATOM      8  C   UNL     1      -3.152   2.165  24.373  0.00  0.00    +0.000 C 
ATOM      9  C   UNL     1      -2.331   2.612  23.138  0.00  0.00    +0.032 C 
ATOM     10  C   UNL     1      -3.576   3.385  25.206  0.00  0.00    +0.012 C 
ATOM     11  C   UNL     1      -2.366   4.205  25.695  0.00  0.00    +0.023 C 
ATOM     13  C   UNL     1      -1.371   4.457  24.580  0.00  0.00    -0.073 C 
ATOM     14  C   UNL     1      -1.378   3.745  23.440  0.00  0.00    -0.022 C 
ATOM     19  C   UNL     1      -0.393   5.580  24.789  0.00  0.00    +0.039 C 
ENDROOT
BRANCH   8  12
ATOM     12  C   UNL     1      -4.390   1.358  23.971  0.00  0.00    -0.013 C 
ATOM     17  C   UNL     1      -5.343   1.220  25.153  0.00  0.00    +0.007 C 
ATOM     18  C   UNL     1      -3.983  -0.015  23.443  0.00  0.00    +0.007 C 
ENDBRANCH   8  12
BRANCH   9  15
ATOM     15  C   UNL     1      -1.552   1.435  22.538  0.00  0.00    +0.113 C 
BRANCH  15   4
ATOM      3  O   UNL     1       0.380  -0.642  22.933  0.00  0.00    -0.253 OA
ATOM      4  N   UNL     1      -0.147   1.603  22.737  0.00  0.00    -0.299 N 
ATOM      6  N   UNL     1       2.052   0.998  23.095  0.00  0.00    -0.269 N 
ATOM     21  C   UNL     1       0.746   0.531  22.926  0.00  0.00    +0.304 C 
ATOM     34  H   UNL     1       0.243   2.538  22.675  0.00  0.00    +0.150 HD
ATOM     36  H   UNL     1       2.184   2.006  23.065  0.00  0.00    +0.156 HD
BRANCH   6  24
ATOM      1  F   UNL     1       6.836   0.681  23.369  0.00  0.00    -0.205 F 
ATOM     24  C   UNL     1       3.225   0.236  23.309  0.00  0.00    +0.037 A 
ATOM     27  C   UNL     1       4.476   0.846  23.232  0.00  0.00    +0.061 A 
ATOM     28  C   UNL     1       3.130  -1.126  23.599  0.00  0.00    +0.023 A 
ATOM     30  C   UNL     1       5.633   0.096  23.444  0.00  0.00    +0.125 A 
ATOM     31  C   UNL     1       4.286  -1.876  23.812  0.00  0.00    +0.005 A 
ATOM     33  C   UNL     1       5.537  -1.265  23.734  0.00  0.00    +0.038 A 
ENDBRANCH   6  24
ENDBRANCH  15   4
ENDBRANCH   9  15
BRANCH  11  16
ATOM     16  C   UNL     1      -1.690   3.530  26.892  0.00  0.00    +0.103 C 
BRANCH  16  20
ATOM      2  O   UNL     1       0.476   2.689  26.221  0.00  0.00    -0.276 OA
ATOM      5  N   UNL     1      -1.319   1.223  26.387  0.00  0.00    -0.311 N 
ATOM     20  C   UNL     1      -0.706   2.465  26.465  0.00  0.00    +0.214 C 
ATOM     35  H   UNL     1      -2.307   1.137  26.612  0.00  0.00    +0.149 HD
BRANCH   5  22
ATOM     22  C   UNL     1      -0.620   0.019  26.001  0.00  0.00    +0.141 C 
BRANCH  22  23
ATOM      7  N   UNL     1      -2.013  -2.998  24.198  0.00  0.00    -0.263 NA
ATOM     23  C   UNL     1      -1.564  -1.073  25.590  0.00  0.00    -0.012 A 
ATOM     25  C   UNL     1      -2.820  -1.192  26.174  0.00  0.00    +0.008 A 
ATOM     26  C   UNL     1      -1.212  -1.993  24.615  0.00  0.00    +0.115 A 
ATOM     29  C   UNL     1      -3.673  -2.214  25.772  0.00  0.00    +0.020 A 
ATOM     32  C   UNL     1      -3.227  -3.082  24.789  0.00  0.00    +0.111 A 
ENDBRANCH  22  23
ENDBRANCH   5  22
ENDBRANCH  16  20
ENDBRANCH  11  16
TORSDOF 8
ENDMDL
MODEL 2
REMARK VINA RESULT:      -1.3      1.937      4.335
REMARK  Name = 38028485
REMARK  11 active torsions:
REMARK  status: ('A' for Active; 'I' for Inactive)
REMARK    1  A    between atoms: N_4  and  C_15
REMARK    2  A    between atoms: N_5  and  C_22
REMARK    3  A    between atoms: N_6  and  C_24
REMARK    4  A    between atoms: C_8  and  C_12
REMARK    5  A    between atoms: C_9  and  C_15
REMARK    6  A    between atoms: C_11  and  C_16
REMARK    7  A    between atoms: C_12  and  C_17
REMARK    8  A    between atoms: C_12  and  C_18
REMARK    9  A    between atoms: C_13  and  C_19
REMARK   10  A    between atoms: C_16  and  C_20
REMARK   11  A    between atoms: C_22  and  C_23
REMARK                            x       y       z     vdW  Elec       q    Type
REMARK                         _______ _______ _______ _____ _____    ______ ____
ROOT
ATOM      8  C   UNL     1      -4.327  -0.410  24.837  0.00  0.00    +0.000 C 
ATOM      9  C   UNL     1      -3.095   0.162  24.094  0.00  0.00    +0.032 C 
ATOM     10  C   UNL     1      -5.627   0.089  24.185  0.00  0.00    +0.012 C 
ATOM     11  C   UNL     1      -5.726   1.626  24.187  0.00  0.00    +0.023 C 
ATOM     13  C   UNL     1      -4.440   2.274  23.716  0.00  0.00    -0.073 C 
ATOM     14  C   UNL     1      -3.277   1.601  23.669  0.00  0.00    -0.022 C 
ATOM     19  C   UNL     1      -4.530   3.703  23.258  0.00  0.00    +0.039 C 
ENDROOT
BRANCH   8  12
ATOM     12  C   UNL     1      -4.316  -1.942  24.862  0.00  0.00    -0.013 C 
ATOM     17  C   UNL     1      -3.215  -2.451  25.786  0.00  0.00    +0.007 C 
ATOM     18  C   UNL     1      -4.137  -2.496  23.452  0.00  0.00    +0.007 C 
ENDBRANCH   8  12
BRANCH   9  15
ATOM     15  C   UNL     1      -1.827   0.038  24.948  0.00  0.00    +0.113 C 
BRANCH  15   4
ATOM      3  O   UNL     1       0.880   0.949  25.157  0.00  0.00    -0.253 OA
ATOM      4  N   UNL     1      -0.719  -0.389  24.153  0.00  0.00    -0.299 N 
ATOM      6  N   UNL     1       1.460  -0.495  23.399  0.00  0.00    -0.269 N 
ATOM     21  C   UNL     1       0.589   0.104  24.313  0.00  0.00    +0.304 C 
ATOM     34  H   UNL     1      -0.865  -1.135  23.481  0.00  0.00    +0.150 HD
ATOM     36  H   UNL     1       1.055  -1.177  22.762  0.00  0.00    +0.156 HD
BRANCH   6  24
ATOM      1  F   UNL     1       6.019  -1.793  24.165  0.00  0.00    -0.205 F 
ATOM     24  C   UNL     1       2.847  -0.266  23.244  0.00  0.00    +0.037 A 
ATOM     27  C   UNL     1       3.767  -1.160  23.792  0.00  0.00    +0.061 A 
ATOM     28  C   UNL     1       3.296   0.853  22.542  0.00  0.00    +0.023 A 
ATOM     30  C   UNL     1       5.134  -0.935  23.638  0.00  0.00    +0.125 A 
ATOM     31  C   UNL     1       4.664   1.078  22.388  0.00  0.00    +0.005 A 
ATOM     33  C   UNL     1       5.583   0.184  22.936  0.00  0.00    +0.038 A 
ENDBRANCH   6  24
ENDBRANCH  15   4
ENDBRANCH   9  15
BRANCH  11  16
ATOM     16  C   UNL     1      -6.131   2.151  25.568  0.00  0.00    +0.103 C 
BRANCH  16  20
ATOM      2  O   UNL     1      -5.905   4.553  25.733  0.00  0.00    -0.276 OA
ATOM      5  N   UNL     1      -4.172   3.189  26.462  0.00  0.00    -0.311 N 
ATOM     20  C   UNL     1      -5.422   3.440  25.917  0.00  0.00    +0.214 C 
ATOM     35  H   UNL     1      -3.859   2.229  26.578  0.00  0.00    +0.149 HD
BRANCH   5  22
ATOM     22  C   UNL     1      -3.271   4.236  26.888  0.00  0.00    +0.141 C 
BRANCH  22  23
ATOM      7  N   UNL     1      -0.141   3.476  24.907  0.00  0.00    -0.263 NA
ATOM     23  C   UNL     1      -2.119   4.406  25.941  0.00  0.00    -0.012 A 
ATOM     25  C   UNL     1      -1.941   5.591  25.235  0.00  0.00    +0.008 A 
ATOM     26  C   UNL     1      -1.200   3.389  25.743  0.00  0.00    +0.115 A 
ATOM     29  C   UNL     1      -0.864   5.720  24.366  0.00  0.00    +0.020 A 
ATOM     32  C   UNL     1      -0.001   4.644  24.238  0.00  0.00    +0.111 A 
ENDBRANCH  22  23
ENDBRANCH   5  22
ENDBRANCH  16  20
ENDBRANCH  11  16
TORSDOF 8
ENDMDL
MODEL 3
REMARK VINA RESULT:      -0.4      2.009      2.922
REMARK  Name = 38028485
REMARK  11 active torsions:
REMARK  status: ('A' for Active; 'I' for Inactive)
REMARK    1  A    between atoms: N_4  and  C_15
REMARK    2  A    between atoms: N_5  and  C_22
REMARK    3  A    between atoms: N_6  and  C_24
REMARK    4  A    between atoms: C_8  and  C_12
REMARK    5  A    between atoms: C_9  and  C_15
REMARK    6  A    between atoms: C_11  and  C_16
REMARK    7  A    between atoms: C_12  and  C_17
REMARK    8  A    between atoms: C_12  and  C_18
REMARK    9  A    between atoms: C_13  and  C_19
REMARK   10  A    between atoms: C_16  and  C_20
REMARK   11  A    between atoms: C_22  and  C_23
REMARK                            x       y       z     vdW  Elec       q    Type
REMARK                         _______ _______ _______ _____ _____    ______ ____
ROOT
ATOM      8  C   UNL     1      -3.646   2.704  23.139  0.00  0.00    +0.000 C 
ATOM      9  C   UNL     1      -2.191   2.349  23.532  0.00  0.00    +0.032 C 
ATOM     10  C   UNL     1      -4.044   4.066  23.729  0.00  0.00    +0.012 C 
ATOM     11  C   UNL     1      -3.934   4.090  25.266  0.00  0.00    +0.023 C 
ATOM     13  C   UNL     1      -2.622   3.501  25.745  0.00  0.00    -0.073 C 
ATOM     14  C   UNL     1      -1.851   2.737  24.953  0.00  0.00    -0.022 C 
ATOM     19  C   UNL     1      -2.196   3.849  27.144  0.00  0.00    +0.039 C 
ENDROOT
BRANCH   8  12
ATOM     12  C   UNL     1      -3.837   2.722  21.620  0.00  0.00    -0.013 C 
ATOM     17  C   UNL     1      -2.526   2.393  20.914  0.00  0.00    +0.007 C 
ATOM     18  C   UNL     1      -4.369   4.078  21.166  0.00  0.00    +0.007 C 
ENDBRANCH   8  12
BRANCH   9  15
ATOM     15  C   UNL     1      -1.913   0.854  23.331  0.00  0.00    +0.113 C 
BRANCH  15   4
ATOM      3  O   UNL     1       0.575   0.515  24.708  0.00  0.00    -0.253 OA
ATOM      4  N   UNL     1      -0.629   0.652  22.737  0.00  0.00    -0.299 N 
ATOM      6  N   UNL     1       1.652   0.313  22.631  0.00  0.00    -0.269 N 
ATOM     21  C   UNL     1       0.556   0.493  23.479  0.00  0.00    +0.304 C 
ATOM     34  H   UNL     1      -0.573   0.552  21.728  0.00  0.00    +0.150 HD
ATOM     36  H   UNL     1       1.462   0.323  21.632  0.00  0.00    +0.156 HD
BRANCH   6  24
ATOM      1  F   UNL     1       5.194  -2.524  24.201  0.00  0.00    -0.205 F 
ATOM     24  C   UNL     1       3.006   0.121  22.993  0.00  0.00    +0.037 A 
ATOM     27  C   UNL     1       3.440  -1.131  23.427  0.00  0.00    +0.061 A 
ATOM     28  C   UNL     1       3.907   1.183  22.913  0.00  0.00    +0.023 A 
ATOM     30  C   UNL     1       4.776  -1.321  23.782  0.00  0.00    +0.125 A 
ATOM     31  C   UNL     1       5.242   0.993  23.268  0.00  0.00    +0.005 A 
ATOM     33  C   UNL     1       5.677  -0.259  23.703  0.00  0.00    +0.038 A 
ENDBRANCH   6  24
ENDBRANCH  15   4
ENDBRANCH   9  15
BRANCH  11  16
ATOM     16  C   UNL     1      -5.125   3.379  25.915  0.00  0.00    +0.103 C 
BRANCH  16  20
ATOM      2  O   UNL     1      -6.395   2.094  24.307  0.00  0.00    -0.276 OA
ATOM      5  N   UNL     1      -4.762   1.040  25.580  0.00  0.00    -0.311 N 
ATOM     20  C   UNL     1      -5.518   2.126  25.165  0.00  0.00    +0.214 C 
ATOM     35  H   UNL     1      -4.054   1.166  26.299  0.00  0.00    +0.149 HD
BRANCH   5  22
ATOM     22  C   UNL     1      -4.923  -0.289  25.035  0.00  0.00    +0.141 C 
BRANCH  22  23
ATOM      7  N   UNL     1      -1.421  -1.356  25.980  0.00  0.00    -0.263 NA
ATOM     23  C   UNL     1      -3.640  -1.069  25.066  0.00  0.00    -0.012 A 
ATOM     25  C   UNL     1      -3.460  -2.183  24.255  0.00  0.00    +0.008 A 
ATOM     26  C   UNL     1      -2.600  -0.700  25.904  0.00  0.00    +0.115 A 
ATOM     29  C   UNL     1      -2.260  -2.884  24.305  0.00  0.00    +0.020 A 
ATOM     32  C   UNL     1      -1.281  -2.434  25.176  0.00  0.00    +0.111 A 
ENDBRANCH  22  23
ENDBRANCH   5  22
ENDBRANCH  16  20
ENDBRANCH  11  16
TORSDOF 8
ENDMDL
MODEL 4
REMARK VINA RESULT:       0.2      1.704      3.731
REMARK  Name = 38028485
REMARK  11 active torsions:
REMARK  status: ('A' for Active; 'I' for Inactive)
REMARK    1  A    between atoms: N_4  and  C_15
REMARK    2  A    between atoms: N_5  and  C_22
REMARK    3  A    between atoms: N_6  and  C_24
REMARK    4  A    between atoms: C_8  and  C_12
REMARK    5  A    between atoms: C_9  and  C_15
REMARK    6  A    between atoms: C_11  and  C_16
REMARK    7  A    between atoms: C_12  and  C_17
REMARK    8  A    between atoms: C_12  and  C_18
REMARK    9  A    between atoms: C_13  and  C_19
REMARK   10  A    between atoms: C_16  and  C_20
REMARK   11  A    between atoms: C_22  and  C_23
REMARK                            x       y       z     vdW  Elec       q    Type
REMARK                         _______ _______ _______ _____ _____    ______ ____
ROOT
ATOM      8  C   UNL     1      -2.190   4.154  24.903  0.00  0.00    +0.000 C 
ATOM      9  C   UNL     1      -2.486   3.718  26.359  0.00  0.00    +0.032 C 
ATOM     10  C   UNL     1      -3.487   4.581  24.197  0.00  0.00    +0.012 C 
ATOM     11  C   UNL     1      -4.532   3.450  24.165  0.00  0.00    +0.023 C 
ATOM     13  C   UNL     1      -4.684   2.787  25.518  0.00  0.00    -0.073 C 
ATOM     14  C   UNL     1      -3.767   2.928  26.491  0.00  0.00    -0.022 C 
ATOM     19  C   UNL     1      -5.940   1.991  25.744  0.00  0.00    +0.039 C 
ENDROOT
BRANCH   8  12
ATOM     12  C   UNL     1      -1.170   5.295  24.847  0.00  0.00    -0.013 C 
ATOM     17  C   UNL     1      -1.879   6.645  24.860  0.00  0.00    +0.007 C 
ATOM     18  C   UNL     1      -0.287   5.160  23.610  0.00  0.00    +0.007 C 
ENDBRANCH   8  12
BRANCH   9  15
ATOM     15  C   UNL     1      -1.322   2.904  26.940  0.00  0.00    +0.113 C 
BRANCH  15   4
ATOM      3  O   UNL     1       0.933   2.964  25.176  0.00  0.00    -0.253 OA
ATOM      4  N   UNL     1      -0.920   1.875  26.033  0.00  0.00    -0.299 N 
ATOM      6  N   UNL     1       0.349   0.820  24.419  0.00  0.00    -0.269 N 
ATOM     21  C   UNL     1       0.205   1.975  25.192  0.00  0.00    +0.304 C 
ATOM     34  H   UNL     1      -1.431   0.998  26.038  0.00  0.00    +0.150 HD
ATOM     36  H   UNL     1      -0.347   0.090  24.554  0.00  0.00    +0.156 HD
BRANCH   6  24
ATOM      1  F   UNL     1       4.901   1.119  22.920  0.00  0.00    -0.205 F 
ATOM     24  C   UNL     1       1.350   0.537  23.460  0.00  0.00    +0.037 A 
ATOM     27  C   UNL     1       2.657   0.976  23.667  0.00  0.00    +0.061 A 
ATOM     28  C   UNL     1       1.029  -0.181  22.307  0.00  0.00    +0.023 A 
ATOM     30  C   UNL     1       3.645   0.697  22.723  0.00  0.00    +0.125 A 
ATOM     31  C   UNL     1       2.017  -0.460  21.363  0.00  0.00    +0.005 A 
ATOM     33  C   UNL     1       3.324  -0.021  21.570  0.00  0.00    +0.038 A 
ENDBRANCH   6  24
ENDBRANCH  15   4
ENDBRANCH   9  15
BRANCH  11  16
ATOM     16  C   UNL     1      -4.196   2.419  23.083  0.00  0.00    +0.103 C 
BRANCH  16  20
ATOM      2  O   UNL     1      -2.537   0.856  23.893  0.00  0.00    -0.276 OA
ATOM      5  N   UNL     1      -4.782   0.257  23.918  0.00  0.00    -0.311 N 
ATOM     20  C   UNL     1      -3.717   1.111  23.672  0.00  0.00    +0.214 C 
ATOM     35  H   UNL     1      -5.728   0.560  23.703  0.00  0.00    +0.149 HD
BRANCH   5  22
ATOM     22  C   UNL     1      -4.621  -1.065  24.479  0.00  0.00    +0.141 C 
BRANCH  22  23
ATOM      7  N   UNL     1      -1.349  -0.983  26.373  0.00  0.00    -0.263 NA
ATOM     23  C   UNL     1      -3.194  -1.347  24.854  0.00  0.00    -0.012 A 
ATOM     25  C   UNL     1      -2.403  -2.190  24.082  0.00  0.00    +0.008 A 
ATOM     26  C   UNL     1      -2.625  -0.773  25.980  0.00  0.00    +0.115 A 
ATOM     29  C   UNL     1      -1.086  -2.430  24.454  0.00  0.00    +0.020 A 
ATOM     32  C   UNL     1      -0.610  -1.809  25.597  0.00  0.00    +0.111 A 
ENDBRANCH  22  23
ENDBRANCH   5  22
ENDBRANCH  16  20
ENDBRANCH  11  16
TORSDOF 8
ENDMDL
MODEL 5
REMARK VINA RESULT:       0.6      1.990      3.252
REMARK  Name = 38028485
REMARK  11 active torsions:
REMARK  status: ('A' for Active; 'I' for Inactive)
REMARK    1  A    between atoms: N_4  and  C_15
REMARK    2  A    between atoms: N_5  and  C_22
REMARK    3  A    between atoms: N_6  and  C_24
REMARK    4  A    between atoms: C_8  and  C_12
REMARK    5  A    between atoms: C_9  and  C_15
REMARK    6  A    between atoms: C_11  and  C_16
REMARK    7  A    between atoms: C_12  and  C_17
REMARK    8  A    between atoms: C_12  and  C_18
REMARK    9  A    between atoms: C_13  and  C_19
REMARK   10  A    between atoms: C_16  and  C_20
REMARK   11  A    between atoms: C_22  and  C_23
REMARK                            x       y       z     vdW  Elec       q    Type
REMARK                         _______ _______ _______ _____ _____    ______ ____
ROOT
ATOM      8  C   UNL     1      -3.385   2.302  23.653  0.00  0.00    +0.000 C 
ATOM      9  C   UNL     1      -2.715   3.204  24.718  0.00  0.00    +0.032 C 
ATOM     10  C   UNL     1      -4.630   2.992  23.073  0.00  0.00    +0.012 C 
ATOM     11  C   UNL     1      -5.672   3.320  24.159  0.00  0.00    +0.023 C 
ATOM     13  C   UNL     1      -5.037   3.975  25.368  0.00  0.00    -0.073 C 
ATOM     14  C   UNL     1      -3.713   3.925  25.595  0.00  0.00    -0.022 C 
ATOM     19  C   UNL     1      -5.955   4.730  26.289  0.00  0.00    +0.039 C 
ENDROOT
BRANCH   8  12
ATOM     12  C   UNL     1      -2.417   1.945  22.520  0.00  0.00    -0.013 C 
ATOM     17  C   UNL     1      -2.824   2.647  21.230  0.00  0.00    +0.007 C 
ATOM     18  C   UNL     1      -2.367   0.433  22.320  0.00  0.00    +0.007 C 
ENDBRANCH   8  12
BRANCH   9  15
ATOM     15  C   UNL     1      -1.751   2.398  25.598  0.00  0.00    +0.113 C 
BRANCH  15   4
ATOM      3  O   UNL     1       1.100   2.477  25.337  0.00  0.00    -0.253 OA
ATOM      4  N   UNL     1      -0.942   1.530  24.801  0.00  0.00    -0.299 N 
ATOM      6  N   UNL     1       0.977   0.650  23.867  0.00  0.00    -0.269 N 
ATOM     21  C   UNL     1       0.460   1.628  24.720  0.00  0.00    +0.304 C 
ATOM     34  H   UNL     1      -1.391   0.759  24.316  0.00  0.00    +0.150 HD
ATOM     36  H   UNL     1       0.305   0.023  23.431  0.00  0.00    +0.156 HD
BRANCH   6  24
ATOM      1  F   UNL     1       4.871  -2.159  23.878  0.00  0.00    -0.205 F 
ATOM     24  C   UNL     1       2.332   0.423  23.528  0.00  0.00    +0.037 A 
ATOM     27  C   UNL     1       2.945  -0.779  23.877  0.00  0.00    +0.061 A 
ATOM     28  C   UNL     1       3.053   1.401  22.843  0.00  0.00    +0.023 A 
ATOM     30  C   UNL     1       4.280  -1.004  23.542  0.00  0.00    +0.125 A 
ATOM     31  C   UNL     1       4.388   1.176  22.507  0.00  0.00    +0.005 A 
ATOM     33  C   UNL     1       5.001  -0.026  22.857  0.00  0.00    +0.038 A 
ENDBRANCH   6  24
ENDBRANCH  15   4
ENDBRANCH   9  15
BRANCH  11  16
ATOM     16  C   UNL     1      -6.462   2.071  24.562  0.00  0.00    +0.103 C 
BRANCH  16  20
ATOM      2  O   UNL     1      -6.170   1.587  26.914  0.00  0.00    -0.276 OA
ATOM      5  N   UNL     1      -4.879   0.460  25.346  0.00  0.00    -0.311 N 
ATOM     20  C   UNL     1      -5.846   1.368  25.751  0.00  0.00    +0.214 C 
ATOM     35  H   UNL     1      -4.681   0.346  24.355  0.00  0.00    +0.149 HD
BRANCH   5  22
ATOM     22  C   UNL     1      -4.123  -0.355  26.271  0.00  0.00    +0.141 C 
BRANCH  22  23
ATOM      7  N   UNL     1      -0.779  -1.745  25.185  0.00  0.00    -0.263 NA
ATOM     23  C   UNL     1      -3.104  -1.204  25.568  0.00  0.00    -0.012 A 
ATOM     25  C   UNL     1      -3.491  -2.202  24.680  0.00  0.00    +0.008 A 
ATOM     26  C   UNL     1      -1.748  -1.018  25.784  0.00  0.00    +0.115 A 
ATOM     29  C   UNL     1      -2.523  -2.971  24.044  0.00  0.00    +0.020 A 
ATOM     32  C   UNL     1      -1.194  -2.706  24.328  0.00  0.00    +0.111 A 
ENDBRANCH  22  23
ENDBRANCH   5  22
ENDBRANCH  16  20
ENDBRANCH  11  16
TORSDOF 8
ENDMDL
MODEL 6
REMARK VINA RESULT:       0.6      2.403      5.216
REMARK  Name = 38028485
REMARK  11 active torsions:
REMARK  status: ('A' for Active; 'I' for Inactive)
REMARK    1  A    between atoms: N_4  and  C_15
REMARK    2  A    between atoms: N_5  and  C_22
REMARK    3  A    between atoms: N_6  and  C_24
REMARK    4  A    between atoms: C_8  and  C_12
REMARK    5  A    between atoms: C_9  and  C_15
REMARK    6  A    between atoms: C_11  and  C_16
REMARK    7  A    between atoms: C_12  and  C_17
REMARK    8  A    between atoms: C_12  and  C_18
REMARK    9  A    between atoms: C_13  and  C_19
REMARK   10  A    between atoms: C_16  and  C_20
REMARK   11  A    between atoms: C_22  and  C_23
REMARK                            x       y       z     vdW  Elec       q    Type
REMARK                         _______ _______ _______ _____ _____    ______ ____
ROOT
ATOM      8  C   UNL     1      -3.278   1.877  23.617  0.00  0.00    +0.000 C 
ATOM      9  C   UNL     1      -4.079   3.130  24.048  0.00  0.00    +0.032 C 
ATOM     10  C   UNL     1      -4.204   0.652  23.531  0.00  0.00    +0.012 C 
ATOM     11  C   UNL     1      -4.896   0.351  24.874  0.00  0.00    +0.023 C 
ATOM     13  C   UNL     1      -5.483   1.602  25.497  0.00  0.00    -0.073 C 
ATOM     14  C   UNL     1      -5.115   2.834  25.107  0.00  0.00    -0.022 C 
ATOM     19  C   UNL     1      -6.537   1.402  26.551  0.00  0.00    +0.039 C 
ENDROOT
BRANCH   8  12
ATOM     12  C   UNL     1      -2.572   2.086  22.274  0.00  0.00    -0.013 C 
ATOM     17  C   UNL     1      -3.433   2.936  21.347  0.00  0.00    +0.007 C 
ATOM     18  C   UNL     1      -2.246   0.743  21.629  0.00  0.00    +0.007 C 
ENDBRANCH   8  12
BRANCH   9  15
ATOM     15  C   UNL     1      -3.143   4.239  24.545  0.00  0.00    +0.113 C 
BRANCH  15   4
ATOM      3  O   UNL     1      -2.144   4.054  27.223  0.00  0.00    -0.253 OA
ATOM      4  N   UNL     1      -1.884   3.697  24.952  0.00  0.00    -0.299 N 
ATOM      6  N   UNL     1      -0.190   3.060  26.384  0.00  0.00    -0.269 N 
ATOM     21  C   UNL     1      -1.458   3.639  26.292  0.00  0.00    +0.304 C 
ATOM     34  H   UNL     1      -1.291   3.271  24.247  0.00  0.00    +0.150 HD
ATOM     36  H   UNL     1       0.245   2.771  25.511  0.00  0.00    +0.156 HD
BRANCH   6  24
ATOM      1  F   UNL     1       4.053   2.830  28.621  0.00  0.00    -0.205 F 
ATOM     24  C   UNL     1       0.575   2.827  27.551  0.00  0.00    +0.037 A 
ATOM     27  C   UNL     1       1.964   2.946  27.509  0.00  0.00    +0.061 A 
ATOM     28  C   UNL     1      -0.060   2.481  28.744  0.00  0.00    +0.023 A 
ATOM     30  C   UNL     1       2.718   2.718  28.660  0.00  0.00    +0.125 A 
ATOM     31  C   UNL     1       0.695   2.253  29.895  0.00  0.00    +0.005 A 
ATOM     33  C   UNL     1       2.083   2.371  29.853  0.00  0.00    +0.038 A 
ENDBRANCH   6  24
ENDBRANCH  15   4
ENDBRANCH   9  15
BRANCH  11  16
ATOM     16  C   UNL     1      -3.939  -0.349  25.844  0.00  0.00    +0.103 C 
BRANCH  16  20
ATOM      2  O   UNL     1      -3.312  -2.411  24.748  0.00  0.00    -0.276 OA
ATOM      5  N   UNL     1      -1.741  -0.715  24.979  0.00  0.00    -0.311 N 
ATOM     20  C   UNL     1      -2.994  -1.290  25.131  0.00  0.00    +0.214 C 
ATOM     35  H   UNL     1      -1.574   0.225  25.329  0.00  0.00    +0.149 HD
BRANCH   5  22
ATOM     22  C   UNL     1      -0.637  -1.388  24.333  0.00  0.00    +0.141 C 
BRANCH  22  23
ATOM      7  N   UNL     1       1.313   1.819  23.877  0.00  0.00    -0.263 NA
ATOM     23  C   UNL     1       0.405  -0.421  23.850  0.00  0.00    -0.012 A 
ATOM     25  C   UNL     1       1.399  -0.822  22.964  0.00  0.00    +0.008 A 
ATOM     26  C   UNL     1       0.407   0.898  24.273  0.00  0.00    +0.115 A 
ATOM     29  C   UNL     1       2.349   0.096  22.533  0.00  0.00    +0.020 A 
ATOM     32  C   UNL     1       2.264   1.392  23.015  0.00  0.00    +0.111 A 
ENDBRANCH  22  23
ENDBRANCH   5  22
ENDBRANCH  16  20
ENDBRANCH  11  16
TORSDOF 8
ENDMDL
MODEL 7
REMARK VINA RESULT:       1.1      2.121      3.801
REMARK  Name = 38028485
REMARK  11 active torsions:
REMARK  status: ('A' for Active; 'I' for Inactive)
REMARK    1  A    between atoms: N_4  and  C_15
REMARK    2  A    between atoms: N_5  and  C_22
REMARK    3  A    between atoms: N_6  and  C_24
REMARK    4  A    between atoms: C_8  and  C_12
REMARK    5  A    between atoms: C_9  and  C_15
REMARK    6  A    between atoms: C_11  and  C_16
REMARK    7  A    between atoms: C_12  and  C_17
REMARK    8  A    between atoms: C_12  and  C_18
REMARK    9  A    between atoms: C_13  and  C_19
REMARK   10  A    between atoms: C_16  and  C_20
REMARK   11  A    between atoms: C_22  and  C_23
REMARK                            x       y       z     vdW  Elec       q    Type
REMARK                         _______ _______ _______ _____ _____    ______ ____
ROOT
ATOM      8  C   UNL     1      -3.009   1.333  24.832  0.00  0.00    +0.000 C 
ATOM      9  C   UNL     1      -3.360   1.285  23.325  0.00  0.00    +0.032 C 
ATOM     10  C   UNL     1      -3.953   2.294  25.572  0.00  0.00    +0.012 C 
ATOM     11  C   UNL     1      -3.884   3.726  25.009  0.00  0.00    +0.023 C 
ATOM     13  C   UNL     1      -3.955   3.740  23.496  0.00  0.00    -0.073 C 
ATOM     14  C   UNL     1      -3.730   2.637  22.760  0.00  0.00    -0.022 C 
ATOM     19  C   UNL     1      -4.334   5.042  22.847  0.00  0.00    +0.039 C 
ENDROOT
BRANCH   8  12
ATOM     12  C   UNL     1      -3.074  -0.055  25.476  0.00  0.00    -0.013 C 
ATOM     17  C   UNL     1      -1.669  -0.589  25.734  0.00  0.00    +0.007 C 
ATOM     18  C   UNL     1      -3.863  -1.015  24.592  0.00  0.00    +0.007 C 
ENDBRANCH   8  12
BRANCH   9  15
ATOM     15  C   UNL     1      -2.207   0.689  22.508  0.00  0.00    +0.113 C 
BRANCH  15   4
ATOM      3  O   UNL     1       0.325  -0.467  21.830  0.00  0.00    -0.253 OA
ATOM      4  N   UNL     1      -0.949   0.963  23.129  0.00  0.00    -0.299 N 
ATOM      6  N   UNL     1       1.320   0.815  23.527  0.00  0.00    -0.269 N 
ATOM     21  C   UNL     1       0.260   0.354  22.742  0.00  0.00    +0.304 C 
ATOM     34  H   UNL     1      -0.909   1.682  23.845  0.00  0.00    +0.150 HD
ATOM     36  H   UNL     1       1.093   1.498  24.246  0.00  0.00    +0.156 HD
BRANCH   6  24
ATOM      1  F   UNL     1       4.799  -2.451  24.063  0.00  0.00    -0.205 F 
ATOM     24  C   UNL     1       2.683   0.445  23.447  0.00  0.00    +0.037 A 
ATOM     27  C   UNL     1       3.076  -0.845  23.801  0.00  0.00    +0.061 A 
ATOM     28  C   UNL     1       3.634   1.369  23.013  0.00  0.00    +0.023 A 
ATOM     30  C   UNL     1       4.420  -1.212  23.722  0.00  0.00    +0.125 A 
ATOM     31  C   UNL     1       4.977   1.002  22.933  0.00  0.00    +0.005 A 
ATOM     33  C   UNL     1       5.370  -0.288  23.288  0.00  0.00    +0.038 A 
ENDBRANCH   6  24
ENDBRANCH  15   4
ENDBRANCH   9  15
BRANCH  11  16
ATOM     16  C   UNL     1      -2.633   4.456  25.507  0.00  0.00    +0.103 C 
BRANCH  16  20
ATOM      2  O   UNL     1      -0.824   3.583  24.159  0.00  0.00    -0.276 OA
ATOM      5  N   UNL     1      -0.934   3.041  26.416  0.00  0.00    -0.311 N 
ATOM     20  C   UNL     1      -1.372   3.661  25.255  0.00  0.00    +0.214 C 
ATOM     35  H   UNL     1      -1.456   3.168  27.279  0.00  0.00    +0.149 HD
BRANCH   5  22
ATOM     22  C   UNL     1       0.249   2.213  26.472  0.00  0.00    +0.141 C 
BRANCH  22  23
ATOM      7  N   UNL     1       3.067   3.032  28.855  0.00  0.00    -0.263 NA
ATOM     23  C   UNL     1       1.010   2.405  27.752  0.00  0.00    -0.012 A 
ATOM     25  C   UNL     1       0.417   2.149  28.983  0.00  0.00    +0.008 A 
ATOM     26  C   UNL     1       2.325   2.840  27.742  0.00  0.00    +0.115 A 
ATOM     29  C   UNL     1       1.148   2.334  30.151  0.00  0.00    +0.020 A 
ATOM     32  C   UNL     1       2.457   2.773  30.034  0.00  0.00    +0.111 A 
ENDBRANCH  22  23
ENDBRANCH   5  22
ENDBRANCH  16  20
ENDBRANCH  11  16
TORSDOF 8
ENDMDL
MODEL 8
REMARK VINA RESULT:       2.1      1.938      4.797
REMARK  Name = 38028485
REMARK  11 active torsions:
REMARK  status: ('A' for Active; 'I' for Inactive)
REMARK    1  A    between atoms: N_4  and  C_15
REMARK    2  A    between atoms: N_5  and  C_22
REMARK    3  A    between atoms: N_6  and  C_24
REMARK    4  A    between atoms: C_8  and  C_12
REMARK    5  A    between atoms: C_9  and  C_15
REMARK    6  A    between atoms: C_11  and  C_16
REMARK    7  A    between atoms: C_12  and  C_17
REMARK    8  A    between atoms: C_12  and  C_18
REMARK    9  A    between atoms: C_13  and  C_19
REMARK   10  A    between atoms: C_16  and  C_20
REMARK   11  A    between atoms: C_22  and  C_23
REMARK                            x       y       z     vdW  Elec       q    Type
REMARK                         _______ _______ _______ _____ _____    ______ ____
ROOT
ATOM      8  C   UNL     1      -2.133   0.832  24.814  0.00  0.00    +0.000 C 
ATOM      9  C   UNL     1      -1.345  -0.182  23.949  0.00  0.00    +0.032 C 
ATOM     10  C   UNL     1      -2.696   0.144  26.068  0.00  0.00    +0.012 C 
ATOM     11  C   UNL     1      -3.631  -1.029  25.718  0.00  0.00    +0.023 C 
ATOM     13  C   UNL     1      -3.028  -1.933  24.663  0.00  0.00    -0.073 C 
ATOM     14  C   UNL     1      -1.999  -1.543  23.890  0.00  0.00    -0.022 C 
ATOM     19  C   UNL     1      -3.607  -3.316  24.545  0.00  0.00    +0.039 C 
ENDROOT
BRANCH   8  12
ATOM     12  C   UNL     1      -1.265   2.026  25.224  0.00  0.00    -0.013 C 
ATOM     17  C   UNL     1      -0.596   2.643  24.001  0.00  0.00    +0.007 C 
ATOM     18  C   UNL     1      -0.222   1.597  26.252  0.00  0.00    +0.007 C 
ENDBRANCH   8  12
BRANCH   9  15
ATOM     15  C   UNL     1      -1.142   0.348  22.524  0.00  0.00    +0.113 C 
BRANCH  15   4
ATOM      3  O   UNL     1       1.070  -0.681  24.023  0.00  0.00    -0.253 OA
ATOM      4  N   UNL     1       0.245   0.564  22.256  0.00  0.00    -0.299 N 
ATOM      6  N   UNL     1       2.531   0.404  22.539  0.00  0.00    -0.269 N 
ATOM     21  C   UNL     1       1.283   0.025  23.040  0.00  0.00    +0.304 C 
ATOM     34  H   UNL     1       0.503   1.079  21.421  0.00  0.00    +0.150 HD
ATOM     36  H   UNL     1       2.530   0.997  21.713  0.00  0.00    +0.156 HD
BRANCH   6  24
ATOM      1  F   UNL     1       5.610  -2.846  24.275  0.00  0.00    -0.205 F 
ATOM     24  C   UNL     1       3.808   0.067  23.046  0.00  0.00    +0.037 A 
ATOM     27  C   UNL     1       4.085  -1.248  23.418  0.00  0.00    +0.061 A 
ATOM     28  C   UNL     1       4.791   1.049  23.173  0.00  0.00    +0.023 A 
ATOM     30  C   UNL     1       5.344  -1.582  23.916  0.00  0.00    +0.125 A 
ATOM     31  C   UNL     1       6.050   0.715  23.671  0.00  0.00    +0.005 A 
ATOM     33  C   UNL     1       6.326  -0.600  24.042  0.00  0.00    +0.038 A 
ENDBRANCH   6  24
ENDBRANCH  15   4
ENDBRANCH   9  15
BRANCH  11  16
ATOM     16  C   UNL     1      -5.011  -0.525  25.287  0.00  0.00    +0.103 C 
BRANCH  16  20
ATOM      2  O   UNL     1      -4.374   1.233  23.753  0.00  0.00    -0.276 OA
ATOM      5  N   UNL     1      -5.665   1.751  25.614  0.00  0.00    -0.311 N 
ATOM     20  C   UNL     1      -4.964   0.897  24.776  0.00  0.00    +0.214 C 
ATOM     35  H   UNL     1      -6.125   1.377  26.440  0.00  0.00    +0.149 HD
BRANCH   5  22
ATOM     22  C   UNL     1      -5.788   3.170  25.372  0.00  0.00    +0.141 C 
BRANCH  22  23
ATOM      7  N   UNL     1      -2.740   5.094  24.229  0.00  0.00    -0.263 NA
ATOM     23  C   UNL     1      -4.456   3.863  25.405  0.00  0.00    -0.012 A 
ATOM     25  C   UNL     1      -3.711   3.929  26.578  0.00  0.00    +0.008 A 
ATOM     26  C   UNL     1      -3.931   4.456  24.269  0.00  0.00    +0.115 A 
ATOM     29  C   UNL     1      -2.481   4.576  26.577  0.00  0.00    +0.020 A 
ATOM     32  C   UNL     1      -2.044   5.137  25.388  0.00  0.00    +0.111 A 
ENDBRANCH  22  23
ENDBRANCH   5  22
ENDBRANCH  16  20
ENDBRANCH  11  16
TORSDOF 8
ENDMDL
