MODEL 1
REMARK VINA RESULT:       0.4      0.000      0.000
REMARK  Name = 45783810
REMARK  7 active torsions:
REMARK  status: ('A' for Active; 'I' for Inactive)
REMARK    1  A    between atoms: N_2  and  C_8
REMARK    2  A    between atoms: N_3  and  C_18
REMARK    3  A    between atoms: N_7  and  C_24
REMARK    4  A    between atoms: N_7  and  C_25
REMARK    5  A    between atoms: N_7  and  C_26
REMARK    6  A    between atoms: C_9  and  C_17
REMARK    7  A    between atoms: C_19  and  C_20
REMARK                            x       y       z     vdW  Elec       q    Type
REMARK                         _______ _______ _______ _____ _____    ______ ____
ROOT
ATOM      1  O   UNL     1      -1.818   3.512  24.011  0.00  0.00    -0.336 OA
ATOM      4  N   UNL     1      -1.552   1.291  23.903  0.00  0.00    -0.190 NA
ATOM      5  N   UNL     1      -0.442   3.291  23.880  0.00  0.00    -0.056 NA
ATOM     17  C   UNL     1      -2.398   2.283  24.016  0.00  0.00    +0.245 A 
ATOM     19  C   UNL     1      -0.364   1.959  23.823  0.00  0.00    +0.204 A 
ENDROOT
BRANCH  19  20
ATOM      6  N   UNL     1       3.278   1.359  23.371  0.00  0.00    -0.240 NA
ATOM     20  C   UNL     1       0.883   1.263  23.686  0.00  0.00    +0.041 A 
ATOM     21  C   UNL     1       0.938  -0.126  23.732  0.00  0.00    +0.016 A 
ATOM     22  C   UNL     1       2.070   1.952  23.506  0.00  0.00    +0.124 A 
ATOM     23  C   UNL     1       2.161  -0.773  23.598  0.00  0.00    +0.044 A 
ATOM     24  C   UNL     1       3.291   0.009  23.420  0.00  0.00    +0.121 A 
BRANCH  24   7
ATOM      7  N   UNL     1       4.531  -0.666  23.285  0.00  0.00    -0.321 N 
ATOM     25  C   UNL     1       4.646  -2.057  23.664  0.00  0.00    +0.130 C 
ATOM     26  C   UNL     1       5.688   0.035  22.775  0.00  0.00    +0.130 C 
ENDBRANCH  24   7
ENDBRANCH  19  20
BRANCH  17   9
ATOM      2  N   UNL     1      -4.352   1.587  25.389  0.00  0.00    -0.288 NA
ATOM      9  C   UNL     1      -3.906   2.249  24.148  0.00  0.00    +0.146 C 
ATOM     10  C   UNL     1      -5.629   2.203  25.751  0.00  0.00    +0.085 C 
ATOM     13  C   UNL     1      -4.529   3.656  24.209  0.00  0.00    +0.030 C 
ATOM     14  C   UNL     1      -5.355   3.671  25.488  0.00  0.00    +0.017 C 
BRANCH   2   8
ATOM      3  N   UNL     1      -3.310  -2.409  24.386  0.00  0.00    -0.305 NA
ATOM      8  C   UNL     1      -4.459   0.135  25.262  0.00  0.00    +0.060 C 
ATOM     11  C   UNL     1      -4.439  -0.289  23.791  0.00  0.00    +0.034 C 
ATOM     12  C   UNL     1      -3.317  -0.548  26.018  0.00  0.00    +0.034 C 
ATOM     15  C   UNL     1      -4.441  -1.813  23.659  0.00  0.00    +0.085 C 
ATOM     16  C   UNL     1      -3.355  -2.065  25.814  0.00  0.00    +0.085 C 
ATOM     18  C   UNL     1      -3.296  -3.861  24.209  0.00  0.00    +0.104 C 
ENDBRANCH   2   8
ENDBRANCH  17   9
TORSDOF 4
ENDMDL
MODEL 2
REMARK VINA RESULT:       1.8      1.642      3.946
REMARK  Name = 45783810
REMARK  7 active torsions:
REMARK  status: ('A' for Active; 'I' for Inactive)
REMARK    1  A    between atoms: N_2  and  C_8
REMARK    2  A    between atoms: N_3  and  C_18
REMARK    3  A    between atoms: N_7  and  C_24
REMARK    4  A    between atoms: N_7  and  C_25
REMARK    5  A    between atoms: N_7  and  C_26
REMARK    6  A    between atoms: C_9  and  C_17
REMARK    7  A    between atoms: C_19  and  C_20
REMARK                            x       y       z     vdW  Elec       q    Type
REMARK                         _______ _______ _______ _____ _____    ______ ____
ROOT
ATOM      1  O   UNL     1      -1.183   0.533  23.148  0.00  0.00    -0.336 OA
ATOM      4  N   UNL     1       0.170  -0.782  24.355  0.00  0.00    -0.190 NA
ATOM      5  N   UNL     1       0.121   0.824  22.726  0.00  0.00    -0.056 NA
ATOM     17  C   UNL     1      -1.064  -0.422  24.108  0.00  0.00    +0.245 A 
ATOM     19  C   UNL     1       0.861   0.010  23.484  0.00  0.00    +0.204 A 
ENDROOT
BRANCH  19  20
ATOM      6  N   UNL     1       4.344  -1.268  23.748  0.00  0.00    -0.240 NA
ATOM     20  C   UNL     1       2.292  -0.038  23.396  0.00  0.00    +0.041 A 
ATOM     21  C   UNL     1       3.016   1.039  22.894  0.00  0.00    +0.016 A 
ATOM     22  C   UNL     1       2.997  -1.158  23.805  0.00  0.00    +0.124 A 
ATOM     23  C   UNL     1       4.402   0.964  22.820  0.00  0.00    +0.044 A 
ATOM     24  C   UNL     1       5.012  -0.201  23.257  0.00  0.00    +0.121 A 
BRANCH  24   7
ATOM      7  N   UNL     1       6.426  -0.262  23.173  0.00  0.00    -0.321 N 
ATOM     25  C   UNL     1       7.063  -1.282  22.370  0.00  0.00    +0.130 C 
ATOM     26  C   UNL     1       7.239   0.690  23.897  0.00  0.00    +0.130 C 
ENDBRANCH  24   7
ENDBRANCH  19  20
BRANCH  17   9
ATOM      2  N   UNL     1      -3.543  -0.235  24.188  0.00  0.00    -0.288 NA
ATOM      9  C   UNL     1      -2.352  -0.915  24.731  0.00  0.00    +0.146 C 
ATOM     10  C   UNL     1      -4.646  -1.191  24.282  0.00  0.00    +0.085 C 
ATOM     13  C   UNL     1      -2.603  -2.412  24.470  0.00  0.00    +0.030 C 
ATOM     14  C   UNL     1      -3.984  -2.479  23.833  0.00  0.00    +0.017 C 
BRANCH   2   8
ATOM      3  N   UNL     1      -5.411   3.493  25.014  0.00  0.00    -0.305 NA
ATOM      8  C   UNL     1      -3.847   1.024  24.865  0.00  0.00    +0.060 C 
ATOM     11  C   UNL     1      -3.576   2.220  23.948  0.00  0.00    +0.034 C 
ATOM     12  C   UNL     1      -5.307   1.039  25.325  0.00  0.00    +0.034 C 
ATOM     15  C   UNL     1      -3.996   3.531  24.617  0.00  0.00    +0.085 C 
ATOM     16  C   UNL     1      -5.671   2.389  25.949  0.00  0.00    +0.085 C 
ATOM     18  C   UNL     1      -5.811   4.770  25.606  0.00  0.00    +0.104 C 
ENDBRANCH   2   8
ENDBRANCH  17   9
TORSDOF 4
ENDMDL
