MODEL 1
REMARK VINA RESULT:      -1.4      0.000      0.000
REMARK  Name = 38345773
REMARK  7 active torsions:
REMARK  status: ('A' for Active; 'I' for Inactive)
REMARK    1  A    between atoms: O_3  and  C_22
REMARK    2  A    between atoms: O_3  and  C_23
REMARK    3  A    between atoms: N_4  and  C_14
REMARK    4  A    between atoms: N_4  and  C_19
REMARK    5  A    between atoms: N_5  and  C_16
REMARK    6  A    between atoms: N_9  and  C_28
REMARK    7  A    between atoms: C_15  and  C_19
REMARK                            x       y       z     vdW  Elec       q    Type
REMARK                         _______ _______ _______ _____ _____    ______ ____
ROOT
ATOM      5  N   UNL     1      -4.309  -0.851  24.310  0.00  0.00    -0.187 N 
ATOM      6  N   UNL     1      -4.992  -1.941  23.933  0.00  0.00    -0.041 NA
ATOM      7  N   UNL     1      -3.216  -2.528  25.146  0.00  0.00    -0.071 NA
ATOM      8  N   UNL     1      -4.320  -2.963  24.447  0.00  0.00    -0.020 NA
ATOM     22  C   UNL     1      -3.229  -1.219  25.049  0.00  0.00    +0.342 A 
ENDROOT
BRANCH   5  16
ATOM      1  O   UNL     1      -3.863   2.773  23.650  0.00  0.00    -0.370 OA
ATOM      2  O   UNL     1      -5.924   1.655  25.680  0.00  0.00    -0.370 OA
ATOM     12  C   UNL     1      -4.535   2.008  25.796  0.00  0.00    +0.168 C 
ATOM     13  C   UNL     1      -3.860   1.609  24.499  0.00  0.00    +0.175 C 
ATOM     14  C   UNL     1      -4.377   3.512  25.851  0.00  0.00    +0.111 C 
ATOM     16  C   UNL     1      -4.766   0.539  23.913  0.00  0.00    +0.171 C 
ATOM     20  C   UNL     1      -4.411   3.883  24.377  0.00  0.00    +0.181 C 
ATOM     21  C   UNL     1      -6.135   0.961  24.443  0.00  0.00    +0.190 C 
BRANCH  14   4
ATOM      4  N   UNL     1      -3.082   3.872  26.420  0.00  0.00    -0.309 NA
ATOM     31  H   UNL     1      -2.469   3.056  26.417  0.00  0.00    +0.122 HD
BRANCH   4  19
ATOM     19  C   UNL     1      -2.449   4.923  25.638  0.00  0.00    +0.084 C 
BRANCH  19  15
ATOM     15  C   UNL     1      -1.050   4.555  25.263  0.00  0.00    +0.003 C 
ATOM     17  C   UNL     1      -0.225   5.522  24.467  0.00  0.00    +0.005 C 
ATOM     18  C   UNL     1      -0.729   4.262  23.827  0.00  0.00    +0.005 C 
ENDBRANCH  19  15
ENDBRANCH   4  19
ENDBRANCH  14   4
ENDBRANCH   5  16
BRANCH  22   3
ATOM      3  O   UNL     1      -2.354  -0.380  25.571  0.00  0.00    -0.423 OA
BRANCH   3  23
ATOM     23  C   UNL     1      -1.134  -0.163  24.909  0.00  0.00    +0.132 A 
ATOM     24  C   UNL     1      -0.503   1.078  25.001  0.00  0.00    +0.048 A 
ATOM     25  C   UNL     1      -0.554  -1.188  24.161  0.00  0.00    +0.048 A 
ATOM     26  C   UNL     1       0.709   1.294  24.345  0.00  0.00    +0.031 A 
ATOM     27  C   UNL     1       0.657  -0.972  23.505  0.00  0.00    +0.031 A 
ATOM     28  C   UNL     1       1.289   0.268  23.596  0.00  0.00    +0.067 A 
BRANCH  28   9
ATOM      9  N   UNL     1       2.491   0.481  22.947  0.00  0.00    -0.220 N 
ATOM     10  N   UNL     1       3.485   1.182  23.512  0.00  0.00    -0.154 NA
ATOM     11  N   UNL     1       4.060   0.442  21.425  0.00  0.00    -0.222 NA
ATOM     29  C   UNL     1       2.840   0.045  21.707  0.00  0.00    +0.225 A 
ATOM     30  C   UNL     1       4.411   1.129  22.551  0.00  0.00    +0.245 A 
ENDBRANCH  28   9
ENDBRANCH   3  23
ENDBRANCH  22   3
TORSDOF 7
ENDMDL
MODEL 2
REMARK VINA RESULT:      -0.3      1.643      5.600
REMARK  Name = 38345773
REMARK  7 active torsions:
REMARK  status: ('A' for Active; 'I' for Inactive)
REMARK    1  A    between atoms: O_3  and  C_22
REMARK    2  A    between atoms: O_3  and  C_23
REMARK    3  A    between atoms: N_4  and  C_14
REMARK    4  A    between atoms: N_4  and  C_19
REMARK    5  A    between atoms: N_5  and  C_16
REMARK    6  A    between atoms: N_9  and  C_28
REMARK    7  A    between atoms: C_15  and  C_19
REMARK                            x       y       z     vdW  Elec       q    Type
REMARK                         _______ _______ _______ _____ _____    ______ ____
ROOT
ATOM      5  N   UNL     1      -2.973  -1.635  24.407  0.00  0.00    -0.187 N 
ATOM      6  N   UNL     1      -2.589  -2.906  24.225  0.00  0.00    -0.041 NA
ATOM      7  N   UNL     1      -4.746  -2.674  23.711  0.00  0.00    -0.071 NA
ATOM      8  N   UNL     1      -3.676  -3.537  23.800  0.00  0.00    -0.020 NA
ATOM     22  C   UNL     1      -4.288  -1.503  24.090  0.00  0.00    +0.342 A 
ENDROOT
BRANCH   5  16
ATOM      1  O   UNL     1      -0.632   1.218  24.018  0.00  0.00    -0.370 OA
ATOM      2  O   UNL     1       0.175  -1.480  25.319  0.00  0.00    -0.370 OA
ATOM     12  C   UNL     1       0.166  -1.019  23.958  0.00  0.00    +0.168 C 
ATOM     13  C   UNL     1      -1.057  -0.140  23.789  0.00  0.00    +0.175 C 
ATOM     14  C   UNL     1       1.332  -0.087  23.710  0.00  0.00    +0.111 C 
ATOM     16  C   UNL     1      -1.998  -0.582  24.897  0.00  0.00    +0.171 C 
ATOM     20  C   UNL     1       0.788   1.236  24.225  0.00  0.00    +0.181 C 
ATOM     21  C   UNL     1      -1.020  -1.038  25.977  0.00  0.00    +0.190 C 
BRANCH  14   4
ATOM      4  N   UNL     1       1.611   0.018  22.280  0.00  0.00    -0.309 NA
ATOM     31  H   UNL     1       1.153   0.849  21.903  0.00  0.00    +0.122 HD
BRANCH   4  19
ATOM     19  C   UNL     1       3.041   0.136  22.041  0.00  0.00    +0.084 C 
BRANCH  19  15
ATOM     15  C   UNL     1       3.806   0.170  23.324  0.00  0.00    +0.003 C 
ATOM     17  C   UNL     1       5.277   0.463  23.294  0.00  0.00    +0.005 C 
ATOM     18  C   UNL     1       4.794  -0.920  23.617  0.00  0.00    +0.005 C 
ENDBRANCH  19  15
ENDBRANCH   4  19
ENDBRANCH  14   4
ENDBRANCH   5  16
BRANCH  22   3
ATOM      3  O   UNL     1      -4.970  -0.375  24.161  0.00  0.00    -0.423 OA
BRANCH   3  23
ATOM     23  C   UNL     1      -4.276   0.837  24.306  0.00  0.00    +0.132 A 
ATOM     24  C   UNL     1      -4.073   1.376  25.577  0.00  0.00    +0.048 A 
ATOM     25  C   UNL     1      -3.788   1.502  23.180  0.00  0.00    +0.048 A 
ATOM     26  C   UNL     1      -3.382   2.580  25.721  0.00  0.00    +0.031 A 
ATOM     27  C   UNL     1      -3.099   2.705  23.325  0.00  0.00    +0.031 A 
ATOM     28  C   UNL     1      -2.895   3.244  24.595  0.00  0.00    +0.067 A 
BRANCH  28   9
ATOM      9  N   UNL     1      -2.209   4.436  24.738  0.00  0.00    -0.220 N 
ATOM     10  N   UNL     1      -2.848   5.611  24.843  0.00  0.00    -0.154 NA
ATOM     11  N   UNL     1      -0.577   5.877  24.932  0.00  0.00    -0.222 NA
ATOM     29  C   UNL     1      -0.860   4.603  24.792  0.00  0.00    +0.225 A 
ATOM     30  C   UNL     1      -1.816   6.451  24.958  0.00  0.00    +0.245 A 
ENDBRANCH  28   9
ENDBRANCH   3  23
ENDBRANCH  22   3
TORSDOF 7
ENDMDL
MODEL 3
REMARK VINA RESULT:       0.0      1.751      4.588
REMARK  Name = 38345773
REMARK  7 active torsions:
REMARK  status: ('A' for Active; 'I' for Inactive)
REMARK    1  A    between atoms: O_3  and  C_22
REMARK    2  A    between atoms: O_3  and  C_23
REMARK    3  A    between atoms: N_4  and  C_14
REMARK    4  A    between atoms: N_4  and  C_19
REMARK    5  A    between atoms: N_5  and  C_16
REMARK    6  A    between atoms: N_9  and  C_28
REMARK    7  A    between atoms: C_15  and  C_19
REMARK                            x       y       z     vdW  Elec       q    Type
REMARK                         _______ _______ _______ _____ _____    ______ ____
ROOT
ATOM      5  N   UNL     1      -2.433   4.263  24.695  0.00  0.00    -0.187 N 
ATOM      6  N   UNL     1      -2.137   5.474  25.186  0.00  0.00    -0.041 NA
ATOM      7  N   UNL     1      -0.273   4.416  24.574  0.00  0.00    -0.071 NA
ATOM      8  N   UNL     1      -0.815   5.563  25.110  0.00  0.00    -0.020 NA
ATOM     22  C   UNL     1      -1.291   3.626  24.324  0.00  0.00    +0.342 A 
ENDROOT
BRANCH   5  16
ATOM      1  O   UNL     1      -5.447   2.464  25.898  0.00  0.00    -0.370 OA
ATOM      2  O   UNL     1      -4.108   1.896  23.159  0.00  0.00    -0.370 OA
ATOM     12  C   UNL     1      -3.878   1.382  24.481  0.00  0.00    +0.168 C 
ATOM     13  C   UNL     1      -4.079   2.529  25.452  0.00  0.00    +0.175 C 
ATOM     14  C   UNL     1      -4.954   0.385  24.853  0.00  0.00    +0.111 C 
ATOM     16  C   UNL     1      -3.867   3.777  24.612  0.00  0.00    +0.171 C 
ATOM     20  C   UNL     1      -6.070   1.299  25.337  0.00  0.00    +0.181 C 
ATOM     21  C   UNL     1      -4.328   3.311  23.233  0.00  0.00    +0.190 C 
BRANCH  14   4
ATOM      4  N   UNL     1      -4.507  -0.469  25.949  0.00  0.00    -0.309 NA
ATOM     31  H   UNL     1      -5.080  -1.313  25.980  0.00  0.00    +0.122 HD
BRANCH   4  19
ATOM     19  C   UNL     1      -3.120  -0.866  25.761  0.00  0.00    +0.084 C 
BRANCH  19  15
ATOM     15  C   UNL     1      -3.011  -2.311  25.400  0.00  0.00    +0.003 C 
ATOM     17  C   UNL     1      -2.137  -2.717  24.250  0.00  0.00    +0.005 C 
ATOM     18  C   UNL     1      -3.630  -2.796  24.122  0.00  0.00    +0.005 C 
ENDBRANCH  19  15
ENDBRANCH   4  19
ENDBRANCH  14   4
ENDBRANCH   5  16
BRANCH  22   3
ATOM      3  O   UNL     1      -1.240   2.415  23.802  0.00  0.00    -0.423 OA
BRANCH   3  23
ATOM     23  C   UNL     1       0.000   1.763  23.702  0.00  0.00    +0.132 A 
ATOM     24  C   UNL     1       1.177   2.509  23.646  0.00  0.00    +0.048 A 
ATOM     25  C   UNL     1       0.054   0.369  23.660  0.00  0.00    +0.048 A 
ATOM     26  C   UNL     1       2.409   1.861  23.548  0.00  0.00    +0.031 A 
ATOM     27  C   UNL     1       1.285  -0.278  23.561  0.00  0.00    +0.031 A 
ATOM     28  C   UNL     1       2.463   0.467  23.505  0.00  0.00    +0.067 A 
BRANCH  28   9
ATOM      9  N   UNL     1       3.684  -0.174  23.410  0.00  0.00    -0.220 N 
ATOM     10  N   UNL     1       3.834  -1.463  23.749  0.00  0.00    -0.154 NA
ATOM     11  N   UNL     1       5.804  -0.549  23.032  0.00  0.00    -0.222 NA
ATOM     29  C   UNL     1       4.859   0.362  22.984  0.00  0.00    +0.225 A 
ATOM     30  C   UNL     1       5.134  -1.641  23.502  0.00  0.00    +0.245 A 
ENDBRANCH  28   9
ENDBRANCH   3  23
ENDBRANCH  22   3
TORSDOF 7
ENDMDL
MODEL 4
REMARK VINA RESULT:       0.3      1.633      4.457
REMARK  Name = 38345773
REMARK  7 active torsions:
REMARK  status: ('A' for Active; 'I' for Inactive)
REMARK    1  A    between atoms: O_3  and  C_22
REMARK    2  A    between atoms: O_3  and  C_23
REMARK    3  A    between atoms: N_4  and  C_14
REMARK    4  A    between atoms: N_4  and  C_19
REMARK    5  A    between atoms: N_5  and  C_16
REMARK    6  A    between atoms: N_9  and  C_28
REMARK    7  A    between atoms: C_15  and  C_19
REMARK                            x       y       z     vdW  Elec       q    Type
REMARK                         _______ _______ _______ _____ _____    ______ ____
ROOT
ATOM      5  N   UNL     1      -4.632   3.204  25.648  0.00  0.00    -0.187 N 
ATOM      6  N   UNL     1      -5.592   3.894  25.016  0.00  0.00    -0.041 NA
ATOM      7  N   UNL     1      -3.774   5.159  25.267  0.00  0.00    -0.071 NA
ATOM      8  N   UNL     1      -5.062   5.089  24.785  0.00  0.00    -0.020 NA
ATOM     22  C   UNL     1      -3.528   3.983  25.796  0.00  0.00    +0.342 A 
ENDROOT
BRANCH   5  16
ATOM      1  O   UNL     1      -3.633  -0.316  26.265  0.00  0.00    -0.370 OA
ATOM      2  O   UNL     1      -6.011   0.482  24.442  0.00  0.00    -0.370 OA
ATOM     12  C   UNL     1      -4.605   0.320  24.194  0.00  0.00    +0.168 C 
ATOM     13  C   UNL     1      -3.871   0.826  25.419  0.00  0.00    +0.175 C 
ATOM     14  C   UNL     1      -4.249  -1.149  24.124  0.00  0.00    +0.111 C 
ATOM     16  C   UNL     1      -4.855   1.770  26.089  0.00  0.00    +0.171 C 
ATOM     20  C   UNL     1      -4.090  -1.500  25.595  0.00  0.00    +0.181 C 
ATOM     21  C   UNL     1      -6.197   1.158  25.693  0.00  0.00    +0.190 C 
BRANCH  14   4
ATOM      4  N   UNL     1      -2.976  -1.337  23.433  0.00  0.00    -0.309 NA
ATOM     31  H   UNL     1      -2.473  -0.450  23.397  0.00  0.00    +0.122 HD
BRANCH   4  19
ATOM     19  C   UNL     1      -2.146  -2.304  24.135  0.00  0.00    +0.084 C 
BRANCH  19  15
ATOM     15  C   UNL     1      -0.824  -1.717  24.509  0.00  0.00    +0.003 C 
ATOM     17  C   UNL     1       0.040  -2.431  25.506  0.00  0.00    +0.005 C 
ATOM     18  C   UNL     1      -0.637  -1.147  25.884  0.00  0.00    +0.005 C 
ENDBRANCH  19  15
ENDBRANCH   4  19
ENDBRANCH  14   4
ENDBRANCH   5  16
BRANCH  22   3
ATOM      3  O   UNL     1      -2.408   3.599  26.378  0.00  0.00    -0.423 OA
BRANCH   3  23
ATOM     23  C   UNL     1      -1.421   2.959  25.610  0.00  0.00    +0.132 A 
ATOM     24  C   UNL     1      -0.188   2.646  26.181  0.00  0.00    +0.048 A 
ATOM     25  C   UNL     1      -1.675   2.637  24.276  0.00  0.00    +0.048 A 
ATOM     26  C   UNL     1       0.792   2.009  25.418  0.00  0.00    +0.031 A 
ATOM     27  C   UNL     1      -0.696   2.001  23.514  0.00  0.00    +0.031 A 
ATOM     28  C   UNL     1       0.538   1.687  24.084  0.00  0.00    +0.067 A 
BRANCH  28   9
ATOM      9  N   UNL     1       1.508   1.055  23.329  0.00  0.00    -0.220 N 
ATOM     10  N   UNL     1       2.800   1.408  23.398  0.00  0.00    -0.154 NA
ATOM     11  N   UNL     1       2.476  -0.304  21.916  0.00  0.00    -0.222 NA
ATOM     29  C   UNL     1       1.324   0.037  22.445  0.00  0.00    +0.225 A 
ATOM     30  C   UNL     1       3.344   0.556  22.525  0.00  0.00    +0.245 A 
ENDBRANCH  28   9
ENDBRANCH   3  23
ENDBRANCH  22   3
TORSDOF 7
ENDMDL
MODEL 5
REMARK VINA RESULT:       0.6      2.873      5.189
REMARK  Name = 38345773
REMARK  7 active torsions:
REMARK  status: ('A' for Active; 'I' for Inactive)
REMARK    1  A    between atoms: O_3  and  C_22
REMARK    2  A    between atoms: O_3  and  C_23
REMARK    3  A    between atoms: N_4  and  C_14
REMARK    4  A    between atoms: N_4  and  C_19
REMARK    5  A    between atoms: N_5  and  C_16
REMARK    6  A    between atoms: N_9  and  C_28
REMARK    7  A    between atoms: C_15  and  C_19
REMARK                            x       y       z     vdW  Elec       q    Type
REMARK                         _______ _______ _______ _____ _____    ______ ____
ROOT
ATOM      5  N   UNL     1      -4.662   1.593  25.015  0.00  0.00    -0.187 N 
ATOM      6  N   UNL     1      -5.916   1.971  25.297  0.00  0.00    -0.041 NA
ATOM      7  N   UNL     1      -4.728   3.718  24.586  0.00  0.00    -0.071 NA
ATOM      8  N   UNL     1      -5.952   3.271  25.034  0.00  0.00    -0.020 NA
ATOM     22  C   UNL     1      -3.946   2.664  24.581  0.00  0.00    +0.342 A 
ENDROOT
BRANCH   5  16
ATOM      1  O   UNL     1      -2.314  -1.100  26.017  0.00  0.00    -0.370 OA
ATOM      2  O   UNL     1      -3.449  -0.815  23.145  0.00  0.00    -0.370 OA
ATOM     12  C   UNL     1      -2.302  -0.248  23.800  0.00  0.00    +0.168 C 
ATOM     13  C   UNL     1      -2.701   0.045  25.233  0.00  0.00    +0.175 C 
ATOM     14  C   UNL     1      -1.202  -1.280  23.923  0.00  0.00    +0.111 C 
ATOM     16  C   UNL     1      -4.216   0.154  25.190  0.00  0.00    +0.171 C 
ATOM     20  C   UNL     1      -1.621  -2.033  25.176  0.00  0.00    +0.181 C 
ATOM     21  C   UNL     1      -4.568  -0.791  24.042  0.00  0.00    +0.190 C 
BRANCH  14   4
ATOM      4  N   UNL     1       0.088  -0.633  24.145  0.00  0.00    -0.309 NA
ATOM     31  H   UNL     1       0.710  -1.273  24.638  0.00  0.00    +0.122 HD
BRANCH   4  19
ATOM     19  C   UNL     1       0.710  -0.275  22.880  0.00  0.00    +0.084 C 
BRANCH  19  15
ATOM     15  C   UNL     1       2.200  -0.308  22.978  0.00  0.00    +0.003 C 
ATOM     17  C   UNL     1       2.966   0.982  22.972  0.00  0.00    +0.005 C 
ATOM     18  C   UNL     1       3.022   0.072  21.781  0.00  0.00    +0.005 C 
ENDBRANCH  19  15
ENDBRANCH   4  19
ENDBRANCH  14   4
ENDBRANCH   5  16
BRANCH  22   3
ATOM      3  O   UNL     1      -2.677   2.625  24.221  0.00  0.00    -0.423 OA
BRANCH   3  23
ATOM     23  C   UNL     1      -1.683   2.641  25.213  0.00  0.00    +0.132 A 
ATOM     24  C   UNL     1      -2.011   2.984  26.525  0.00  0.00    +0.048 A 
ATOM     25  C   UNL     1      -0.366   2.313  24.887  0.00  0.00    +0.048 A 
ATOM     26  C   UNL     1      -1.024   2.999  27.510  0.00  0.00    +0.031 A 
ATOM     27  C   UNL     1       0.621   2.329  25.871  0.00  0.00    +0.031 A 
ATOM     28  C   UNL     1       0.293   2.672  27.183  0.00  0.00    +0.067 A 
BRANCH  28   9
ATOM      9  N   UNL     1       1.271   2.685  28.160  0.00  0.00    -0.220 N 
ATOM     10  N   UNL     1       2.468   3.254  27.955  0.00  0.00    -0.154 NA
ATOM     11  N   UNL     1       2.313   2.358  30.054  0.00  0.00    -0.222 NA
ATOM     29  C   UNL     1       1.187   2.154  29.410  0.00  0.00    +0.225 A 
ATOM     30  C   UNL     1       3.061   3.030  29.130  0.00  0.00    +0.245 A 
ENDBRANCH  28   9
ENDBRANCH   3  23
ENDBRANCH  22   3
TORSDOF 7
ENDMDL
MODEL 6
REMARK VINA RESULT:       0.8      2.520      3.691
REMARK  Name = 38345773
REMARK  7 active torsions:
REMARK  status: ('A' for Active; 'I' for Inactive)
REMARK    1  A    between atoms: O_3  and  C_22
REMARK    2  A    between atoms: O_3  and  C_23
REMARK    3  A    between atoms: N_4  and  C_14
REMARK    4  A    between atoms: N_4  and  C_19
REMARK    5  A    between atoms: N_5  and  C_16
REMARK    6  A    between atoms: N_9  and  C_28
REMARK    7  A    between atoms: C_15  and  C_19
REMARK                            x       y       z     vdW  Elec       q    Type
REMARK                         _______ _______ _______ _____ _____    ______ ____
ROOT
ATOM      5  N   UNL     1      -4.830   2.576  25.381  0.00  0.00    -0.187 N 
ATOM      6  N   UNL     1      -5.489   3.083  26.431  0.00  0.00    -0.041 NA
ATOM      7  N   UNL     1      -6.159   0.994  26.038  0.00  0.00    -0.071 NA
ATOM      8  N   UNL     1      -6.301   2.112  26.830  0.00  0.00    -0.020 NA
ATOM     22  C   UNL     1      -5.244   1.303  25.149  0.00  0.00    +0.342 A 
ENDROOT
BRANCH   5  16
ATOM      1  O   UNL     1      -1.530   3.178  23.794  0.00  0.00    -0.370 OA
ATOM      2  O   UNL     1      -2.683   4.967  26.050  0.00  0.00    -0.370 OA
ATOM     12  C   UNL     1      -1.903   3.760  26.066  0.00  0.00    +0.168 C 
ATOM     13  C   UNL     1      -2.386   2.896  24.918  0.00  0.00    +0.175 C 
ATOM     14  C   UNL     1      -0.460   4.062  25.725  0.00  0.00    +0.111 C 
ATOM     16  C   UNL     1      -3.793   3.394  24.634  0.00  0.00    +0.171 C 
ATOM     20  C   UNL     1      -0.498   4.087  24.206  0.00  0.00    +0.181 C 
ATOM     21  C   UNL     1      -3.695   4.863  25.037  0.00  0.00    +0.190 C 
BRANCH  14   4
ATOM      4  N   UNL     1       0.412   2.981  26.178  0.00  0.00    -0.309 NA
ATOM     31  H   UNL     1       1.386   3.266  26.083  0.00  0.00    +0.122 HD
BRANCH   4  19
ATOM     19  C   UNL     1       0.161   2.668  27.577  0.00  0.00    +0.084 C 
BRANCH  19  15
ATOM     15  C   UNL     1       1.403   2.196  28.259  0.00  0.00    +0.003 C 
ATOM     17  C   UNL     1       1.536   2.369  29.744  0.00  0.00    +0.005 C 
ATOM     18  C   UNL     1       2.364   3.206  28.814  0.00  0.00    +0.005 C 
ENDBRANCH  19  15
ENDBRANCH   4  19
ENDBRANCH  14   4
ENDBRANCH   5  16
BRANCH  22   3
ATOM      3  O   UNL     1      -4.788   0.526  24.184  0.00  0.00    -0.423 OA
BRANCH   3  23
ATOM     23  C   UNL     1      -3.406   0.483  23.935  0.00  0.00    +0.132 A 
ATOM     24  C   UNL     1      -2.902   0.940  22.718  0.00  0.00    +0.048 A 
ATOM     25  C   UNL     1      -2.537  -0.016  24.907  0.00  0.00    +0.048 A 
ATOM     26  C   UNL     1      -1.530   0.898  22.471  0.00  0.00    +0.031 A 
ATOM     27  C   UNL     1      -1.166  -0.059  24.660  0.00  0.00    +0.031 A 
ATOM     28  C   UNL     1      -0.661   0.398  23.442  0.00  0.00    +0.067 A 
BRANCH  28   9
ATOM      9  N   UNL     1       0.699   0.358  23.198  0.00  0.00    -0.220 N 
ATOM     10  N   UNL     1       1.549   1.211  23.789  0.00  0.00    -0.154 NA
ATOM     11  N   UNL     1       2.643  -0.234  22.393  0.00  0.00    -0.222 NA
ATOM     29  C   UNL     1       1.357  -0.497  22.370  0.00  0.00    +0.225 A 
ATOM     30  C   UNL     1       2.712   0.811  23.269  0.00  0.00    +0.245 A 
ENDBRANCH  28   9
ENDBRANCH   3  23
ENDBRANCH  22   3
TORSDOF 7
ENDMDL
MODEL 7
REMARK VINA RESULT:       1.5      2.795      5.038
REMARK  Name = 38345773
REMARK  7 active torsions:
REMARK  status: ('A' for Active; 'I' for Inactive)
REMARK    1  A    between atoms: O_3  and  C_22
REMARK    2  A    between atoms: O_3  and  C_23
REMARK    3  A    between atoms: N_4  and  C_14
REMARK    4  A    between atoms: N_4  and  C_19
REMARK    5  A    between atoms: N_5  and  C_16
REMARK    6  A    between atoms: N_9  and  C_28
REMARK    7  A    between atoms: C_15  and  C_19
REMARK                            x       y       z     vdW  Elec       q    Type
REMARK                         _______ _______ _______ _____ _____    ______ ____
ROOT
ATOM      5  N   UNL     1      -4.663   3.680  24.993  0.00  0.00    -0.187 N 
ATOM      6  N   UNL     1      -4.981   4.705  25.796  0.00  0.00    -0.041 NA
ATOM      7  N   UNL     1      -6.591   3.164  25.841  0.00  0.00    -0.071 NA
ATOM      8  N   UNL     1      -6.161   4.384  26.312  0.00  0.00    -0.020 NA
ATOM     22  C   UNL     1      -5.649   2.746  25.028  0.00  0.00    +0.342 A 
ENDROOT
BRANCH   5  16
ATOM      1  O   UNL     1      -1.423   2.259  23.873  0.00  0.00    -0.370 OA
ATOM      2  O   UNL     1      -1.686   5.046  25.208  0.00  0.00    -0.370 OA
ATOM     12  C   UNL     1      -1.521   3.722  25.742  0.00  0.00    +0.168 C 
ATOM     13  C   UNL     1      -2.325   2.780  24.868  0.00  0.00    +0.175 C 
ATOM     14  C   UNL     1      -0.090   3.260  25.569  0.00  0.00    +0.111 C 
ATOM     16  C   UNL     1      -3.365   3.670  24.208  0.00  0.00    +0.171 C 
ATOM     20  C   UNL     1      -0.099   2.747  24.138  0.00  0.00    +0.181 C 
ATOM     21  C   UNL     1      -2.630   5.007  24.129  0.00  0.00    +0.190 C 
BRANCH  14   4
ATOM      4  N   UNL     1       0.210   2.162  26.484  0.00  0.00    -0.309 NA
ATOM     31  H   UNL     1       1.124   1.770  26.258  0.00  0.00    +0.122 HD
BRANCH   4  19
ATOM     19  C   UNL     1       0.241   2.632  27.861  0.00  0.00    +0.084 C 
BRANCH  19  15
ATOM     15  C   UNL     1       1.429   2.096  28.591  0.00  0.00    +0.003 C 
ATOM     17  C   UNL     1       1.585   2.391  30.054  0.00  0.00    +0.005 C 
ATOM     18  C   UNL     1       2.493   3.046  29.056  0.00  0.00    +0.005 C 
ENDBRANCH  19  15
ENDBRANCH   4  19
ENDBRANCH  14   4
ENDBRANCH   5  16
BRANCH  22   3
ATOM      3  O   UNL     1      -5.639   1.615  24.347  0.00  0.00    -0.423 OA
BRANCH   3  23
ATOM     23  C   UNL     1      -4.570   0.721  24.521  0.00  0.00    +0.132 A 
ATOM     24  C   UNL     1      -4.275   0.224  25.790  0.00  0.00    +0.048 A 
ATOM     25  C   UNL     1      -3.803   0.328  23.422  0.00  0.00    +0.048 A 
ATOM     26  C   UNL     1      -3.214  -0.666  25.963  0.00  0.00    +0.031 A 
ATOM     27  C   UNL     1      -2.742  -0.560  23.595  0.00  0.00    +0.031 A 
ATOM     28  C   UNL     1      -2.447  -1.057  24.864  0.00  0.00    +0.067 A 
BRANCH  28   9
ATOM      9  N   UNL     1      -1.397  -1.940  25.034  0.00  0.00    -0.220 N 
ATOM     10  N   UNL     1      -1.507  -3.239  24.720  0.00  0.00    -0.154 NA
ATOM     11  N   UNL     1       0.572  -2.745  25.537  0.00  0.00    -0.222 NA
ATOM     29  C   UNL     1      -0.158  -1.654  25.519  0.00  0.00    +0.225 A 
ATOM     30  C   UNL     1      -0.289  -3.682  25.042  0.00  0.00    +0.245 A 
ENDBRANCH  28   9
ENDBRANCH   3  23
ENDBRANCH  22   3
TORSDOF 7
ENDMDL
MODEL 8
REMARK VINA RESULT:       2.4      1.747      3.212
REMARK  Name = 38345773
REMARK  7 active torsions:
REMARK  status: ('A' for Active; 'I' for Inactive)
REMARK    1  A    between atoms: O_3  and  C_22
REMARK    2  A    between atoms: O_3  and  C_23
REMARK    3  A    between atoms: N_4  and  C_14
REMARK    4  A    between atoms: N_4  and  C_19
REMARK    5  A    between atoms: N_5  and  C_16
REMARK    6  A    between atoms: N_9  and  C_28
REMARK    7  A    between atoms: C_15  and  C_19
REMARK                            x       y       z     vdW  Elec       q    Type
REMARK                         _______ _______ _______ _____ _____    ______ ____
ROOT
ATOM      5  N   UNL     1      -2.356  -0.219  25.019  0.00  0.00    -0.187 N 
ATOM      6  N   UNL     1      -3.188  -0.479  26.037  0.00  0.00    -0.041 NA
ATOM      7  N   UNL     1      -3.005  -2.267  24.718  0.00  0.00    -0.071 NA
ATOM      8  N   UNL     1      -3.582  -1.732  25.849  0.00  0.00    -0.020 NA
ATOM     22  C   UNL     1      -2.250  -1.314  24.222  0.00  0.00    +0.342 A 
ENDROOT
BRANCH   5  16
ATOM      1  O   UNL     1      -1.582   3.270  26.019  0.00  0.00    -0.370 OA
ATOM      2  O   UNL     1      -2.759   2.515  23.250  0.00  0.00    -0.370 OA
ATOM     12  C   UNL     1      -3.366   2.808  24.520  0.00  0.00    +0.168 C 
ATOM     13  C   UNL     1      -2.472   2.219  25.593  0.00  0.00    +0.175 C 
ATOM     14  C   UNL     1      -3.337   4.297  24.785  0.00  0.00    +0.111 C 
ATOM     16  C   UNL     1      -1.685   1.134  24.878  0.00  0.00    +0.171 C 
ATOM     20  C   UNL     1      -1.936   4.486  25.344  0.00  0.00    +0.181 C 
ATOM     21  C   UNL     1      -1.607   1.686  23.456  0.00  0.00    +0.190 C 
BRANCH  14   4
ATOM      4  N   UNL     1      -4.324   4.658  25.800  0.00  0.00    -0.309 NA
ATOM     31  H   UNL     1      -4.480   5.666  25.781  0.00  0.00    +0.122 HD
BRANCH   4  19
ATOM     19  C   UNL     1      -5.593   3.994  25.543  0.00  0.00    +0.084 C 
BRANCH  19  15
ATOM     15  C   UNL     1      -5.505   2.528  25.820  0.00  0.00    +0.003 C 
ATOM     17  C   UNL     1      -6.425   1.588  25.098  0.00  0.00    +0.005 C 
ATOM     18  C   UNL     1      -6.622   1.854  26.561  0.00  0.00    +0.005 C 
ENDBRANCH  19  15
ENDBRANCH   4  19
ENDBRANCH  14   4
ENDBRANCH   5  16
BRANCH  22   3
ATOM      3  O   UNL     1      -1.506  -1.384  23.134  0.00  0.00    -0.423 OA
BRANCH   3  23
ATOM     23  C   UNL     1      -0.129  -1.126  23.228  0.00  0.00    +0.132 A 
ATOM     24  C   UNL     1       0.601  -1.618  24.310  0.00  0.00    +0.048 A 
ATOM     25  C   UNL     1       0.510  -0.378  22.238  0.00  0.00    +0.048 A 
ATOM     26  C   UNL     1       1.969  -1.363  24.403  0.00  0.00    +0.031 A 
ATOM     27  C   UNL     1       1.877  -0.122  22.331  0.00  0.00    +0.031 A 
ATOM     28  C   UNL     1       2.608  -0.613  23.413  0.00  0.00    +0.067 A 
BRANCH  28   9
ATOM      9  N   UNL     1       3.964  -0.361  23.504  0.00  0.00    -0.220 N 
ATOM     10  N   UNL     1       4.486   0.829  23.174  0.00  0.00    -0.154 NA
ATOM     11  N   UNL     1       6.102  -0.634  23.867  0.00  0.00    -0.222 NA
ATOM     29  C   UNL     1       4.931  -1.225  23.915  0.00  0.00    +0.225 A 
ATOM     30  C   UNL     1       5.782   0.613  23.412  0.00  0.00    +0.245 A 
ENDBRANCH  28   9
ENDBRANCH   3  23
ENDBRANCH  22   3
TORSDOF 7
ENDMDL
