MODEL 1
REMARK VINA RESULT:      -4.9      0.000      0.000
REMARK  Name = 25338211
REMARK  4 active torsions:
REMARK  status: ('A' for Active; 'I' for Inactive)
REMARK    1  A    between atoms: O_4  and  C_10
REMARK    2  A    between atoms: N_6  and  C_9
REMARK    3  A    between atoms: N_7  and  C_11
REMARK    4  A    between atoms: N_8  and  C_21
REMARK                            x       y       z     vdW  Elec       q    Type
REMARK                         _______ _______ _______ _____ _____    ______ ____
ROOT
ATOM      2  O   UNL     1      -1.917   1.608  25.647  0.00  0.00    -0.342 OA
ATOM      3  O   UNL     1      -3.735   3.049  25.639  0.00  0.00    -0.347 OA
ATOM      9  C   UNL     1      -3.762   1.124  24.173  0.00  0.00    +0.143 C 
ATOM     10  C   UNL     1      -3.102   1.949  23.043  0.00  0.00    +0.159 C 
ATOM     11  C   UNL     1      -1.695   2.471  23.407  0.00  0.00    +0.136 C 
ATOM     12  C   UNL     1      -3.346   1.668  25.552  0.00  0.00    +0.270 C 
ATOM     13  C   UNL     1      -1.528   2.772  24.911  0.00  0.00    +0.170 C 
ATOM     14  C   UNL     1      -2.518   3.786  25.455  0.00  0.00    +0.196 C 
ENDROOT
BRANCH  11   7
ATOM      5  O   UNL     1       1.013   2.328  24.326  0.00  0.00    -0.252 OA
ATOM      7  N   UNL     1      -0.686   1.524  22.982  0.00  0.00    -0.291 N 
ATOM      8  N   UNL     1       1.363   0.502  22.892  0.00  0.00    -0.269 N 
ATOM     20  C   UNL     1       0.617   1.526  23.485  0.00  0.00    +0.304 C 
ATOM     27  H   UNL     1      -0.916   0.882  22.230  0.00  0.00    +0.151 HD
ATOM     29  H   UNL     1       0.881  -0.078  22.209  0.00  0.00    +0.156 HD
BRANCH   8  21
ATOM      1  F   UNL     1       6.670  -0.807  23.810  0.00  0.00    -0.205 F 
ATOM     21  C   UNL     1       2.717   0.168  23.126  0.00  0.00    +0.035 A 
ATOM     22  C   UNL     1       3.052  -1.108  23.582  0.00  0.00    +0.026 A 
ATOM     23  C   UNL     1       3.718   1.113  22.901  0.00  0.00    +0.026 A 
ATOM     24  C   UNL     1       4.388  -1.437  23.814  0.00  0.00    +0.040 A 
ATOM     25  C   UNL     1       5.053   0.784  23.133  0.00  0.00    +0.040 A 
ATOM     26  C   UNL     1       5.388  -0.491  23.589  0.00  0.00    +0.124 A 
ENDBRANCH   8  21
ENDBRANCH  11   7
BRANCH   9   6
ATOM      6  N   UNL     1      -3.381  -0.283  24.059  0.00  0.00    -0.293 NA
ATOM     15  C   UNL     1      -4.575  -1.134  23.979  0.00  0.00    +0.085 C 
ATOM     16  C   UNL     1      -2.523  -0.675  25.186  0.00  0.00    +0.085 C 
ATOM     17  C   UNL     1      -4.194  -2.606  23.810  0.00  0.00    +0.015 C 
ATOM     18  C   UNL     1      -2.074  -2.131  25.056  0.00  0.00    +0.015 C 
ATOM     19  C   UNL     1      -3.268  -3.071  24.928  0.00  0.00    +0.002 C 
ENDBRANCH   9   6
BRANCH  10   4
ATOM      4  O   UNL     1      -3.952   3.068  22.765  0.00  0.00    -0.388 OA
ATOM     28  H   UNL     1      -4.528   3.199  23.539  0.00  0.00    +0.210 HD
ENDBRANCH  10   4
TORSDOF 4
ENDMDL
MODEL 2
REMARK VINA RESULT:      -4.6      1.783      3.847
REMARK  Name = 25338211
REMARK  4 active torsions:
REMARK  status: ('A' for Active; 'I' for Inactive)
REMARK    1  A    between atoms: O_4  and  C_10
REMARK    2  A    between atoms: N_6  and  C_9
REMARK    3  A    between atoms: N_7  and  C_11
REMARK    4  A    between atoms: N_8  and  C_21
REMARK                            x       y       z     vdW  Elec       q    Type
REMARK                         _______ _______ _______ _____ _____    ______ ____
ROOT
ATOM      2  O   UNL     1      -3.721   0.460  23.128  0.00  0.00    -0.342 OA
ATOM      3  O   UNL     1      -5.093  -0.321  24.826  0.00  0.00    -0.347 OA
ATOM      9  C   UNL     1      -3.215   1.091  25.399  0.00  0.00    +0.143 C 
ATOM     10  C   UNL     1      -2.305  -0.149  25.562  0.00  0.00    +0.159 C 
ATOM     11  C   UNL     1      -2.136  -0.961  24.260  0.00  0.00    +0.136 C 
ATOM     12  C   UNL     1      -4.331   0.811  24.377  0.00  0.00    +0.270 C 
ATOM     13  C   UNL     1      -3.379  -0.912  23.347  0.00  0.00    +0.170 C 
ATOM     14  C   UNL     1      -4.652  -1.412  24.004  0.00  0.00    +0.196 C 
ENDROOT
BRANCH  11   7
ATOM      5  O   UNL     1       0.604  -1.288  25.024  0.00  0.00    -0.252 OA
ATOM      7  N   UNL     1      -0.973  -0.499  23.532  0.00  0.00    -0.291 N 
ATOM      8  N   UNL     1       1.244  -0.150  23.073  0.00  0.00    -0.269 N 
ATOM     20  C   UNL     1       0.334  -0.703  23.979  0.00  0.00    +0.304 C 
ATOM     27  H   UNL     1      -1.120   0.063  22.699  0.00  0.00    +0.151 HD
ATOM     29  H   UNL     1       0.852   0.303  22.251  0.00  0.00    +0.156 HD
BRANCH   8  21
ATOM      1  F   UNL     1       6.777  -0.117  23.406  0.00  0.00    -0.205 F 
ATOM     21  C   UNL     1       2.656  -0.142  23.158  0.00  0.00    +0.035 A 
ATOM     22  C   UNL     1       3.333  -1.269  23.623  0.00  0.00    +0.026 A 
ATOM     23  C   UNL     1       3.371   0.993  22.776  0.00  0.00    +0.026 A 
ATOM     24  C   UNL     1       4.726  -1.261  23.708  0.00  0.00    +0.040 A 
ATOM     25  C   UNL     1       4.763   1.002  22.861  0.00  0.00    +0.040 A 
ATOM     26  C   UNL     1       5.440  -0.125  23.326  0.00  0.00    +0.124 A 
ENDBRANCH   8  21
ENDBRANCH  11   7
BRANCH   9   6
ATOM      6  N   UNL     1      -2.425   2.243  24.968  0.00  0.00    -0.293 NA
ATOM     15  C   UNL     1      -1.158   2.305  25.708  0.00  0.00    +0.085 C 
ATOM     16  C   UNL     1      -3.195   3.484  25.129  0.00  0.00    +0.085 C 
ATOM     17  C   UNL     1      -0.297   3.477  25.233  0.00  0.00    +0.015 C 
ATOM     18  C   UNL     1      -2.402   4.694  24.635  0.00  0.00    +0.015 C 
ATOM     19  C   UNL     1      -1.052   4.796  25.336  0.00  0.00    +0.002 C 
ENDBRANCH   9   6
BRANCH  10   4
ATOM      4  O   UNL     1      -2.892  -0.993  26.560  0.00  0.00    -0.388 OA
ATOM     28  H   UNL     1      -3.631  -1.470  26.144  0.00  0.00    +0.210 HD
ENDBRANCH  10   4
TORSDOF 4
ENDMDL
MODEL 3
REMARK VINA RESULT:      -3.1     15.366     18.050
REMARK  Name = 25338211
REMARK  4 active torsions:
REMARK  status: ('A' for Active; 'I' for Inactive)
REMARK    1  A    between atoms: O_4  and  C_10
REMARK    2  A    between atoms: N_6  and  C_9
REMARK    3  A    between atoms: N_7  and  C_11
REMARK    4  A    between atoms: N_8  and  C_21
REMARK                            x       y       z     vdW  Elec       q    Type
REMARK                         _______ _______ _______ _____ _____    ______ ____
ROOT
ATOM      2  O   UNL     1      -8.538 -10.780   9.150  0.00  0.00    -0.342 OA
ATOM      3  O   UNL     1      -9.834  -9.153   8.124  0.00  0.00    -0.347 OA
ATOM      9  C   UNL     1      -7.921  -8.467   9.436  0.00  0.00    +0.143 C 
ATOM     10  C   UNL     1      -8.799  -8.369  10.705  0.00  0.00    +0.159 C 
ATOM     11  C   UNL     1      -9.427  -9.716  11.123  0.00  0.00    +0.136 C 
ATOM     12  C   UNL     1      -8.488  -9.521   8.467  0.00  0.00    +0.270 C 
ATOM     13  C   UNL     1      -9.732 -10.642   9.927  0.00  0.00    +0.170 C 
ATOM     14  C   UNL     1     -10.663 -10.035   8.895  0.00  0.00    +0.196 C 
ENDROOT
BRANCH  11   7
ATOM      5  O   UNL     1      -8.793  -8.876  13.786  0.00  0.00    -0.252 OA
ATOM      7  N   UNL     1      -8.562 -10.398  12.063  0.00  0.00    -0.291 N 
ATOM      8  N   UNL     1      -7.441 -10.781  14.024  0.00  0.00    -0.269 N 
ATOM     20  C   UNL     1      -8.307  -9.916  13.348  0.00  0.00    +0.304 C 
ATOM     27  H   UNL     1      -8.061 -11.222  11.745  0.00  0.00    +0.151 HD
ATOM     29  H   UNL     1      -7.129 -11.604  13.515  0.00  0.00    +0.156 HD
BRANCH   8  21
ATOM      1  F   UNL     1      -5.476 -10.278  19.183  0.00  0.00    -0.205 F 
ATOM     21  C   UNL     1      -6.939 -10.653  15.341  0.00  0.00    +0.035 A 
ATOM     22  C   UNL     1      -7.821 -10.495  16.410  0.00  0.00    +0.026 A 
ATOM     23  C   UNL     1      -5.564 -10.684  15.569  0.00  0.00    +0.026 A 
ATOM     24  C   UNL     1      -7.327 -10.368  17.709  0.00  0.00    +0.040 A 
ATOM     25  C   UNL     1      -5.070 -10.557  16.867  0.00  0.00    +0.040 A 
ATOM     26  C   UNL     1      -5.951 -10.399  17.936  0.00  0.00    +0.124 A 
ENDBRANCH   8  21
ENDBRANCH  11   7
BRANCH   9   6
ATOM      6  N   UNL     1      -6.548  -8.815   9.799  0.00  0.00    -0.293 NA
ATOM     15  C   UNL     1      -5.763  -7.602  10.068  0.00  0.00    +0.085 C 
ATOM     16  C   UNL     1      -5.926  -9.626   8.742  0.00  0.00    +0.085 C 
ATOM     17  C   UNL     1      -4.337  -7.951  10.498  0.00  0.00    +0.015 C 
ATOM     18  C   UNL     1      -4.506 -10.041   9.129  0.00  0.00    +0.015 C 
ATOM     19  C   UNL     1      -3.645  -8.828   9.462  0.00  0.00    +0.002 C 
ENDBRANCH   9   6
BRANCH  10   4
ATOM      4  O   UNL     1      -9.851  -7.433  10.436  0.00  0.00    -0.388 OA
ATOM     28  H   UNL     1      -9.449  -6.649  10.024  0.00  0.00    +0.210 HD
ENDBRANCH  10   4
TORSDOF 4
ENDMDL
