MODEL 1
REMARK VINA RESULT:      -3.4      0.000      0.000
REMARK  Name = 75537014
REMARK  2 active torsions:
REMARK  status: ('A' for Active; 'I' for Inactive)
REMARK    1  A    between atoms: N_4  and  C_9
REMARK    2  A    between atoms: C_20  and  C_21
REMARK                            x       y       z     vdW  Elec       q    Type
REMARK                         _______ _______ _______ _____ _____    ______ ____
ROOT
ATOM      1  O   UNL     1      15.515 -10.134  27.989  0.00  0.00    -0.252 OA
ATOM      2  O   UNL     1      17.405  -5.890  22.771  0.00  0.00    -0.267 OA
ATOM      4  N   UNL     1      15.267  -7.989  28.935  0.00  0.00    -0.281 N 
ATOM      5  N   UNL     1      15.834  -8.154  26.766  0.00  0.00    -0.278 N 
ATOM      6  N   UNL     1      17.088  -6.378  25.034  0.00  0.00    -0.292 N 
ATOM      8  C   UNL     1      15.650  -6.729  26.991  0.00  0.00    +0.112 C 
ATOM     10  C   UNL     1      15.479  -6.619  28.503  0.00  0.00    +0.133 C 
ATOM     13  C   UNL     1      16.832  -5.951  26.423  0.00  0.00    +0.132 C 
ATOM     14  C   UNL     1      15.533  -8.913  27.905  0.00  0.00    +0.305 C 
ATOM     15  C   UNL     1      16.183  -8.637  25.443  0.00  0.00    +0.128 C 
ATOM     19  C   UNL     1      17.341  -7.817  24.874  0.00  0.00    +0.127 C 
ATOM     20  C   UNL     1      17.149  -5.538  23.921  0.00  0.00    +0.285 C 
ENDROOT
BRANCH   4   9
ATOM      9  C   UNL     1      14.952  -8.319  30.304  0.00  0.00    +0.078 C 
ATOM     11  C   UNL     1      15.333  -7.168  31.239  0.00  0.00    +0.022 C 
ATOM     12  C   UNL     1      13.473  -8.683  30.442  0.00  0.00    +0.022 C 
ATOM     16  C   UNL     1      14.959  -7.474  32.687  0.00  0.00    +0.002 C 
ATOM     17  C   UNL     1      13.101  -8.986  31.892  0.00  0.00    +0.002 C 
ATOM     18  C   UNL     1      13.484  -7.838  32.822  0.00  0.00    +0.000 C 
ENDBRANCH   4   9
BRANCH  20  21
ATOM      3  O   UNL     1      17.405  -3.500  25.211  0.00  0.00    -0.350 OA
ATOM      7  N   UNL     1      17.033  -2.160  25.215  0.00  0.00    -0.086 NA
ATOM     21  C   UNL     1      16.877  -4.108  24.119  0.00  0.00    +0.222 A 
ATOM     22  C   UNL     1      16.156  -3.201  23.389  0.00  0.00    +0.077 A 
ATOM     23  C   UNL     1      16.288  -2.006  24.117  0.00  0.00    +0.157 A 
ENDBRANCH  20  21
TORSDOF 2
ENDMDL
MODEL 2
REMARK VINA RESULT:      -0.2     18.715     20.000
REMARK  Name = 75537014
REMARK  2 active torsions:
REMARK  status: ('A' for Active; 'I' for Inactive)
REMARK    1  A    between atoms: N_4  and  C_9
REMARK    2  A    between atoms: C_20  and  C_21
REMARK                            x       y       z     vdW  Elec       q    Type
REMARK                         _______ _______ _______ _____ _____    ______ ____
ROOT
ATOM      1  O   UNL     1       0.128  -2.249  24.372  0.00  0.00    -0.252 OA
ATOM      2  O   UNL     1      -5.972   0.829  25.829  0.00  0.00    -0.267 OA
ATOM      4  N   UNL     1       0.508  -0.005  23.758  0.00  0.00    -0.281 N 
ATOM      5  N   UNL     1      -1.453  -0.545  24.715  0.00  0.00    -0.278 N 
ATOM      6  N   UNL     1      -3.940   0.694  24.683  0.00  0.00    -0.292 N 
ATOM      8  C   UNL     1      -1.497   0.901  24.577  0.00  0.00    +0.112 C 
ATOM     10  C   UNL     1      -0.265   1.225  23.738  0.00  0.00    +0.133 C 
ATOM     13  C   UNL     1      -2.823   1.329  23.957  0.00  0.00    +0.132 C 
ATOM     14  C   UNL     1      -0.227  -1.080  24.295  0.00  0.00    +0.305 C 
ATOM     15  C   UNL     1      -2.563  -1.248  25.332  0.00  0.00    +0.128 C 
ATOM     19  C   UNL     1      -3.884  -0.774  24.727  0.00  0.00    +0.127 C 
ATOM     20  C   UNL     1      -5.020   1.363  25.262  0.00  0.00    +0.285 C 
ENDROOT
BRANCH   4   9
ATOM      9  C   UNL     1       1.818  -0.093  23.162  0.00  0.00    +0.078 C 
ATOM     11  C   UNL     1       2.469   1.291  23.078  0.00  0.00    +0.022 C 
ATOM     12  C   UNL     1       2.697  -1.076  23.938  0.00  0.00    +0.022 C 
ATOM     16  C   UNL     1       3.880   1.213  22.499  0.00  0.00    +0.002 C 
ATOM     17  C   UNL     1       4.108  -1.149  23.359  0.00  0.00    +0.002 C 
ATOM     18  C   UNL     1       4.753   0.232  23.274  0.00  0.00    +0.000 C 
ENDBRANCH   4   9
BRANCH  20  21
ATOM      3  O   UNL     1      -6.048   3.486  25.827  0.00  0.00    -0.350 OA
ATOM      7  N   UNL     1      -5.879   4.856  25.661  0.00  0.00    -0.086 NA
ATOM     21  C   UNL     1      -5.033   2.830  25.209  0.00  0.00    +0.222 A 
ATOM     22  C   UNL     1      -4.185   3.736  24.629  0.00  0.00    +0.077 A 
ATOM     23  C   UNL     1      -4.760   4.980  24.942  0.00  0.00    +0.157 A 
ENDBRANCH  20  21
TORSDOF 2
ENDMDL
