MODEL 1
REMARK VINA RESULT:       2.6      0.000      0.000
REMARK  Name = 45784388
REMARK  14 active torsions:
REMARK  status: ('A' for Active; 'I' for Inactive)
REMARK    1  A    between atoms: O_1  and  C_11
REMARK    2  A    between atoms: O_4  and  C_31
REMARK    3  A    between atoms: O_4  and  C_37
REMARK    4  A    between atoms: O_5  and  C_32
REMARK    5  A    between atoms: O_5  and  C_38
REMARK    6  A    between atoms: N_6  and  C_15
REMARK    7  A    between atoms: N_7  and  C_25
REMARK    8  A    between atoms: C_8  and  C_18
REMARK    9  A    between atoms: C_10  and  C_20
REMARK   10  A    between atoms: C_14  and  C_19
REMARK   11  A    between atoms: C_19  and  C_21
REMARK   12  A    between atoms: C_19  and  C_22
REMARK   13  A    between atoms: C_23  and  C_24
REMARK   14  A    between atoms: C_25  and  C_28
REMARK                            x       y       z     vdW  Elec       q    Type
REMARK                         _______ _______ _______ _____ _____    ______ ____
ROOT
ATOM      8  C   UNL     1      -3.007  -1.252  24.892  0.00  0.00    -0.027 C 
ATOM      9  C   UNL     1      -2.635   0.086  24.169  0.00  0.00    +0.028 C 
ATOM     10  C   UNL     1      -1.088   0.348  24.240  0.00  0.00    +0.012 C 
ATOM     11  C   UNL     1      -3.536   1.258  24.655  0.00  0.00    +0.122 C 
ATOM     12  C   UNL     1      -4.516  -1.537  24.706  0.00  0.00    +0.007 C 
ATOM     13  C   UNL     1      -2.224  -2.413  24.236  0.00  0.00    +0.009 C 
ATOM     14  C   UNL     1      -5.043   0.927  24.565  0.00  0.00    +0.029 C 
ATOM     15  C   UNL     1      -0.309  -0.858  23.646  0.00  0.00    +0.076 C 
ATOM     16  C   UNL     1      -5.401  -0.408  25.217  0.00  0.00    +0.007 C 
ATOM     17  C   UNL     1      -0.717  -2.202  24.250  0.00  0.00    +0.023 C 
ATOM     18  C   UNL     1      -2.689  -1.215  26.408  0.00  0.00    +0.011 C 
ATOM     20  C   UNL     1      -0.649   1.636  23.523  0.00  0.00    +0.010 C 
ENDROOT
BRANCH  15   6
ATOM      3  O   UNL     1       1.589  -0.295  21.566  0.00  0.00    -0.270 OA
ATOM      6  N   UNL     1       1.122  -0.702  23.801  0.00  0.00    -0.308 N 
ATOM     23  C   UNL     1       1.957  -0.430  22.730  0.00  0.00    +0.244 C 
ATOM     39  H   UNL     1       1.510  -0.913  24.714  0.00  0.00    +0.149 HD
BRANCH  23  24
ATOM     24  C   UNL     1       3.403  -0.324  23.050  0.00  0.00    +0.037 A 
ATOM     26  C   UNL     1       4.101   0.845  22.744  0.00  0.00    +0.016 A 
ATOM     27  C   UNL     1       4.064  -1.392  23.657  0.00  0.00    +0.016 A 
ATOM     29  C   UNL     1       5.460   0.943  23.044  0.00  0.00    +0.046 A 
ATOM     30  C   UNL     1       5.423  -1.293  23.957  0.00  0.00    +0.046 A 
ATOM     31  C   UNL     1       6.121  -0.125  23.650  0.00  0.00    +0.120 A 
BRANCH  31   4
ATOM      4  O   UNL     1       7.447  -0.029  23.942  0.00  0.00    -0.495 OA
ATOM     37  C   UNL     1       8.366  -0.358  22.901  0.00  0.00    +0.277 C 
ENDBRANCH  31   4
ENDBRANCH  23  24
ENDBRANCH  15   6
BRANCH  11   1
ATOM      1  O   UNL     1      -3.318   2.401  23.828  0.00  0.00    -0.391 OA
ATOM     40  H   UNL     1      -3.091   2.090  22.935  0.00  0.00    +0.210 HD
ENDBRANCH  11   1
BRANCH  14  19
ATOM     19  C   UNL     1      -5.907   2.040  25.170  0.00  0.00    +0.077 C 
ATOM     21  C   UNL     1      -7.083   2.348  24.251  0.00  0.00    +0.017 C 
BRANCH  19  22
ATOM      2  O   UNL     1      -5.081   4.264  24.682  0.00  0.00    -0.276 OA
ATOM      7  N   UNL     1      -4.271   3.166  26.558  0.00  0.00    -0.311 N 
ATOM     22  C   UNL     1      -5.057   3.282  25.421  0.00  0.00    +0.216 C 
ATOM     41  H   UNL     1      -4.348   2.342  27.146  0.00  0.00    +0.149 HD
BRANCH   7  25
ATOM     25  C   UNL     1      -3.379   4.212  27.001  0.00  0.00    +0.143 C 
BRANCH  25  28
ATOM     28  C   UNL     1      -2.280   4.471  26.012  0.00  0.00    +0.011 A 
ATOM     32  C   UNL     1      -1.168   3.631  25.946  0.00  0.00    +0.125 A 
ATOM     33  C   UNL     1      -2.380   5.565  25.152  0.00  0.00    +0.009 A 
ATOM     34  C   UNL     1      -0.156   3.885  25.021  0.00  0.00    +0.046 A 
ATOM     35  C   UNL     1      -1.368   5.819  24.226  0.00  0.00    +0.001 A 
ATOM     36  C   UNL     1      -0.256   4.979  24.160  0.00  0.00    +0.004 A 
BRANCH  32   5
ATOM      5  O   UNL     1      -1.055   2.558  26.778  0.00  0.00    -0.495 OA
ATOM     38  C   UNL     1       0.262   2.188  27.181  0.00  0.00    +0.277 C 
ENDBRANCH  32   5
ENDBRANCH  25  28
ENDBRANCH   7  25
ENDBRANCH  19  22
ENDBRANCH  14  19
TORSDOF 9
ENDMDL
MODEL 2
REMARK VINA RESULT:       3.6      0.783      1.701
REMARK  Name = 45784388
REMARK  14 active torsions:
REMARK  status: ('A' for Active; 'I' for Inactive)
REMARK    1  A    between atoms: O_1  and  C_11
REMARK    2  A    between atoms: O_4  and  C_31
REMARK    3  A    between atoms: O_4  and  C_37
REMARK    4  A    between atoms: O_5  and  C_32
REMARK    5  A    between atoms: O_5  and  C_38
REMARK    6  A    between atoms: N_6  and  C_15
REMARK    7  A    between atoms: N_7  and  C_25
REMARK    8  A    between atoms: C_8  and  C_18
REMARK    9  A    between atoms: C_10  and  C_20
REMARK   10  A    between atoms: C_14  and  C_19
REMARK   11  A    between atoms: C_19  and  C_21
REMARK   12  A    between atoms: C_19  and  C_22
REMARK   13  A    between atoms: C_23  and  C_24
REMARK   14  A    between atoms: C_25  and  C_28
REMARK                            x       y       z     vdW  Elec       q    Type
REMARK                         _______ _______ _______ _____ _____    ______ ____
ROOT
ATOM      8  C   UNL     1      -3.127  -1.298  24.875  0.00  0.00    -0.027 C 
ATOM      9  C   UNL     1      -2.780   0.029  24.120  0.00  0.00    +0.028 C 
ATOM     10  C   UNL     1      -1.237   0.317  24.178  0.00  0.00    +0.012 C 
ATOM     11  C   UNL     1      -3.697   1.197  24.584  0.00  0.00    +0.122 C 
ATOM     12  C   UNL     1      -4.632  -1.612  24.703  0.00  0.00    +0.007 C 
ATOM     13  C   UNL     1      -2.328  -2.461  24.243  0.00  0.00    +0.009 C 
ATOM     14  C   UNL     1      -5.199   0.840  24.508  0.00  0.00    +0.029 C 
ATOM     15  C   UNL     1      -0.441  -0.890  23.608  0.00  0.00    +0.076 C 
ATOM     16  C   UNL     1      -5.533  -0.485  25.192  0.00  0.00    +0.007 C 
ATOM     17  C   UNL     1      -0.825  -2.225  24.246  0.00  0.00    +0.023 C 
ATOM     18  C   UNL     1      -2.803  -1.221  26.389  0.00  0.00    +0.011 C 
ATOM     20  C   UNL     1      -0.822   1.595  23.429  0.00  0.00    +0.010 C 
ENDROOT
BRANCH  15   6
ATOM      3  O   UNL     1       1.435  -0.316  21.511  0.00  0.00    -0.270 OA
ATOM      6  N   UNL     1       0.988  -0.706  23.753  0.00  0.00    -0.308 N 
ATOM     23  C   UNL     1       1.811  -0.432  22.674  0.00  0.00    +0.244 C 
ATOM     39  H   UNL     1       1.384  -0.901  24.666  0.00  0.00    +0.149 HD
BRANCH  23  24
ATOM     24  C   UNL     1       3.258  -0.297  22.985  0.00  0.00    +0.037 A 
ATOM     26  C   UNL     1       3.939  -1.348  23.599  0.00  0.00    +0.016 A 
ATOM     27  C   UNL     1       3.934   0.880  22.663  0.00  0.00    +0.016 A 
ATOM     29  C   UNL     1       5.297  -1.221  23.892  0.00  0.00    +0.046 A 
ATOM     30  C   UNL     1       5.292   1.007  22.955  0.00  0.00    +0.046 A 
ATOM     31  C   UNL     1       5.974  -0.044  23.570  0.00  0.00    +0.120 A 
BRANCH  31   4
ATOM      4  O   UNL     1       7.299   0.080  23.857  0.00  0.00    -0.495 OA
ATOM     37  C   UNL     1       8.221  -0.443  22.903  0.00  0.00    +0.277 C 
ENDBRANCH  31   4
ENDBRANCH  23  24
ENDBRANCH  15   6
BRANCH  11   1
ATOM      1  O   UNL     1      -3.502   2.324  23.729  0.00  0.00    -0.391 OA
ATOM     40  H   UNL     1      -2.553   2.538  23.721  0.00  0.00    +0.210 HD
ENDBRANCH  11   1
BRANCH  14  19
ATOM     19  C   UNL     1      -6.079   1.952  25.091  0.00  0.00    +0.077 C 
ATOM     21  C   UNL     1      -7.275   2.205  24.181  0.00  0.00    +0.017 C 
BRANCH  19  22
ATOM      2  O   UNL     1      -5.344   4.195  24.548  0.00  0.00    -0.276 OA
ATOM      7  N   UNL     1      -4.405   3.135  26.385  0.00  0.00    -0.311 N 
ATOM     22  C   UNL     1      -5.253   3.219  25.290  0.00  0.00    +0.216 C 
ATOM     41  H   UNL     1      -4.428   2.313  26.981  0.00  0.00    +0.149 HD
BRANCH   7  25
ATOM     25  C   UNL     1      -3.522   4.208  26.775  0.00  0.00    +0.143 C 
BRANCH  25  28
ATOM     28  C   UNL     1      -2.132   4.014  26.243  0.00  0.00    +0.011 A 
ATOM     32  C   UNL     1      -1.591   4.909  25.319  0.00  0.00    +0.125 A 
ATOM     33  C   UNL     1      -1.378   2.926  26.684  0.00  0.00    +0.009 A 
ATOM     34  C   UNL     1      -0.298   4.714  24.835  0.00  0.00    +0.046 A 
ATOM     35  C   UNL     1      -0.085   2.732  26.199  0.00  0.00    +0.001 A 
ATOM     36  C   UNL     1       0.456   3.626  25.276  0.00  0.00    +0.004 A 
BRANCH  32   5
ATOM      5  O   UNL     1      -2.313   5.977  24.879  0.00  0.00    -0.495 OA
ATOM     38  C   UNL     1      -2.939   5.854  23.603  0.00  0.00    +0.277 C 
ENDBRANCH  32   5
ENDBRANCH  25  28
ENDBRANCH   7  25
ENDBRANCH  19  22
ENDBRANCH  14  19
TORSDOF 9
ENDMDL
