MODEL 1
REMARK VINA RESULT:      -4.9      0.000      0.000
REMARK  Name = 26744672
REMARK  9 active torsions:
REMARK  status: ('A' for Active; 'I' for Inactive)
REMARK    1  A    between atoms: O_2  and  C_11
REMARK    2  A    between atoms: O_3  and  C_12
REMARK    3  A    between atoms: N_6  and  C_14
REMARK    4  A    between atoms: N_7  and  C_15
REMARK    5  A    between atoms: N_8  and  C_24
REMARK    6  A    between atoms: C_10  and  C_15
REMARK    7  A    between atoms: C_13  and  C_18
REMARK    8  A    between atoms: C_18  and  C_23
REMARK    9  A    between atoms: C_24  and  C_25
REMARK                            x       y       z     vdW  Elec       q    Type
REMARK                         _______ _______ _______ _____ _____    ______ ____
ROOT
ATOM      1  O   UNL     1      -2.701   3.181  23.752  0.00  0.00    -0.366 OA
ATOM     10  C   UNL     1      -1.501   3.316  24.549  0.00  0.00    +0.167 C 
ATOM     11  C   UNL     1      -1.859   4.232  25.714  0.00  0.00    +0.176 C 
ATOM     12  C   UNL     1      -3.340   3.963  25.882  0.00  0.00    +0.175 C 
ATOM     13  C   UNL     1      -3.791   3.821  24.439  0.00  0.00    +0.158 C 
ENDROOT
BRANCH  11   2
ATOM      2  O   UNL     1      -1.645   5.581  25.298  0.00  0.00    -0.387 OA
ATOM     32  H   UNL     1      -2.065   5.686  24.426  0.00  0.00    +0.210 HD
ENDBRANCH  11   2
BRANCH  12   3
ATOM      3  O   UNL     1      -4.025   5.001  26.552  0.00  0.00    -0.387 OA
ATOM     33  H   UNL     1      -4.465   5.542  25.876  0.00  0.00    +0.210 HD
ENDBRANCH  12   3
BRANCH  10  15
ATOM     15  C   UNL     1      -1.080   1.923  24.995  0.00  0.00    +0.140 C 
BRANCH  15   7
ATOM      4  O   UNL     1       0.110   0.599  22.737  0.00  0.00    -0.253 OA
ATOM      6  N   UNL     1       2.207   0.975  23.660  0.00  0.00    -0.297 N 
ATOM      7  N   UNL     1       0.319   1.707  24.766  0.00  0.00    -0.297 N 
ATOM     22  C   UNL     1       0.818   1.052  23.637  0.00  0.00    +0.300 C 
ATOM     30  H   UNL     1       2.687   1.315  24.487  0.00  0.00    +0.151 HD
ATOM     31  H   UNL     1       0.979   2.058  25.453  0.00  0.00    +0.150 HD
BRANCH   6  14
ATOM     14  C   UNL     1       2.983   0.347  22.613  0.00  0.00    +0.074 C 
ATOM     16  C   UNL     1       4.346   1.029  22.454  0.00  0.00    +0.022 C 
ATOM     17  C   UNL     1       3.141  -1.155  22.870  0.00  0.00    +0.022 C 
ATOM     19  C   UNL     1       5.291   0.727  23.616  0.00  0.00    +0.002 C 
ATOM     20  C   UNL     1       4.089  -1.454  24.031  0.00  0.00    +0.002 C 
ATOM     21  C   UNL     1       5.441  -0.775  23.844  0.00  0.00    +0.000 C 
ENDBRANCH   6  14
ENDBRANCH  15   7
ENDBRANCH  10  15
BRANCH  13  18
ATOM     18  C   UNL     1      -5.052   2.991  24.280  0.00  0.00    +0.130 C 
BRANCH  18  23
ATOM      5  O   UNL     1      -5.761   1.904  26.321  0.00  0.00    -0.276 OA
ATOM      8  N   UNL     1      -4.388   0.751  24.842  0.00  0.00    -0.311 N 
ATOM     23  C   UNL     1      -5.124   1.846  25.273  0.00  0.00    +0.216 C 
ATOM     34  H   UNL     1      -3.906   0.801  23.949  0.00  0.00    +0.149 HD
BRANCH   8  24
ATOM     24  C   UNL     1      -4.283  -0.476  25.596  0.00  0.00    +0.141 C 
BRANCH  24  25
ATOM      9  N   UNL     1      -0.637  -1.482  25.623  0.00  0.00    -0.263 NA
ATOM     25  C   UNL     1      -3.017  -1.221  25.285  0.00  0.00    -0.012 A 
ATOM     26  C   UNL     1      -3.019  -2.301  24.409  0.00  0.00    +0.008 A 
ATOM     27  C   UNL     1      -1.812  -0.854  25.861  0.00  0.00    +0.115 A 
ATOM     28  C   UNL     1      -1.831  -2.971  24.139  0.00  0.00    +0.020 A 
ATOM     29  C   UNL     1      -0.678  -2.526  24.766  0.00  0.00    +0.111 A 
ENDBRANCH  24  25
ENDBRANCH   8  24
ENDBRANCH  18  23
ENDBRANCH  13  18
TORSDOF 9
ENDMDL
MODEL 2
REMARK VINA RESULT:      -4.2      1.848      4.275
REMARK  Name = 26744672
REMARK  9 active torsions:
REMARK  status: ('A' for Active; 'I' for Inactive)
REMARK    1  A    between atoms: O_2  and  C_11
REMARK    2  A    between atoms: O_3  and  C_12
REMARK    3  A    between atoms: N_6  and  C_14
REMARK    4  A    between atoms: N_7  and  C_15
REMARK    5  A    between atoms: N_8  and  C_24
REMARK    6  A    between atoms: C_10  and  C_15
REMARK    7  A    between atoms: C_13  and  C_18
REMARK    8  A    between atoms: C_18  and  C_23
REMARK    9  A    between atoms: C_24  and  C_25
REMARK                            x       y       z     vdW  Elec       q    Type
REMARK                         _______ _______ _______ _____ _____    ______ ____
ROOT
ATOM      1  O   UNL     1      -2.974   0.261  25.505  0.00  0.00    -0.366 OA
ATOM     10  C   UNL     1      -1.869  -0.369  24.818  0.00  0.00    +0.167 C 
ATOM     11  C   UNL     1      -2.435  -1.617  24.147  0.00  0.00    +0.176 C 
ATOM     12  C   UNL     1      -3.876  -1.219  23.906  0.00  0.00    +0.175 C 
ATOM     13  C   UNL     1      -4.190  -0.430  25.166  0.00  0.00    +0.158 C 
ENDROOT
BRANCH  11   2
ATOM      2  O   UNL     1      -2.369  -2.691  25.084  0.00  0.00    -0.387 OA
ATOM     32  H   UNL     1      -1.912  -3.430  24.648  0.00  0.00    +0.210 HD
ENDBRANCH  11   2
BRANCH  12   3
ATOM      3  O   UNL     1      -4.741  -2.322  23.742  0.00  0.00    -0.387 OA
ATOM     33  H   UNL     1      -4.188  -3.106  23.585  0.00  0.00    +0.210 HD
ENDBRANCH  12   3
BRANCH  10  15
ATOM     15  C   UNL     1      -1.304   0.636  23.825  0.00  0.00    +0.140 C 
BRANCH  15   7
ATOM      4  O   UNL     1       0.635  -0.281  21.910  0.00  0.00    -0.253 OA
ATOM      6  N   UNL     1       2.328   0.470  23.309  0.00  0.00    -0.297 N 
ATOM      7  N   UNL     1       0.122   0.729  23.936  0.00  0.00    -0.297 N 
ATOM     22  C   UNL     1       0.999   0.257  22.956  0.00  0.00    +0.300 C 
ATOM     30  H   UNL     1       2.518   0.856  24.229  0.00  0.00    +0.151 HD
ATOM     31  H   UNL     1       0.513   1.171  24.763  0.00  0.00    +0.150 HD
BRANCH   6  14
ATOM     14  C   UNL     1       3.443   0.078  22.476  0.00  0.00    +0.074 C 
ATOM     16  C   UNL     1       4.644   1.005  22.690  0.00  0.00    +0.022 C 
ATOM     17  C   UNL     1       3.822  -1.387  22.716  0.00  0.00    +0.022 C 
ATOM     19  C   UNL     1       5.317   0.787  24.045  0.00  0.00    +0.002 C 
ATOM     20  C   UNL     1       4.498  -1.601  24.070  0.00  0.00    +0.002 C 
ATOM     21  C   UNL     1       5.696  -0.676  24.256  0.00  0.00    +0.000 C 
ENDBRANCH   6  14
ENDBRANCH  15   7
ENDBRANCH  10  15
BRANCH  13  18
ATOM     18  C   UNL     1      -5.315   0.573  24.984  0.00  0.00    +0.130 C 
BRANCH  18  23
ATOM      5  O   UNL     1      -4.625   2.480  23.665  0.00  0.00    -0.276 OA
ATOM      8  N   UNL     1      -4.576   2.630  25.984  0.00  0.00    -0.311 N 
ATOM     23  C   UNL     1      -4.805   1.988  24.775  0.00  0.00    +0.216 C 
ATOM     34  H   UNL     1      -4.770   2.136  26.850  0.00  0.00    +0.149 HD
BRANCH   8  24
ATOM     24  C   UNL     1      -4.086   3.986  26.077  0.00  0.00    +0.141 C 
BRANCH  24  25
ATOM      9  N   UNL     1      -0.405   3.146  25.877  0.00  0.00    -0.263 NA
ATOM     25  C   UNL     1      -2.629   4.083  25.731  0.00  0.00    -0.012 A 
ATOM     26  C   UNL     1      -2.140   5.145  24.979  0.00  0.00    +0.008 A 
ATOM     27  C   UNL     1      -1.729   3.117  26.152  0.00  0.00    +0.115 A 
ATOM     28  C   UNL     1      -0.784   5.209  24.675  0.00  0.00    +0.020 A 
ATOM     29  C   UNL     1       0.033   4.194  25.144  0.00  0.00    +0.111 A 
ENDBRANCH  24  25
ENDBRANCH   8  24
ENDBRANCH  18  23
ENDBRANCH  13  18
TORSDOF 9
ENDMDL
MODEL 3
REMARK VINA RESULT:      -4.2      1.368      5.810
REMARK  Name = 26744672
REMARK  9 active torsions:
REMARK  status: ('A' for Active; 'I' for Inactive)
REMARK    1  A    between atoms: O_2  and  C_11
REMARK    2  A    between atoms: O_3  and  C_12
REMARK    3  A    between atoms: N_6  and  C_14
REMARK    4  A    between atoms: N_7  and  C_15
REMARK    5  A    between atoms: N_8  and  C_24
REMARK    6  A    between atoms: C_10  and  C_15
REMARK    7  A    between atoms: C_13  and  C_18
REMARK    8  A    between atoms: C_18  and  C_23
REMARK    9  A    between atoms: C_24  and  C_25
REMARK                            x       y       z     vdW  Elec       q    Type
REMARK                         _______ _______ _______ _____ _____    ______ ____
ROOT
ATOM      1  O   UNL     1      -2.579   3.177  25.936  0.00  0.00    -0.366 OA
ATOM     10  C   UNL     1      -3.108   4.267  25.146  0.00  0.00    +0.167 C 
ATOM     11  C   UNL     1      -1.932   4.840  24.362  0.00  0.00    +0.176 C 
ATOM     12  C   UNL     1      -1.033   3.631  24.215  0.00  0.00    +0.175 C 
ATOM     13  C   UNL     1      -1.207   2.955  25.564  0.00  0.00    +0.158 C 
ENDROOT
BRANCH  11   2
ATOM      2  O   UNL     1      -1.301   5.831  25.172  0.00  0.00    -0.387 OA
ATOM     32  H   UNL     1      -0.391   5.937  24.846  0.00  0.00    +0.210 HD
ENDBRANCH  11   2
BRANCH  12   3
ATOM      3  O   UNL     1       0.315   3.964  23.960  0.00  0.00    -0.387 OA
ATOM     33  H   UNL     1       0.819   3.133  23.928  0.00  0.00    +0.210 HD
ENDBRANCH  12   3
BRANCH  10  15
ATOM     15  C   UNL     1      -4.203   3.705  24.252  0.00  0.00    +0.140 C 
BRANCH  15   7
ATOM      4  O   UNL     1      -5.054   1.329  25.628  0.00  0.00    -0.253 OA
ATOM      6  N   UNL     1      -3.966   0.047  24.028  0.00  0.00    -0.297 N 
ATOM      7  N   UNL     1      -3.923   2.350  23.878  0.00  0.00    -0.297 N 
ATOM     22  C   UNL     1      -4.376   1.245  24.604  0.00  0.00    +0.300 C 
ATOM     30  H   UNL     1      -3.346   0.095  23.225  0.00  0.00    +0.151 HD
ATOM     31  H   UNL     1      -3.378   2.186  23.037  0.00  0.00    +0.150 HD
BRANCH   6  14
ATOM     14  C   UNL     1      -4.296  -1.250  24.576  0.00  0.00    +0.074 C 
ATOM     16  C   UNL     1      -3.743  -2.376  23.695  0.00  0.00    +0.022 C 
ATOM     17  C   UNL     1      -3.801  -1.380  26.020  0.00  0.00    +0.022 C 
ATOM     19  C   UNL     1      -2.223  -2.498  23.787  0.00  0.00    +0.002 C 
ATOM     20  C   UNL     1      -2.280  -1.505  26.108  0.00  0.00    +0.002 C 
ATOM     21  C   UNL     1      -1.755  -2.639  25.233  0.00  0.00    +0.000 C 
ENDBRANCH   6  14
ENDBRANCH  15   7
ENDBRANCH  10  15
BRANCH  13  18
ATOM     18  C   UNL     1      -0.922   1.464  25.533  0.00  0.00    +0.130 C 
BRANCH  18  23
ATOM      5  O   UNL     1      -1.284   0.795  23.236  0.00  0.00    -0.276 OA
ATOM      8  N   UNL     1       0.877   0.785  24.092  0.00  0.00    -0.311 N 
ATOM     23  C   UNL     1      -0.495   0.981  24.158  0.00  0.00    +0.216 C 
ATOM     34  H   UNL     1       1.445   0.981  24.912  0.00  0.00    +0.149 HD
BRANCH   8  24
ATOM     24  C   UNL     1       1.552   0.326  22.900  0.00  0.00    +0.141 C 
BRANCH  24  25
ATOM      9  N   UNL     1       4.697  -1.537  23.867  0.00  0.00    -0.263 NA
ATOM     25  C   UNL     1       3.002   0.031  23.153  0.00  0.00    -0.012 A 
ATOM     26  C   UNL     1       3.978   0.995  22.925  0.00  0.00    +0.008 A 
ATOM     27  C   UNL     1       3.409  -1.208  23.619  0.00  0.00    +0.115 A 
ATOM     28  C   UNL     1       5.314   0.693  23.170  0.00  0.00    +0.020 A 
ATOM     29  C   UNL     1       5.618  -0.575  23.636  0.00  0.00    +0.111 A 
ENDBRANCH  24  25
ENDBRANCH   8  24
ENDBRANCH  18  23
ENDBRANCH  13  18
TORSDOF 9
ENDMDL
MODEL 4
REMARK VINA RESULT:      -3.1      2.067      6.694
REMARK  Name = 26744672
REMARK  9 active torsions:
REMARK  status: ('A' for Active; 'I' for Inactive)
REMARK    1  A    between atoms: O_2  and  C_11
REMARK    2  A    between atoms: O_3  and  C_12
REMARK    3  A    between atoms: N_6  and  C_14
REMARK    4  A    between atoms: N_7  and  C_15
REMARK    5  A    between atoms: N_8  and  C_24
REMARK    6  A    between atoms: C_10  and  C_15
REMARK    7  A    between atoms: C_13  and  C_18
REMARK    8  A    between atoms: C_18  and  C_23
REMARK    9  A    between atoms: C_24  and  C_25
REMARK                            x       y       z     vdW  Elec       q    Type
REMARK                         _______ _______ _______ _____ _____    ______ ____
ROOT
ATOM      1  O   UNL     1      -2.032  -1.263  24.053  0.00  0.00    -0.366 OA
ATOM     10  C   UNL     1      -3.313  -1.934  24.007  0.00  0.00    +0.167 C 
ATOM     11  C   UNL     1      -3.668  -2.280  25.450  0.00  0.00    +0.176 C 
ATOM     12  C   UNL     1      -2.959  -1.187  26.220  0.00  0.00    +0.175 C 
ATOM     13  C   UNL     1      -1.670  -1.042  25.428  0.00  0.00    +0.158 C 
ENDROOT
BRANCH  11   2
ATOM      2  O   UNL     1      -3.096  -3.551  25.753  0.00  0.00    -0.387 OA
ATOM     32  H   UNL     1      -3.276  -3.735  26.691  0.00  0.00    +0.210 HD
ENDBRANCH  11   2
BRANCH  12   3
ATOM      3  O   UNL     1      -2.715  -1.521  27.570  0.00  0.00    -0.387 OA
ATOM     33  H   UNL     1      -1.834  -1.927  27.615  0.00  0.00    +0.210 HD
ENDBRANCH  12   3
BRANCH  10  15
ATOM     15  C   UNL     1      -4.312  -0.987  23.359  0.00  0.00    +0.140 C 
BRANCH  15   7
ATOM      4  O   UNL     1      -5.168   1.221  24.989  0.00  0.00    -0.253 OA
ATOM      6  N   UNL     1      -3.621   2.577  23.914  0.00  0.00    -0.297 N 
ATOM      7  N   UNL     1      -3.806   0.354  23.321  0.00  0.00    -0.297 N 
ATOM     22  C   UNL     1      -4.279   1.374  24.152  0.00  0.00    +0.300 C 
ATOM     30  H   UNL     1      -2.954   2.609  23.149  0.00  0.00    +0.151 HD
ATOM     31  H   UNL     1      -3.060   0.569  22.667  0.00  0.00    +0.150 HD
BRANCH   6  14
ATOM     14  C   UNL     1      -3.913   3.796  24.634  0.00  0.00    +0.074 C 
ATOM     16  C   UNL     1      -3.384   3.728  26.070  0.00  0.00    +0.022 C 
ATOM     17  C   UNL     1      -3.360   5.019  23.895  0.00  0.00    +0.022 C 
ATOM     19  C   UNL     1      -1.859   3.815  26.137  0.00  0.00    +0.002 C 
ATOM     20  C   UNL     1      -1.835   5.104  23.965  0.00  0.00    +0.002 C 
ATOM     21  C   UNL     1      -1.333   5.046  25.404  0.00  0.00    +0.000 C 
ENDBRANCH   6  14
ENDBRANCH  15   7
ENDBRANCH  10  15
BRANCH  13  18
ATOM     18  C   UNL     1      -1.024   0.324  25.572  0.00  0.00    +0.130 C 
BRANCH  18  23
ATOM      5  O   UNL     1      -0.400   1.852  23.803  0.00  0.00    -0.276 OA
ATOM      8  N   UNL     1       0.562  -0.263  23.865  0.00  0.00    -0.311 N 
ATOM     23  C   UNL     1      -0.271   0.748  24.324  0.00  0.00    +0.216 C 
ATOM     34  H   UNL     1       0.606  -1.138  24.379  0.00  0.00    +0.149 HD
BRANCH   8  24
ATOM     24  C   UNL     1       1.394  -0.128  22.692  0.00  0.00    +0.141 C 
BRANCH  24  25
ATOM      9  N   UNL     1       4.760  -1.358  23.899  0.00  0.00    -0.263 NA
ATOM     25  C   UNL     1       2.855  -0.146  23.033  0.00  0.00    -0.012 A 
ATOM     26  C   UNL     1       3.654   0.972  22.820  0.00  0.00    +0.008 A 
ATOM     27  C   UNL     1       3.451  -1.276  23.570  0.00  0.00    +0.115 A 
ATOM     28  C   UNL     1       5.006   0.926  23.147  0.00  0.00    +0.020 A 
ATOM     29  C   UNL     1       5.504  -0.252  23.679  0.00  0.00    +0.111 A 
ENDBRANCH  24  25
ENDBRANCH   8  24
ENDBRANCH  18  23
ENDBRANCH  13  18
TORSDOF 9
ENDMDL
