MODEL 1
REMARK VINA RESULT:       5.7      0.000      0.000
REMARK  Name = 11913221
REMARK  7 active torsions:
REMARK  status: ('A' for Active; 'I' for Inactive)
REMARK    1  A    between atoms: S_1  and  N_6
REMARK    2  A    between atoms: S_1  and  C_17
REMARK    3  A    between atoms: N_6  and  C_12
REMARK    4  A    between atoms: N_7  and  C_13
REMARK    5  A    between atoms: C_17  and  C_18
REMARK    6  A    between atoms: C_19  and  C_24
REMARK    7  A    between atoms: C_32  and  C_33
REMARK                            x       y       z     vdW  Elec       q    Type
REMARK                         _______ _______ _______ _____ _____    ______ ____
ROOT
ATOM      7  N   UNL     1      -5.247   1.021  24.213  0.00  0.00    -0.306 N 
ATOM      8  N   UNL     1      -3.121   0.034  24.101  0.00  0.00    -0.214 NA
ATOM      9  N   UNL     1      -5.086  -1.305  24.487  0.00  0.00    -0.223 NA
ATOM     16  C   UNL     1      -4.461  -0.117  24.269  0.00  0.00    +0.216 A 
ATOM     19  C   UNL     1      -2.385  -1.095  24.160  0.00  0.00    +0.076 A 
ATOM     22  C   UNL     1      -4.290  -2.392  24.535  0.00  0.00    +0.116 A 
ATOM     23  C   UNL     1      -2.921  -2.349  24.377  0.00  0.00    +0.048 A 
ATOM     40  H   UNL     1      -6.237   0.902  24.393  0.00  0.00    +0.149 HD
ENDROOT
BRANCH   7  13
ATOM      2  O   UNL     1      -2.619   3.550  24.065  0.00  0.00    -0.370 OA
ATOM      3  O   UNL     1      -5.043   3.509  26.036  0.00  0.00    -0.370 OA
ATOM     10  C   UNL     1      -3.725   2.939  26.081  0.00  0.00    +0.170 C 
ATOM     11  C   UNL     1      -3.378   2.493  24.674  0.00  0.00    +0.171 C 
ATOM     12  C   UNL     1      -2.704   4.006  26.391  0.00  0.00    +0.133 C 
ATOM     13  C   UNL     1      -4.718   2.348  23.990  0.00  0.00    +0.130 C 
ATOM     14  C   UNL     1      -2.408   4.594  25.026  0.00  0.00    +0.183 C 
ATOM     15  C   UNL     1      -5.569   3.380  24.706  0.00  0.00    +0.185 C 
BRANCH  12   6
ATOM      6  N   UNL     1      -1.478   3.379  26.939  0.00  0.00    -0.186 NA
ATOM     39  H   UNL     1      -1.062   3.808  27.775  0.00  0.00    +0.148 HD
BRANCH   6   1
ATOM      1  S   UNL     1      -0.492   2.455  25.903  0.00  0.00    +0.034 S 
ATOM      4  O   UNL     1      -0.767   2.796  24.522  0.00  0.00    -0.158 OA
ATOM      5  O   UNL     1      -0.533   1.075  26.349  0.00  0.00    -0.158 OA
BRANCH   1  17
ATOM     17  C   UNL     1       1.114   3.097  26.318  0.00  0.00    +0.220 C 
BRANCH  17  18
ATOM     18  C   UNL     1       1.365   2.798  27.764  0.00  0.00    -0.025 A 
ATOM     20  C   UNL     1       2.670   2.753  28.243  0.00  0.00    +0.005 A 
ATOM     21  C   UNL     1       0.291   2.564  28.618  0.00  0.00    +0.005 A 
ATOM     25  C   UNL     1       2.904   2.475  29.590  0.00  0.00    +0.000 A 
ATOM     26  C   UNL     1       0.525   2.285  29.965  0.00  0.00    +0.000 A 
ATOM     27  C   UNL     1       1.831   2.240  30.451  0.00  0.00    +0.000 A 
ENDBRANCH  17  18
ENDBRANCH   1  17
ENDBRANCH   6   1
ENDBRANCH  12   6
ENDBRANCH   7  13
BRANCH  19  24
ATOM     24  C   UNL     1      -0.964  -0.911  23.980  0.00  0.00    +0.001 A 
ATOM     28  C   UNL     1      -0.491   0.019  23.052  0.00  0.00    +0.010 A 
ATOM     29  C   UNL     1      -0.060  -1.663  24.734  0.00  0.00    +0.010 A 
ATOM     30  C   UNL     1       0.883   0.196  22.878  0.00  0.00    +0.009 A 
ATOM     31  C   UNL     1       1.313  -1.484  24.559  0.00  0.00    +0.009 A 
ATOM     32  C   UNL     1       1.784  -0.556  23.632  0.00  0.00    -0.018 A 
BRANCH  32  33
ATOM     33  C   UNL     1       3.208  -0.371  23.452  0.00  0.00    -0.018 A 
ATOM     34  C   UNL     1       3.689   0.795  22.856  0.00  0.00    +0.008 A 
ATOM     35  C   UNL     1       4.099  -1.357  23.874  0.00  0.00    +0.008 A 
ATOM     36  C   UNL     1       5.061   0.975  22.683  0.00  0.00    +0.001 A 
ATOM     37  C   UNL     1       5.471  -1.178  23.700  0.00  0.00    +0.001 A 
ATOM     38  C   UNL     1       5.952  -0.013  23.104  0.00  0.00    +0.000 A 
ENDBRANCH  32  33
ENDBRANCH  19  24
TORSDOF 7
ENDMDL
