MODEL 1
REMARK VINA RESULT:      -1.4      0.000      0.000
REMARK  Name = 75537120
REMARK  3 active torsions:
REMARK  status: ('A' for Active; 'I' for Inactive)
REMARK    1  A    between atoms: N_2  and  C_6
REMARK    2  A    between atoms: N_4  and  C_17
REMARK    3  A    between atoms: C_17  and  C_18
REMARK                            x       y       z     vdW  Elec       q    Type
REMARK                         _______ _______ _______ _____ _____    ______ ____
ROOT
ATOM      1  O   UNL     1      -1.921   4.097  24.998  0.00  0.00    -0.252 OA
ATOM      2  N   UNL     1      -2.934   2.007  24.588  0.00  0.00    -0.281 N 
ATOM      3  N   UNL     1      -0.691   2.130  24.630  0.00  0.00    -0.278 N 
ATOM      4  N   UNL     1       1.308   0.437  23.606  0.00  0.00    -0.295 NA
ATOM      5  C   UNL     1      -0.974   0.718  24.484  0.00  0.00    +0.109 C 
ATOM      7  C   UNL     1      -2.480   0.674  24.227  0.00  0.00    +0.133 C 
ATOM      8  C   UNL     1      -0.115   0.115  23.373  0.00  0.00    +0.109 C 
ATOM     11  C   UNL     1      -1.855   2.896  24.772  0.00  0.00    +0.305 C 
ATOM     12  C   UNL     1       0.685   2.571  24.717  0.00  0.00    +0.125 C 
ATOM     13  C   UNL     1       1.521   1.898  23.625  0.00  0.00    +0.104 C 
ENDROOT
BRANCH   2   6
ATOM      6  C   UNL     1      -4.332   2.363  24.593  0.00  0.00    +0.078 C 
ATOM      9  C   UNL     1      -5.205   1.128  24.833  0.00  0.00    +0.022 C 
ATOM     10  C   UNL     1      -4.605   3.449  25.636  0.00  0.00    +0.022 C 
ATOM     14  C   UNL     1      -6.686   1.491  24.897  0.00  0.00    +0.002 C 
ATOM     15  C   UNL     1      -6.087   3.808  25.700  0.00  0.00    +0.002 C 
ATOM     16  C   UNL     1      -6.955   2.576  25.935  0.00  0.00    +0.000 C 
ENDBRANCH   2   6
BRANCH   4  17
ATOM     17  C   UNL     1       2.145  -0.187  22.582  0.00  0.00    +0.119 C 
BRANCH  17  18
ATOM     18  C   UNL     1       3.566  -0.360  23.048  0.00  0.00    -0.033 A 
ATOM     19  C   UNL     1       3.954  -1.542  23.680  0.00  0.00    +0.005 A 
ATOM     20  C   UNL     1       4.494   0.661  22.849  0.00  0.00    +0.005 A 
ATOM     21  C   UNL     1       5.270  -1.701  24.112  0.00  0.00    +0.000 A 
ATOM     22  C   UNL     1       5.811   0.502  23.281  0.00  0.00    +0.000 A 
ATOM     23  C   UNL     1       6.199  -0.680  23.912  0.00  0.00    +0.000 A 
ENDBRANCH  17  18
ENDBRANCH   4  17
TORSDOF 3
ENDMDL
MODEL 2
REMARK VINA RESULT:      -0.8      1.584      2.126
REMARK  Name = 75537120
REMARK  3 active torsions:
REMARK  status: ('A' for Active; 'I' for Inactive)
REMARK    1  A    between atoms: N_2  and  C_6
REMARK    2  A    between atoms: N_4  and  C_17
REMARK    3  A    between atoms: C_17  and  C_18
REMARK                            x       y       z     vdW  Elec       q    Type
REMARK                         _______ _______ _______ _____ _____    ______ ____
ROOT
ATOM      1  O   UNL     1      -1.940  -0.443  26.507  0.00  0.00    -0.252 OA
ATOM      2  N   UNL     1      -2.597   1.088  24.838  0.00  0.00    -0.281 N 
ATOM      3  N   UNL     1      -0.933  -0.351  24.388  0.00  0.00    -0.278 N 
ATOM      4  N   UNL     1       1.104  -0.328  22.448  0.00  0.00    -0.295 NA
ATOM      5  C   UNL     1      -1.162   0.342  23.137  0.00  0.00    +0.109 C 
ATOM      7  C   UNL     1      -2.126   1.465  23.516  0.00  0.00    +0.133 C 
ATOM      8  C   UNL     1       0.164   0.808  22.537  0.00  0.00    +0.109 C 
ATOM     11  C   UNL     1      -1.838   0.033  25.385  0.00  0.00    +0.305 C 
ATOM     12  C   UNL     1       0.078  -1.386  24.449  0.00  0.00    +0.125 C 
ATOM     13  C   UNL     1       1.368  -0.899  23.784  0.00  0.00    +0.104 C 
ENDROOT
BRANCH   2   6
ATOM      6  C   UNL     1      -3.621   1.836  25.527  0.00  0.00    +0.078 C 
ATOM      9  C   UNL     1      -3.452   3.338  25.283  0.00  0.00    +0.022 C 
ATOM     10  C   UNL     1      -5.012   1.356  25.103  0.00  0.00    +0.022 C 
ATOM     14  C   UNL     1      -4.558   4.145  25.958  0.00  0.00    +0.002 C 
ATOM     15  C   UNL     1      -6.116   2.167  25.777  0.00  0.00    +0.002 C 
ATOM     16  C   UNL     1      -5.943   3.664  25.536  0.00  0.00    +0.000 C 
ENDBRANCH   2   6
BRANCH   4  17
ATOM     17  C   UNL     1       2.355   0.095  21.819  0.00  0.00    +0.119 C 
BRANCH  17  18
ATOM     18  C   UNL     1       3.539  -0.122  22.723  0.00  0.00    -0.033 A 
ATOM     19  C   UNL     1       3.780  -1.385  23.264  0.00  0.00    +0.005 A 
ATOM     20  C   UNL     1       4.393   0.938  23.019  0.00  0.00    +0.005 A 
ATOM     21  C   UNL     1       4.877  -1.586  24.102  0.00  0.00    +0.000 A 
ATOM     22  C   UNL     1       5.490   0.738  23.857  0.00  0.00    +0.000 A 
ATOM     23  C   UNL     1       5.733  -0.525  24.398  0.00  0.00    +0.000 A 
ENDBRANCH  17  18
ENDBRANCH   4  17
TORSDOF 3
ENDMDL
MODEL 3
REMARK VINA RESULT:       0.5      2.195      8.145
REMARK  Name = 75537120
REMARK  3 active torsions:
REMARK  status: ('A' for Active; 'I' for Inactive)
REMARK    1  A    between atoms: N_2  and  C_6
REMARK    2  A    between atoms: N_4  and  C_17
REMARK    3  A    between atoms: C_17  and  C_18
REMARK                            x       y       z     vdW  Elec       q    Type
REMARK                         _______ _______ _______ _____ _____    ______ ____
ROOT
ATOM      1  O   UNL     1      -0.282  -2.653  22.954  0.00  0.00    -0.252 OA
ATOM      2  N   UNL     1       0.359  -0.562  23.835  0.00  0.00    -0.281 N 
ATOM      3  N   UNL     1      -1.651  -1.396  24.390  0.00  0.00    -0.278 N 
ATOM      4  N   UNL     1      -3.979  -0.186  25.404  0.00  0.00    -0.295 NA
ATOM      5  C   UNL     1      -1.527  -0.192  25.183  0.00  0.00    +0.109 C 
ATOM      7  C   UNL     1      -0.272   0.480  24.630  0.00  0.00    +0.133 C 
ATOM      8  C   UNL     1      -2.802   0.646  25.081  0.00  0.00    +0.109 C 
ATOM     11  C   UNL     1      -0.497  -1.666  23.643  0.00  0.00    +0.305 C 
ATOM     12  C   UNL     1      -2.841  -2.211  24.520  0.00  0.00    +0.125 C 
ATOM     13  C   UNL     1      -4.090  -1.326  24.473  0.00  0.00    +0.104 C 
ENDROOT
BRANCH   2   6
ATOM      6  C   UNL     1       1.647  -0.375  23.214  0.00  0.00    +0.078 C 
ATOM      9  C   UNL     1       2.065   1.097  23.264  0.00  0.00    +0.022 C 
ATOM     10  C   UNL     1       2.696  -1.274  23.873  0.00  0.00    +0.022 C 
ATOM     14  C   UNL     1       3.451   1.309  22.661  0.00  0.00    +0.002 C 
ATOM     15  C   UNL     1       4.081  -1.058  23.270  0.00  0.00    +0.002 C 
ATOM     16  C   UNL     1       4.494   0.410  23.317  0.00  0.00    +0.000 C 
ENDBRANCH   2   6
BRANCH   4  17
ATOM     17  C   UNL     1      -5.198   0.622  25.369  0.00  0.00    +0.119 C 
BRANCH  17  18
ATOM     18  C   UNL     1      -4.908   2.057  25.019  0.00  0.00    -0.033 A 
ATOM     19  C   UNL     1      -5.297   3.079  25.886  0.00  0.00    +0.005 A 
ATOM     20  C   UNL     1      -4.251   2.366  23.829  0.00  0.00    +0.005 A 
ATOM     21  C   UNL     1      -5.029   4.408  25.561  0.00  0.00    +0.000 A 
ATOM     22  C   UNL     1      -3.983   3.696  23.504  0.00  0.00    +0.000 A 
ATOM     23  C   UNL     1      -4.371   4.717  24.371  0.00  0.00    +0.000 A 
ENDBRANCH  17  18
ENDBRANCH   4  17
TORSDOF 3
ENDMDL
MODEL 4
REMARK VINA RESULT:       1.0      2.110      7.704
REMARK  Name = 75537120
REMARK  3 active torsions:
REMARK  status: ('A' for Active; 'I' for Inactive)
REMARK    1  A    between atoms: N_2  and  C_6
REMARK    2  A    between atoms: N_4  and  C_17
REMARK    3  A    between atoms: C_17  and  C_18
REMARK                            x       y       z     vdW  Elec       q    Type
REMARK                         _______ _______ _______ _____ _____    ______ ____
ROOT
ATOM      1  O   UNL     1       2.018   2.386  24.503  0.00  0.00    -0.252 OA
ATOM      2  N   UNL     1       1.570   0.584  23.050  0.00  0.00    -0.281 N 
ATOM      3  N   UNL     1      -0.146   1.840  23.772  0.00  0.00    -0.278 N 
ATOM      4  N   UNL     1      -2.914   1.356  23.895  0.00  0.00    -0.295 NA
ATOM      5  C   UNL     1      -0.741   0.924  22.822  0.00  0.00    +0.109 C 
ATOM      7  C   UNL     1       0.383  -0.064  22.516  0.00  0.00    +0.133 C 
ATOM      8  C   UNL     1      -2.006   0.297  23.408  0.00  0.00    +0.109 C 
ATOM     11  C   UNL     1       1.245   1.695  23.855  0.00  0.00    +0.305 C 
ATOM     12  C   UNL     1      -0.982   2.826  24.425  0.00  0.00    +0.125 C 
ATOM     13  C   UNL     1      -2.263   2.167  24.943  0.00  0.00    +0.104 C 
ENDROOT
BRANCH   2   6
ATOM      6  C   UNL     1       2.889   0.027  22.874  0.00  0.00    +0.078 C 
ATOM      9  C   UNL     1       3.959   1.114  23.009  0.00  0.00    +0.022 C 
ATOM     10  C   UNL     1       3.126  -1.115  23.866  0.00  0.00    +0.022 C 
ATOM     14  C   UNL     1       5.366   0.535  22.880  0.00  0.00    +0.002 C 
ATOM     15  C   UNL     1       4.534  -1.688  23.738  0.00  0.00    +0.002 C 
ATOM     16  C   UNL     1       5.599  -0.604  23.868  0.00  0.00    +0.000 C 
ENDBRANCH   2   6
BRANCH   4  17
ATOM     17  C   UNL     1      -4.154   0.768  24.402  0.00  0.00    +0.119 C 
BRANCH  17  18
ATOM     18  C   UNL     1      -4.020  -0.715  24.627  0.00  0.00    -0.033 A 
ATOM     19  C   UNL     1      -3.427  -1.193  25.795  0.00  0.00    +0.005 A 
ATOM     20  C   UNL     1      -4.488  -1.610  23.666  0.00  0.00    +0.005 A 
ATOM     21  C   UNL     1      -3.303  -2.567  26.002  0.00  0.00    +0.000 A 
ATOM     22  C   UNL     1      -4.364  -2.984  23.872  0.00  0.00    +0.000 A 
ATOM     23  C   UNL     1      -3.772  -3.462  25.041  0.00  0.00    +0.000 A 
ENDBRANCH  17  18
ENDBRANCH   4  17
TORSDOF 3
ENDMDL
MODEL 5
REMARK VINA RESULT:       1.6      1.789      8.703
REMARK  Name = 75537120
REMARK  3 active torsions:
REMARK  status: ('A' for Active; 'I' for Inactive)
REMARK    1  A    between atoms: N_2  and  C_6
REMARK    2  A    between atoms: N_4  and  C_17
REMARK    3  A    between atoms: C_17  and  C_18
REMARK                            x       y       z     vdW  Elec       q    Type
REMARK                         _______ _______ _______ _____ _____    ______ ____
ROOT
ATOM      1  O   UNL     1       1.057  -0.600  20.993  0.00  0.00    -0.252 OA
ATOM      2  N   UNL     1       1.902   0.085  23.086  0.00  0.00    -0.281 N 
ATOM      3  N   UNL     1      -0.277   0.407  22.644  0.00  0.00    -0.278 N 
ATOM      4  N   UNL     1      -2.198   2.115  23.784  0.00  0.00    -0.295 NA
ATOM      5  C   UNL     1      -0.123   0.813  24.025  0.00  0.00    +0.109 C 
ATOM      7  C   UNL     1       1.390   0.808  24.238  0.00  0.00    +0.133 C 
ATOM      8  C   UNL     1      -0.800   2.163  24.260  0.00  0.00    +0.109 C 
ATOM     11  C   UNL     1       0.910  -0.103  22.101  0.00  0.00    +0.305 C 
ATOM     12  C   UNL     1      -1.587   0.464  22.030  0.00  0.00    +0.125 C 
ATOM     13  C   UNL     1      -2.253   1.807  22.342  0.00  0.00    +0.104 C 
ENDROOT
BRANCH   2   6
ATOM      6  C   UNL     1       3.300  -0.243  22.948  0.00  0.00    +0.078 C 
ATOM      9  C   UNL     1       4.174   0.981  23.236  0.00  0.00    +0.022 C 
ATOM     10  C   UNL     1       3.668  -1.417  23.859  0.00  0.00    +0.022 C 
ATOM     14  C   UNL     1       5.660   0.642  23.150  0.00  0.00    +0.002 C 
ATOM     15  C   UNL     1       5.154  -1.751  23.773  0.00  0.00    +0.002 C 
ATOM     16  C   UNL     1       6.024  -0.530  24.056  0.00  0.00    +0.000 C 
ENDBRANCH   2   6
BRANCH   4  17
ATOM     17  C   UNL     1      -2.873   3.383  24.061  0.00  0.00    +0.119 C 
BRANCH  17  18
ATOM     18  C   UNL     1      -4.194   3.174  24.753  0.00  0.00    -0.033 A 
ATOM     19  C   UNL     1      -4.924   4.273  25.208  0.00  0.00    +0.005 A 
ATOM     20  C   UNL     1      -4.688   1.884  24.939  0.00  0.00    +0.005 A 
ATOM     21  C   UNL     1      -6.148   4.079  25.849  0.00  0.00    +0.000 A 
ATOM     22  C   UNL     1      -5.912   1.690  25.579  0.00  0.00    +0.000 A 
ATOM     23  C   UNL     1      -6.642   2.788  26.034  0.00  0.00    +0.000 A 
ENDBRANCH  17  18
ENDBRANCH   4  17
TORSDOF 3
ENDMDL
