MODEL 1
REMARK VINA RESULT:      -2.6      0.000      0.000
REMARK  Name = 25338588
REMARK  10 active torsions:
REMARK  status: ('A' for Active; 'I' for Inactive)
REMARK    1  A    between atoms: S_1  and  N_7
REMARK    2  A    between atoms: S_1  and  C_16
REMARK    3  A    between atoms: O_5  and  C_25
REMARK    4  A    between atoms: O_5  and  C_26
REMARK    5  A    between atoms: N_6  and  C_15
REMARK    6  A    between atoms: N_7  and  C_10
REMARK    7  A    between atoms: C_11  and  C_14
REMARK    8  A    between atoms: C_16  and  C_17
REMARK    9  A    between atoms: C_17  and  C_19
REMARK   10  A    between atoms: C_18  and  C_20
REMARK                            x       y       z     vdW  Elec       q    Type
REMARK                         _______ _______ _______ _____ _____    ______ ____
ROOT
ATOM      6  N   UNL     1      -5.069  -9.045  10.900  0.00  0.00    -0.293 NA
ATOM     10  C   UNL     1      -2.888  -9.655  10.340  0.00  0.00    +0.092 C 
ATOM     11  C   UNL     1      -4.867 -10.329  11.600  0.00  0.00    +0.147 C 
ATOM     12  C   UNL     1      -3.373 -10.646  11.395  0.00  0.00    +0.050 C 
ATOM     13  C   UNL     1      -4.160  -9.069   9.749  0.00  0.00    +0.105 C 
ATOM     15  C   UNL     1      -6.452  -8.822  10.496  0.00  0.00    +0.105 C 
ENDROOT
BRANCH  11  14
ATOM      2  O   UNL     1      -4.247 -10.402  13.963  0.00  0.00    -0.336 OA
ATOM      8  N   UNL     1      -6.444 -10.161  13.601  0.00  0.00    -0.190 NA
ATOM      9  N   UNL     1      -4.845 -10.338  15.227  0.00  0.00    -0.056 NA
ATOM     14  C   UNL     1      -5.258 -10.289  13.062  0.00  0.00    +0.245 A 
ATOM     18  C   UNL     1      -6.141 -10.197  14.930  0.00  0.00    +0.202 A 
BRANCH  18  20
ATOM     20  C   UNL     1      -7.155 -10.087  15.939  0.00  0.00    +0.023 A 
ATOM     21  C   UNL     1      -8.442  -9.676  15.591  0.00  0.00    +0.015 A 
ATOM     22  C   UNL     1      -6.854 -10.390  17.266  0.00  0.00    +0.015 A 
ATOM     23  C   UNL     1      -9.429  -9.568  16.572  0.00  0.00    +0.046 A 
ATOM     24  C   UNL     1      -7.840 -10.282  18.247  0.00  0.00    +0.046 A 
ATOM     25  C   UNL     1      -9.127  -9.870  17.899  0.00  0.00    +0.120 A 
BRANCH  25   5
ATOM      5  O   UNL     1     -10.089  -9.766  18.857  0.00  0.00    -0.495 OA
ATOM     26  C   UNL     1     -10.118 -10.781  19.860  0.00  0.00    +0.277 C 
ENDBRANCH  25   5
ENDBRANCH  18  20
ENDBRANCH  11  14
BRANCH  10   7
ATOM      7  N   UNL     1      -2.088  -8.583  10.985  0.00  0.00    -0.190 NA
ATOM     27  H   UNL     1      -2.253  -7.617  10.678  0.00  0.00    +0.148 HD
BRANCH   7   1
ATOM      1  S   UNL     1      -0.613  -8.995  11.728  0.00  0.00    +0.030 S 
ATOM      3  O   UNL     1       0.301  -9.545  10.747  0.00  0.00    -0.158 OA
ATOM      4  O   UNL     1      -0.909  -9.715  12.952  0.00  0.00    -0.158 OA
BRANCH   1  16
ATOM     16  C   UNL     1      -0.016  -7.385  12.192  0.00  0.00    +0.185 C 
BRANCH  16  17
ATOM     17  C   UNL     1       1.503  -7.344  12.213  0.00  0.00    +0.021 C 
ATOM     19  C   UNL     1       2.021  -5.916  12.149  0.00  0.00    +0.005 C 
ENDBRANCH  16  17
ENDBRANCH   1  16
ENDBRANCH   7   1
ENDBRANCH  10   7
TORSDOF 7
ENDMDL
MODEL 2
REMARK VINA RESULT:      -2.5      1.610      2.163
REMARK  Name = 25338588
REMARK  10 active torsions:
REMARK  status: ('A' for Active; 'I' for Inactive)
REMARK    1  A    between atoms: S_1  and  N_7
REMARK    2  A    between atoms: S_1  and  C_16
REMARK    3  A    between atoms: O_5  and  C_25
REMARK    4  A    between atoms: O_5  and  C_26
REMARK    5  A    between atoms: N_6  and  C_15
REMARK    6  A    between atoms: N_7  and  C_10
REMARK    7  A    between atoms: C_11  and  C_14
REMARK    8  A    between atoms: C_16  and  C_17
REMARK    9  A    between atoms: C_17  and  C_19
REMARK   10  A    between atoms: C_18  and  C_20
REMARK                            x       y       z     vdW  Elec       q    Type
REMARK                         _______ _______ _______ _____ _____    ______ ____
ROOT
ATOM      6  N   UNL     1      -5.678  -8.754   9.974  0.00  0.00    -0.293 NA
ATOM     10  C   UNL     1      -3.588  -9.787   9.919  0.00  0.00    +0.092 C 
ATOM     11  C   UNL     1      -5.933 -10.102  10.518  0.00  0.00    +0.147 C 
ATOM     12  C   UNL     1      -4.532 -10.727  10.666  0.00  0.00    +0.050 C 
ATOM     13  C   UNL     1      -4.503  -8.887   9.106  0.00  0.00    +0.105 C 
ATOM     15  C   UNL     1      -6.821  -8.196   9.260  0.00  0.00    +0.105 C 
ENDROOT
BRANCH  11  14
ATOM      2  O   UNL     1      -8.055  -9.953  11.721  0.00  0.00    -0.336 OA
ATOM      8  N   UNL     1      -6.267 -10.200  13.047  0.00  0.00    -0.190 NA
ATOM      9  N   UNL     1      -8.543  -9.974  13.033  0.00  0.00    -0.056 NA
ATOM     14  C   UNL     1      -6.706 -10.093  11.819  0.00  0.00    +0.245 A 
ATOM     18  C   UNL     1      -7.429 -10.122  13.757  0.00  0.00    +0.202 A 
BRANCH  18  20
ATOM     20  C   UNL     1      -7.445 -10.195  15.189  0.00  0.00    +0.023 A 
ATOM     21  C   UNL     1      -6.309 -10.621  15.878  0.00  0.00    +0.015 A 
ATOM     22  C   UNL     1      -8.595  -9.843  15.893  0.00  0.00    +0.015 A 
ATOM     23  C   UNL     1      -6.324 -10.695  17.271  0.00  0.00    +0.046 A 
ATOM     24  C   UNL     1      -8.611  -9.917  17.286  0.00  0.00    +0.046 A 
ATOM     25  C   UNL     1      -7.475 -10.343  17.974  0.00  0.00    +0.120 A 
BRANCH  25   5
ATOM      5  O   UNL     1      -7.491 -10.413  19.334  0.00  0.00    -0.495 OA
ATOM     26  C   UNL     1      -6.229 -10.512  19.993  0.00  0.00    +0.277 C 
ENDBRANCH  25   5
ENDBRANCH  18  20
ENDBRANCH  11  14
BRANCH  10   7
ATOM      7  N   UNL     1      -2.812  -8.975  10.892  0.00  0.00    -0.190 NA
ATOM     27  H   UNL     1      -2.583  -8.009  10.628  0.00  0.00    +0.148 HD
BRANCH   7   1
ATOM      1  S   UNL     1      -1.877  -9.775  12.067  0.00  0.00    +0.030 S 
ATOM      3  O   UNL     1      -1.032 -10.771  11.436  0.00  0.00    -0.158 OA
ATOM      4  O   UNL     1      -2.747 -10.133  13.170  0.00  0.00    -0.158 OA
BRANCH   1  16
ATOM     16  C   UNL     1      -0.835  -8.445  12.622  0.00  0.00    +0.185 C 
BRANCH  16  17
ATOM     17  C   UNL     1       0.216  -8.094  11.581  0.00  0.00    +0.021 C 
ATOM     19  C   UNL     1       1.371  -7.323  12.198  0.00  0.00    +0.005 C 
ENDBRANCH  16  17
ENDBRANCH   1  16
ENDBRANCH   7   1
ENDBRANCH  10   7
TORSDOF 7
ENDMDL
MODEL 3
REMARK VINA RESULT:      -1.5     14.783     17.434
REMARK  Name = 25338588
REMARK  10 active torsions:
REMARK  status: ('A' for Active; 'I' for Inactive)
REMARK    1  A    between atoms: S_1  and  N_7
REMARK    2  A    between atoms: S_1  and  C_16
REMARK    3  A    between atoms: O_5  and  C_25
REMARK    4  A    between atoms: O_5  and  C_26
REMARK    5  A    between atoms: N_6  and  C_15
REMARK    6  A    between atoms: N_7  and  C_10
REMARK    7  A    between atoms: C_11  and  C_14
REMARK    8  A    between atoms: C_16  and  C_17
REMARK    9  A    between atoms: C_17  and  C_19
REMARK   10  A    between atoms: C_18  and  C_20
REMARK                            x       y       z     vdW  Elec       q    Type
REMARK                         _______ _______ _______ _____ _____    ______ ____
ROOT
ATOM      6  N   UNL     1      -2.836  -0.659  24.993  0.00  0.00    -0.293 NA
ATOM     10  C   UNL     1      -4.493   0.909  24.504  0.00  0.00    +0.092 C 
ATOM     11  C   UNL     1      -2.412  -0.084  23.702  0.00  0.00    +0.147 C 
ATOM     12  C   UNL     1      -3.390   1.083  23.461  0.00  0.00    +0.050 C 
ATOM     13  C   UNL     1      -4.293  -0.498  25.044  0.00  0.00    +0.105 C 
ATOM     15  C   UNL     1      -2.437  -2.052  25.161  0.00  0.00    +0.105 C 
ENDROOT
BRANCH  11  14
ATOM      2  O   UNL     1      -0.727   1.667  23.960  0.00  0.00    -0.336 OA
ATOM      8  N   UNL     1       0.114  -0.341  23.434  0.00  0.00    -0.190 NA
ATOM      9  N   UNL     1       0.661   1.834  23.883  0.00  0.00    -0.056 NA
ATOM     14  C   UNL     1      -0.964   0.358  23.682  0.00  0.00    +0.245 A 
ATOM     18  C   UNL     1       1.086   0.606  23.569  0.00  0.00    +0.202 A 
BRANCH  18  20
ATOM     20  C   UNL     1       2.474   0.294  23.384  0.00  0.00    +0.023 A 
ATOM     21  C   UNL     1       2.956  -0.970  23.724  0.00  0.00    +0.015 A 
ATOM     22  C   UNL     1       3.342   1.255  22.867  0.00  0.00    +0.015 A 
ATOM     23  C   UNL     1       4.306  -1.273  23.546  0.00  0.00    +0.046 A 
ATOM     24  C   UNL     1       4.692   0.953  22.690  0.00  0.00    +0.046 A 
ATOM     25  C   UNL     1       5.173  -0.312  23.030  0.00  0.00    +0.120 A 
BRANCH  25   5
ATOM      5  O   UNL     1       6.491  -0.606  22.855  0.00  0.00    -0.495 OA
ATOM     26  C   UNL     1       7.430   0.133  23.636  0.00  0.00    +0.277 C 
ENDBRANCH  25   5
ENDBRANCH  18  20
ENDBRANCH  11  14
BRANCH  10   7
ATOM      7  N   UNL     1      -4.316   1.901  25.594  0.00  0.00    -0.190 NA
ATOM     27  H   UNL     1      -4.408   1.566  26.561  0.00  0.00    +0.148 HD
BRANCH   7   1
ATOM      1  S   UNL     1      -4.542   3.551  25.246  0.00  0.00    +0.030 S 
ATOM      3  O   UNL     1      -5.829   3.993  25.748  0.00  0.00    -0.158 OA
ATOM      4  O   UNL     1      -4.168   3.778  23.864  0.00  0.00    -0.158 OA
BRANCH   1  16
ATOM     16  C   UNL     1      -3.279   4.280  26.264  0.00  0.00    +0.185 C 
BRANCH  16  17
ATOM     17  C   UNL     1      -1.889   3.933  25.754  0.00  0.00    +0.021 C 
ATOM     19  C   UNL     1      -1.240   5.119  25.060  0.00  0.00    +0.005 C 
ENDBRANCH  16  17
ENDBRANCH   1  16
ENDBRANCH   7   1
ENDBRANCH  10   7
TORSDOF 7
ENDMDL
MODEL 4
REMARK VINA RESULT:      -0.8     14.767     17.161
REMARK  Name = 25338588
REMARK  10 active torsions:
REMARK  status: ('A' for Active; 'I' for Inactive)
REMARK    1  A    between atoms: S_1  and  N_7
REMARK    2  A    between atoms: S_1  and  C_16
REMARK    3  A    between atoms: O_5  and  C_25
REMARK    4  A    between atoms: O_5  and  C_26
REMARK    5  A    between atoms: N_6  and  C_15
REMARK    6  A    between atoms: N_7  and  C_10
REMARK    7  A    between atoms: C_11  and  C_14
REMARK    8  A    between atoms: C_16  and  C_17
REMARK    9  A    between atoms: C_17  and  C_19
REMARK   10  A    between atoms: C_18  and  C_20
REMARK                            x       y       z     vdW  Elec       q    Type
REMARK                         _______ _______ _______ _____ _____    ______ ____
ROOT
ATOM      6  N   UNL     1      -4.060   0.880  24.873  0.00  0.00    -0.293 NA
ATOM     10  C   UNL     1      -4.310   3.057  24.073  0.00  0.00    +0.092 C 
ATOM     11  C   UNL     1      -3.295   0.886  23.611  0.00  0.00    +0.147 C 
ATOM     12  C   UNL     1      -3.292   2.363  23.171  0.00  0.00    +0.050 C 
ATOM     13  C   UNL     1      -5.081   1.922  24.727  0.00  0.00    +0.105 C 
ATOM     15  C   UNL     1      -4.648  -0.418  25.183  0.00  0.00    +0.105 C 
ENDROOT
BRANCH  11  14
ATOM      2  O   UNL     1      -1.789  -0.866  24.407  0.00  0.00    -0.336 OA
ATOM      8  N   UNL     1      -0.759   0.800  23.320  0.00  0.00    -0.190 NA
ATOM      9  N   UNL     1      -0.425  -1.186  24.406  0.00  0.00    -0.056 NA
ATOM     14  C   UNL     1      -1.898   0.317  23.748  0.00  0.00    +0.245 A 
ATOM     18  C   UNL     1       0.115  -0.156  23.747  0.00  0.00    +0.202 A 
BRANCH  18  20
ATOM     20  C   UNL     1       1.524  -0.054  23.498  0.00  0.00    +0.023 A 
ATOM     21  C   UNL     1       2.071   1.157  23.074  0.00  0.00    +0.015 A 
ATOM     22  C   UNL     1       2.346  -1.165  23.680  0.00  0.00    +0.015 A 
ATOM     23  C   UNL     1       3.442   1.256  22.831  0.00  0.00    +0.046 A 
ATOM     24  C   UNL     1       3.716  -1.067  23.436  0.00  0.00    +0.046 A 
ATOM     25  C   UNL     1       4.263   0.144  23.012  0.00  0.00    +0.120 A 
BRANCH  25   5
ATOM      5  O   UNL     1       5.601   0.240  22.775  0.00  0.00    -0.495 OA
ATOM     26  C   UNL     1       6.461  -0.559  23.587  0.00  0.00    +0.277 C 
ENDBRANCH  25   5
ENDBRANCH  18  20
ENDBRANCH  11  14
BRANCH  10   7
ATOM      7  N   UNL     1      -3.604   3.854  25.108  0.00  0.00    -0.190 NA
ATOM     27  H   UNL     1      -4.160   4.526  25.651  0.00  0.00    +0.148 HD
BRANCH   7   1
ATOM      1  S   UNL     1      -1.920   4.059  24.979  0.00  0.00    +0.030 S 
ATOM      3  O   UNL     1      -1.544   5.383  25.436  0.00  0.00    -0.158 OA
ATOM      4  O   UNL     1      -1.504   3.579  23.676  0.00  0.00    -0.158 OA
BRANCH   1  16
ATOM     16  C   UNL     1      -1.351   2.882  26.185  0.00  0.00    +0.185 C 
BRANCH  16  17
ATOM     17  C   UNL     1       0.150   2.664  26.079  0.00  0.00    +0.021 C 
ATOM     19  C   UNL     1       0.788   2.518  27.451  0.00  0.00    +0.005 C 
ENDBRANCH  16  17
ENDBRANCH   1  16
ENDBRANCH   7   1
ENDBRANCH  10   7
TORSDOF 7
ENDMDL
MODEL 5
REMARK VINA RESULT:       0.5     14.790     17.928
REMARK  Name = 25338588
REMARK  10 active torsions:
REMARK  status: ('A' for Active; 'I' for Inactive)
REMARK    1  A    between atoms: S_1  and  N_7
REMARK    2  A    between atoms: S_1  and  C_16
REMARK    3  A    between atoms: O_5  and  C_25
REMARK    4  A    between atoms: O_5  and  C_26
REMARK    5  A    between atoms: N_6  and  C_15
REMARK    6  A    between atoms: N_7  and  C_10
REMARK    7  A    between atoms: C_11  and  C_14
REMARK    8  A    between atoms: C_16  and  C_17
REMARK    9  A    between atoms: C_17  and  C_19
REMARK   10  A    between atoms: C_18  and  C_20
REMARK                            x       y       z     vdW  Elec       q    Type
REMARK                         _______ _______ _______ _____ _____    ______ ____
ROOT
ATOM      6  N   UNL     1      -2.116   4.471  24.889  0.00  0.00    -0.293 NA
ATOM     10  C   UNL     1      -3.986   3.605  25.982  0.00  0.00    +0.092 C 
ATOM     11  C   UNL     1      -1.581   3.334  25.663  0.00  0.00    +0.147 C 
ATOM     12  C   UNL     1      -2.831   2.638  26.237  0.00  0.00    +0.050 C 
ATOM     13  C   UNL     1      -3.314   4.916  25.607  0.00  0.00    +0.105 C 
ATOM     15  C   UNL     1      -1.152   5.552  24.716  0.00  0.00    +0.105 C 
ENDROOT
BRANCH  11  14
ATOM      2  O   UNL     1      -1.373   1.541  24.014  0.00  0.00    -0.336 OA
ATOM      8  N   UNL     1       0.584   2.282  24.812  0.00  0.00    -0.190 NA
ATOM      9  N   UNL     1      -0.381   0.789  23.373  0.00  0.00    -0.056 NA
ATOM     14  C   UNL     1      -0.719   2.397  24.844  0.00  0.00    +0.245 A 
ATOM     18  C   UNL     1       0.745   1.284  23.897  0.00  0.00    +0.202 A 
BRANCH  18  20
ATOM     20  C   UNL     1       2.044   0.803  23.524  0.00  0.00    +0.023 A 
ATOM     21  C   UNL     1       3.015   1.697  23.072  0.00  0.00    +0.015 A 
ATOM     22  C   UNL     1       2.336  -0.557  23.613  0.00  0.00    +0.015 A 
ATOM     23  C   UNL     1       4.278   1.230  22.708  0.00  0.00    +0.046 A 
ATOM     24  C   UNL     1       3.599  -1.025  23.249  0.00  0.00    +0.046 A 
ATOM     25  C   UNL     1       4.570  -0.131  22.797  0.00  0.00    +0.120 A 
BRANCH  25   5
ATOM      5  O   UNL     1       5.802  -0.588  22.443  0.00  0.00    -0.495 OA
ATOM     26  C   UNL     1       6.893  -0.237  23.294  0.00  0.00    +0.277 C 
ENDBRANCH  25   5
ENDBRANCH  18  20
ENDBRANCH  11  14
BRANCH  10   7
ATOM      7  N   UNL     1      -4.812   3.116  24.849  0.00  0.00    -0.190 NA
ATOM     27  H   UNL     1      -5.055   3.790  24.114  0.00  0.00    +0.148 HD
BRANCH   7   1
ATOM      1  S   UNL     1      -5.766   1.724  25.070  0.00  0.00    +0.030 S 
ATOM      3  O   UNL     1      -6.968   1.813  24.264  0.00  0.00    -0.158 OA
ATOM      4  O   UNL     1      -5.845   1.451  26.492  0.00  0.00    -0.158 OA
BRANCH   1  16
ATOM     16  C   UNL     1      -4.714   0.485  24.350  0.00  0.00    +0.185 C 
BRANCH  16  17
ATOM     17  C   UNL     1      -4.144  -0.442  25.411  0.00  0.00    +0.021 C 
ATOM     19  C   UNL     1      -3.664  -1.751  24.805  0.00  0.00    +0.005 C 
ENDBRANCH  16  17
ENDBRANCH   1  16
ENDBRANCH   7   1
ENDBRANCH  10   7
TORSDOF 7
ENDMDL
MODEL 6
REMARK VINA RESULT:       0.5     13.932     16.803
REMARK  Name = 25338588
REMARK  10 active torsions:
REMARK  status: ('A' for Active; 'I' for Inactive)
REMARK    1  A    between atoms: S_1  and  N_7
REMARK    2  A    between atoms: S_1  and  C_16
REMARK    3  A    between atoms: O_5  and  C_25
REMARK    4  A    between atoms: O_5  and  C_26
REMARK    5  A    between atoms: N_6  and  C_15
REMARK    6  A    between atoms: N_7  and  C_10
REMARK    7  A    between atoms: C_11  and  C_14
REMARK    8  A    between atoms: C_16  and  C_17
REMARK    9  A    between atoms: C_17  and  C_19
REMARK   10  A    between atoms: C_18  and  C_20
REMARK                            x       y       z     vdW  Elec       q    Type
REMARK                         _______ _______ _______ _____ _____    ______ ____
ROOT
ATOM      6  N   UNL     1      -4.076   2.505  24.140  0.00  0.00    -0.293 NA
ATOM     10  C   UNL     1      -4.771   0.537  25.183  0.00  0.00    +0.092 C 
ATOM     11  C   UNL     1      -3.048   2.266  25.171  0.00  0.00    +0.147 C 
ATOM     12  C   UNL     1      -3.388   0.873  25.737  0.00  0.00    +0.050 C 
ATOM     13  C   UNL     1      -5.294   1.853  24.631  0.00  0.00    +0.105 C 
ATOM     15  C   UNL     1      -4.291   3.920  23.860  0.00  0.00    +0.105 C 
ENDROOT
BRANCH  11  14
ATOM      2  O   UNL     1      -1.143   3.595  24.410  0.00  0.00    -0.336 OA
ATOM      8  N   UNL     1      -0.788   1.384  24.371  0.00  0.00    -0.190 NA
ATOM      9  N   UNL     1       0.162   3.419  23.935  0.00  0.00    -0.056 NA
ATOM     14  C   UNL     1      -1.631   2.348  24.643  0.00  0.00    +0.245 A 
ATOM     18  C   UNL     1       0.297   2.089  23.940  0.00  0.00    +0.202 A 
BRANCH  18  20
ATOM     20  C   UNL     1       1.503   1.435  23.522  0.00  0.00    +0.023 A 
ATOM     21  C   UNL     1       1.528   0.048  23.369  0.00  0.00    +0.015 A 
ATOM     22  C   UNL     1       2.651   2.185  23.269  0.00  0.00    +0.015 A 
ATOM     23  C   UNL     1       2.701  -0.588  22.964  0.00  0.00    +0.046 A 
ATOM     24  C   UNL     1       3.825   1.549  22.864  0.00  0.00    +0.046 A 
ATOM     25  C   UNL     1       3.850   0.162  22.712  0.00  0.00    +0.120 A 
BRANCH  25   5
ATOM      5  O   UNL     1       4.995  -0.457  22.316  0.00  0.00    -0.495 OA
ATOM     26  C   UNL     1       6.131  -0.328  23.170  0.00  0.00    +0.277 C 
ENDBRANCH  25   5
ENDBRANCH  18  20
ENDBRANCH  11  14
BRANCH  10   7
ATOM      7  N   UNL     1      -4.646  -0.458  24.087  0.00  0.00    -0.190 NA
ATOM     27  H   UNL     1      -5.307  -0.389  23.305  0.00  0.00    +0.148 HD
BRANCH   7   1
ATOM      1  S   UNL     1      -3.867  -1.937  24.407  0.00  0.00    +0.030 S 
ATOM      3  O   UNL     1      -4.417  -2.981  23.565  0.00  0.00    -0.158 OA
ATOM      4  O   UNL     1      -3.792  -2.107  25.845  0.00  0.00    -0.158 OA
BRANCH   1  16
ATOM     16  C   UNL     1      -2.224  -1.577  23.829  0.00  0.00    +0.185 C 
BRANCH  16  17
ATOM     17  C   UNL     1      -1.186  -2.419  24.554  0.00  0.00    +0.021 C 
ATOM     19  C   UNL     1      -0.466  -1.614  25.623  0.00  0.00    +0.005 C 
ENDBRANCH  16  17
ENDBRANCH   1  16
ENDBRANCH   7   1
ENDBRANCH  10   7
TORSDOF 7
ENDMDL
MODEL 7
REMARK VINA RESULT:       0.7      1.733      2.078
REMARK  Name = 25338588
REMARK  10 active torsions:
REMARK  status: ('A' for Active; 'I' for Inactive)
REMARK    1  A    between atoms: S_1  and  N_7
REMARK    2  A    between atoms: S_1  and  C_16
REMARK    3  A    between atoms: O_5  and  C_25
REMARK    4  A    between atoms: O_5  and  C_26
REMARK    5  A    between atoms: N_6  and  C_15
REMARK    6  A    between atoms: N_7  and  C_10
REMARK    7  A    between atoms: C_11  and  C_14
REMARK    8  A    between atoms: C_16  and  C_17
REMARK    9  A    between atoms: C_17  and  C_19
REMARK   10  A    between atoms: C_18  and  C_20
REMARK                            x       y       z     vdW  Elec       q    Type
REMARK                         _______ _______ _______ _____ _____    ______ ____
ROOT
ATOM      6  N   UNL     1      -3.191  -9.794  12.400  0.00  0.00    -0.293 NA
ATOM     10  C   UNL     1      -0.897  -9.997  12.773  0.00  0.00    +0.092 C 
ATOM     11  C   UNL     1      -3.094 -10.776  13.497  0.00  0.00    +0.147 C 
ATOM     12  C   UNL     1      -1.601 -10.776  13.881  0.00  0.00    +0.050 C 
ATOM     13  C   UNL     1      -1.928  -9.893  11.661  0.00  0.00    +0.105 C 
ATOM     15  C   UNL     1      -4.346 -10.010  11.535  0.00  0.00    +0.105 C 
ENDROOT
BRANCH  11  14
ATOM      2  O   UNL     1      -3.399  -9.925  15.768  0.00  0.00    -0.336 OA
ATOM      8  N   UNL     1      -5.289 -10.631  14.794  0.00  0.00    -0.190 NA
ATOM      9  N   UNL     1      -4.419  -9.725  16.706  0.00  0.00    -0.056 NA
ATOM     14  C   UNL     1      -3.997 -10.462  14.671  0.00  0.00    +0.245 A 
ATOM     18  C   UNL     1      -5.502 -10.165  16.058  0.00  0.00    +0.202 A 
BRANCH  18  20
ATOM     20  C   UNL     1      -6.811 -10.151  16.646  0.00  0.00    +0.023 A 
ATOM     21  C   UNL     1      -7.866  -9.522  15.985  0.00  0.00    +0.015 A 
ATOM     22  C   UNL     1      -7.028 -10.766  17.878  0.00  0.00    +0.015 A 
ATOM     23  C   UNL     1      -9.138  -9.507  16.557  0.00  0.00    +0.046 A 
ATOM     24  C   UNL     1      -8.300 -10.751  18.451  0.00  0.00    +0.046 A 
ATOM     25  C   UNL     1      -9.355 -10.121  17.790  0.00  0.00    +0.120 A 
BRANCH  25   5
ATOM      5  O   UNL     1     -10.596 -10.108  18.349  0.00  0.00    -0.495 OA
ATOM     26  C   UNL     1     -10.707 -10.578  19.692  0.00  0.00    +0.277 C 
ENDBRANCH  25   5
ENDBRANCH  18  20
ENDBRANCH  11  14
BRANCH  10   7
ATOM      7  N   UNL     1      -0.538  -8.641  13.259  0.00  0.00    -0.190 NA
ATOM     27  H   UNL     1      -1.033  -8.287  14.087  0.00  0.00    +0.148 HD
BRANCH   7   1
ATOM      1  S   UNL     1       0.192  -7.548  12.178  0.00  0.00    +0.030 S 
ATOM      3  O   UNL     1      -0.353  -6.218  12.372  0.00  0.00    -0.158 OA
ATOM      4  O   UNL     1       0.208  -8.157  10.862  0.00  0.00    -0.158 OA
BRANCH   1  16
ATOM     16  C   UNL     1       1.863  -7.549  12.784  0.00  0.00    +0.185 C 
BRANCH  16  17
ATOM     17  C   UNL     1       2.686  -6.445  12.140  0.00  0.00    +0.021 C 
ATOM     19  C   UNL     1       4.143  -6.851  11.996  0.00  0.00    +0.005 C 
ENDBRANCH  16  17
ENDBRANCH   1  16
ENDBRANCH   7   1
ENDBRANCH  10   7
TORSDOF 7
ENDMDL
MODEL 8
REMARK VINA RESULT:       1.2     13.706     16.845
REMARK  Name = 25338588
REMARK  10 active torsions:
REMARK  status: ('A' for Active; 'I' for Inactive)
REMARK    1  A    between atoms: S_1  and  N_7
REMARK    2  A    between atoms: S_1  and  C_16
REMARK    3  A    between atoms: O_5  and  C_25
REMARK    4  A    between atoms: O_5  and  C_26
REMARK    5  A    between atoms: N_6  and  C_15
REMARK    6  A    between atoms: N_7  and  C_10
REMARK    7  A    between atoms: C_11  and  C_14
REMARK    8  A    between atoms: C_16  and  C_17
REMARK    9  A    between atoms: C_17  and  C_19
REMARK   10  A    between atoms: C_18  and  C_20
REMARK                            x       y       z     vdW  Elec       q    Type
REMARK                         _______ _______ _______ _____ _____    ______ ____
ROOT
ATOM      6  N   UNL     1      -2.709   1.818  22.867  0.00  0.00    -0.293 NA
ATOM     10  C   UNL     1      -3.499   1.806  25.062  0.00  0.00    +0.092 C 
ATOM     11  C   UNL     1      -1.519   2.144  23.676  0.00  0.00    +0.147 C 
ATOM     12  C   UNL     1      -1.980   1.952  25.133  0.00  0.00    +0.050 C 
ATOM     13  C   UNL     1      -3.863   2.258  23.658  0.00  0.00    +0.105 C 
ATOM     15  C   UNL     1      -2.691   2.431  21.543  0.00  0.00    +0.105 C 
ENDROOT
BRANCH  11  14
ATOM      2  O   UNL     1      -0.495   0.312  22.423  0.00  0.00    -0.336 OA
ATOM      8  N   UNL     1       0.917   1.387  23.789  0.00  0.00    -0.190 NA
ATOM      9  N   UNL     1       0.747  -0.317  22.272  0.00  0.00    -0.056 NA
ATOM     14  C   UNL     1      -0.307   1.304  23.334  0.00  0.00    +0.245 A 
ATOM     18  C   UNL     1       1.527   0.374  23.110  0.00  0.00    +0.202 A 
BRANCH  18  20
ATOM     20  C   UNL     1       2.919   0.076  23.289  0.00  0.00    +0.023 A 
ATOM     21  C   UNL     1       3.880   1.055  23.035  0.00  0.00    +0.015 A 
ATOM     22  C   UNL     1       3.311  -1.192  23.717  0.00  0.00    +0.015 A 
ATOM     23  C   UNL     1       5.234   0.765  23.207  0.00  0.00    +0.046 A 
ATOM     24  C   UNL     1       4.665  -1.482  23.889  0.00  0.00    +0.046 A 
ATOM     25  C   UNL     1       5.626  -0.503  23.634  0.00  0.00    +0.120 A 
BRANCH  25   5
ATOM      5  O   UNL     1       6.947  -0.787  23.804  0.00  0.00    -0.495 OA
ATOM     26  C   UNL     1       7.824  -0.455  22.728  0.00  0.00    +0.277 C 
ENDBRANCH  25   5
ENDBRANCH  18  20
ENDBRANCH  11  14
BRANCH  10   7
ATOM      7  N   UNL     1      -3.877   0.382  25.250  0.00  0.00    -0.190 NA
ATOM     27  H   UNL     1      -4.876   0.165  25.350  0.00  0.00    +0.148 HD
BRANCH   7   1
ATOM      1  S   UNL     1      -2.712  -0.704  25.849  0.00  0.00    +0.030 S 
ATOM      3  O   UNL     1      -3.301  -1.554  26.867  0.00  0.00    -0.158 OA
ATOM      4  O   UNL     1      -1.496   0.039  26.118  0.00  0.00    -0.158 OA
BRANCH   1  16
ATOM     16  C   UNL     1      -2.418  -1.702  24.407  0.00  0.00    +0.185 C 
BRANCH  16  17
ATOM     17  C   UNL     1      -3.348  -2.903  24.366  0.00  0.00    +0.021 C 
ATOM     19  C   UNL     1      -4.592  -2.614  23.543  0.00  0.00    +0.005 C 
ENDBRANCH  16  17
ENDBRANCH   1  16
ENDBRANCH   7   1
ENDBRANCH  10   7
TORSDOF 7
ENDMDL
