MODEL 1
REMARK VINA RESULT:       2.0      0.000      0.000
REMARK  Name = 45361384
REMARK  14 active torsions:
REMARK  status: ('A' for Active; 'I' for Inactive)
REMARK    1  A    between atoms: O_1  and  C_11
REMARK    2  A    between atoms: O_4  and  C_32
REMARK    3  A    between atoms: O_4  and  C_34
REMARK    4  A    between atoms: N_5  and  C_15
REMARK    5  A    between atoms: N_6  and  C_25
REMARK    6  A    between atoms: N_6  and  C_26
REMARK    7  A    between atoms: C_8  and  C_18
REMARK    8  A    between atoms: C_10  and  C_20
REMARK    9  A    between atoms: C_13  and  C_19
REMARK   10  A    between atoms: C_19  and  C_21
REMARK   11  A    between atoms: C_19  and  C_22
REMARK   12  A    between atoms: C_23  and  C_24
REMARK   13  A    between atoms: C_25  and  C_27
REMARK   14  A    between atoms: C_27  and  C_33
REMARK                            x       y       z     vdW  Elec       q    Type
REMARK                         _______ _______ _______ _____ _____    ______ ____
ROOT
ATOM      8  C   UNL     1      -2.750  -0.983  24.957  0.00  0.00    -0.027 C 
ATOM      9  C   UNL     1      -2.295   0.153  23.982  0.00  0.00    +0.028 C 
ATOM     10  C   UNL     1      -0.737   0.349  24.039  0.00  0.00    +0.012 C 
ATOM     11  C   UNL     1      -3.139   1.444  24.186  0.00  0.00    +0.122 C 
ATOM     12  C   UNL     1      -4.269  -1.226  24.793  0.00  0.00    +0.007 C 
ATOM     13  C   UNL     1      -4.660   1.175  24.125  0.00  0.00    +0.029 C 
ATOM     14  C   UNL     1      -2.020  -2.293  24.582  0.00  0.00    +0.009 C 
ATOM     15  C   UNL     1      -0.014  -0.993  23.733  0.00  0.00    +0.076 C 
ATOM     16  C   UNL     1      -5.101   0.027  25.032  0.00  0.00    +0.007 C 
ATOM     17  C   UNL     1      -0.503  -2.157  24.594  0.00  0.00    +0.023 C 
ATOM     18  C   UNL     1      -2.458  -0.644  26.442  0.00  0.00    +0.011 C 
ATOM     20  C   UNL     1      -0.217   1.434  23.080  0.00  0.00    +0.010 C 
ENDROOT
BRANCH  15   5
ATOM      3  O   UNL     1       1.873  -0.192  21.723  0.00  0.00    -0.270 OA
ATOM      5  N   UNL     1       1.421  -0.877  23.891  0.00  0.00    -0.308 N 
ATOM     23  C   UNL     1       2.249  -0.481  22.856  0.00  0.00    +0.244 C 
ATOM     35  H   UNL     1       1.814  -1.211  24.765  0.00  0.00    +0.149 HD
BRANCH  23  24
ATOM     24  C   UNL     1       3.700  -0.438  23.171  0.00  0.00    +0.037 A 
ATOM     28  C   UNL     1       4.320  -1.542  23.757  0.00  0.00    +0.016 A 
ATOM     29  C   UNL     1       4.443   0.708  22.883  0.00  0.00    +0.016 A 
ATOM     30  C   UNL     1       5.682  -1.500  24.055  0.00  0.00    +0.046 A 
ATOM     31  C   UNL     1       5.804   0.749  23.181  0.00  0.00    +0.046 A 
ATOM     32  C   UNL     1       6.424  -0.355  23.767  0.00  0.00    +0.120 A 
BRANCH  32   4
ATOM      4  O   UNL     1       7.754  -0.314  24.057  0.00  0.00    -0.495 OA
ATOM     34  C   UNL     1       8.656  -0.240  22.955  0.00  0.00    +0.277 C 
ENDBRANCH  32   4
ENDBRANCH  23  24
ENDBRANCH  15   5
BRANCH  11   1
ATOM      1  O   UNL     1      -2.846   2.376  23.145  0.00  0.00    -0.391 OA
ATOM     36  H   UNL     1      -2.085   2.913  23.425  0.00  0.00    +0.210 HD
ENDBRANCH  11   1
BRANCH  13  19
ATOM     19  C   UNL     1      -5.474   2.432  24.458  0.00  0.00    +0.078 C 
ATOM     21  C   UNL     1      -5.177   3.520  23.425  0.00  0.00    +0.017 C 
BRANCH  19  22
ATOM      2  O   UNL     1      -5.843   2.552  26.821  0.00  0.00    -0.275 OA
ATOM      6  N   UNL     1      -4.033   3.757  26.029  0.00  0.00    -0.303 N 
ATOM     22  C   UNL     1      -5.135   2.909  25.872  0.00  0.00    +0.219 C 
ATOM     26  C   UNL     1      -3.696   4.248  27.361  0.00  0.00    +0.132 C 
BRANCH   6  25
ATOM     25  C   UNL     1      -3.127   4.196  24.970  0.00  0.00    +0.122 C 
BRANCH  25  27
ATOM     27  C   UNL     1      -1.779   4.658  25.510  0.00  0.00    +0.137 C 
BRANCH  27  33
ATOM      7  N   UNL     1      -0.309   2.640  26.338  0.00  0.00    -0.197 NA
ATOM     33  C   UNL     1      -0.957   3.530  25.972  0.00  0.00    +0.064 C 
ENDBRANCH  27  33
ENDBRANCH  25  27
ENDBRANCH   6  25
ENDBRANCH  19  22
ENDBRANCH  13  19
TORSDOF 9
ENDMDL
MODEL 2
REMARK VINA RESULT:       3.3      1.000      1.268
REMARK  Name = 45361384
REMARK  14 active torsions:
REMARK  status: ('A' for Active; 'I' for Inactive)
REMARK    1  A    between atoms: O_1  and  C_11
REMARK    2  A    between atoms: O_4  and  C_32
REMARK    3  A    between atoms: O_4  and  C_34
REMARK    4  A    between atoms: N_5  and  C_15
REMARK    5  A    between atoms: N_6  and  C_25
REMARK    6  A    between atoms: N_6  and  C_26
REMARK    7  A    between atoms: C_8  and  C_18
REMARK    8  A    between atoms: C_10  and  C_20
REMARK    9  A    between atoms: C_13  and  C_19
REMARK   10  A    between atoms: C_19  and  C_21
REMARK   11  A    between atoms: C_19  and  C_22
REMARK   12  A    between atoms: C_23  and  C_24
REMARK   13  A    between atoms: C_25  and  C_27
REMARK   14  A    between atoms: C_27  and  C_33
REMARK                            x       y       z     vdW  Elec       q    Type
REMARK                         _______ _______ _______ _____ _____    ______ ____
ROOT
ATOM      8  C   UNL     1      -2.463  -1.238  25.127  0.00  0.00    -0.027 C 
ATOM      9  C   UNL     1      -2.055  -0.024  24.228  0.00  0.00    +0.028 C 
ATOM     10  C   UNL     1      -0.500   0.202  24.266  0.00  0.00    +0.012 C 
ATOM     11  C   UNL     1      -2.920   1.229  24.544  0.00  0.00    +0.122 C 
ATOM     12  C   UNL     1      -3.979  -1.503  24.979  0.00  0.00    +0.007 C 
ATOM     13  C   UNL     1      -4.436   0.932  24.497  0.00  0.00    +0.029 C 
ATOM     14  C   UNL     1      -1.715  -2.500  24.641  0.00  0.00    +0.009 C 
ATOM     15  C   UNL     1       0.244  -1.098  23.847  0.00  0.00    +0.076 C 
ATOM     16  C   UNL     1      -4.832  -0.289  25.326  0.00  0.00    +0.007 C 
ATOM     17  C   UNL     1      -0.201  -2.331  24.631  0.00  0.00    +0.023 C 
ATOM     18  C   UNL     1      -2.144  -1.001  26.626  0.00  0.00    +0.011 C 
ATOM     20  C   UNL     1      -0.025   1.365  23.378  0.00  0.00    +0.010 C 
ENDROOT
BRANCH  15   5
ATOM      3  O   UNL     1       2.065  -0.101  21.864  0.00  0.00    -0.270 OA
ATOM      5  N   UNL     1       1.679  -0.961  23.982  0.00  0.00    -0.308 N 
ATOM     23  C   UNL     1       2.474  -0.468  22.963  0.00  0.00    +0.244 C 
ATOM     35  H   UNL     1       2.099  -1.352  24.819  0.00  0.00    +0.149 HD
BRANCH  23  24
ATOM     24  C   UNL     1       3.931  -0.415  23.249  0.00  0.00    +0.037 A 
ATOM     28  C   UNL     1       4.577  -1.530  23.783  0.00  0.00    +0.016 A 
ATOM     29  C   UNL     1       4.652   0.750  22.985  0.00  0.00    +0.016 A 
ATOM     30  C   UNL     1       5.945  -1.480  24.054  0.00  0.00    +0.046 A 
ATOM     31  C   UNL     1       6.019   0.799  23.255  0.00  0.00    +0.046 A 
ATOM     32  C   UNL     1       6.666  -0.315  23.790  0.00  0.00    +0.120 A 
BRANCH  32   4
ATOM      4  O   UNL     1       8.001  -0.266  24.053  0.00  0.00    -0.495 OA
ATOM     34  C   UNL     1       8.881  -0.211  22.932  0.00  0.00    +0.277 C 
ENDBRANCH  32   4
ENDBRANCH  23  24
ENDBRANCH  15   5
BRANCH  11   1
ATOM      1  O   UNL     1      -2.671   2.240  23.568  0.00  0.00    -0.391 OA
ATOM     36  H   UNL     1      -2.530   3.083  24.034  0.00  0.00    +0.210 HD
ENDBRANCH  11   1
BRANCH  13  19
ATOM     19  C   UNL     1      -5.268   2.142  24.938  0.00  0.00    +0.078 C 
ATOM     21  C   UNL     1      -6.752   1.858  24.693  0.00  0.00    +0.017 C 
BRANCH  19  22
ATOM      2  O   UNL     1      -5.066   3.490  22.969  0.00  0.00    -0.275 OA
ATOM      6  N   UNL     1      -4.106   4.366  24.884  0.00  0.00    -0.303 N 
ATOM     22  C   UNL     1      -4.814   3.389  24.176  0.00  0.00    +0.219 C 
ATOM     26  C   UNL     1      -3.640   5.556  24.182  0.00  0.00    +0.132 C 
BRANCH   6  25
ATOM     25  C   UNL     1      -3.800   4.341  26.313  0.00  0.00    +0.122 C 
BRANCH  25  27
ATOM     27  C   UNL     1      -2.428   3.744  26.605  0.00  0.00    +0.137 C 
BRANCH  27  33
ATOM      7  N   UNL     1      -0.616   4.555  24.878  0.00  0.00    -0.197 NA
ATOM     33  C   UNL     1      -1.416   4.198  25.640  0.00  0.00    +0.064 C 
ENDBRANCH  27  33
ENDBRANCH  25  27
ENDBRANCH   6  25
ENDBRANCH  19  22
ENDBRANCH  13  19
TORSDOF 9
ENDMDL
MODEL 3
REMARK VINA RESULT:       5.4      1.400      2.080
REMARK  Name = 45361384
REMARK  14 active torsions:
REMARK  status: ('A' for Active; 'I' for Inactive)
REMARK    1  A    between atoms: O_1  and  C_11
REMARK    2  A    between atoms: O_4  and  C_32
REMARK    3  A    between atoms: O_4  and  C_34
REMARK    4  A    between atoms: N_5  and  C_15
REMARK    5  A    between atoms: N_6  and  C_25
REMARK    6  A    between atoms: N_6  and  C_26
REMARK    7  A    between atoms: C_8  and  C_18
REMARK    8  A    between atoms: C_10  and  C_20
REMARK    9  A    between atoms: C_13  and  C_19
REMARK   10  A    between atoms: C_19  and  C_21
REMARK   11  A    between atoms: C_19  and  C_22
REMARK   12  A    between atoms: C_23  and  C_24
REMARK   13  A    between atoms: C_25  and  C_27
REMARK   14  A    between atoms: C_27  and  C_33
REMARK                            x       y       z     vdW  Elec       q    Type
REMARK                         _______ _______ _______ _____ _____    ______ ____
ROOT
ATOM      8  C   UNL     1      -2.557  -1.001  24.888  0.00  0.00    -0.027 C 
ATOM      9  C   UNL     1      -2.076   0.444  24.533  0.00  0.00    +0.028 C 
ATOM     10  C   UNL     1      -0.512   0.558  24.648  0.00  0.00    +0.012 C 
ATOM     11  C   UNL     1      -2.882   1.517  25.320  0.00  0.00    +0.122 C 
ATOM     12  C   UNL     1      -4.082  -1.109  24.656  0.00  0.00    +0.007 C 
ATOM     13  C   UNL     1      -4.411   1.340  25.168  0.00  0.00    +0.029 C 
ATOM     14  C   UNL     1      -1.865  -2.010  23.943  0.00  0.00    +0.009 C 
ATOM     15  C   UNL     1       0.172  -0.511  23.750  0.00  0.00    +0.076 C 
ATOM     16  C   UNL     1      -4.879  -0.086  25.456  0.00  0.00    +0.007 C 
ATOM     17  C   UNL     1      -0.345  -1.928  23.991  0.00  0.00    +0.023 C 
ATOM     18  C   UNL     1      -2.249  -1.386  26.358  0.00  0.00    +0.011 C 
ATOM     20  C   UNL     1       0.033   1.950  24.285  0.00  0.00    +0.010 C 
ENDROOT
BRANCH  15   5
ATOM      3  O   UNL     1       2.139  -0.016  21.718  0.00  0.00    -0.270 OA
ATOM      5  N   UNL     1       1.611  -0.512  23.920  0.00  0.00    -0.308 N 
ATOM     23  C   UNL     1       2.479  -0.261  22.873  0.00  0.00    +0.244 C 
ATOM     35  H   UNL     1       1.965  -0.820  24.819  0.00  0.00    +0.149 HD
BRANCH  23  24
ATOM     24  C   UNL     1       3.926  -0.325  23.205  0.00  0.00    +0.037 A 
ATOM     28  C   UNL     1       4.736   0.794  23.011  0.00  0.00    +0.016 A 
ATOM     29  C   UNL     1       4.475  -1.505  23.707  0.00  0.00    +0.016 A 
ATOM     30  C   UNL     1       6.095   0.733  23.320  0.00  0.00    +0.046 A 
ATOM     31  C   UNL     1       5.833  -1.566  24.016  0.00  0.00    +0.046 A 
ATOM     32  C   UNL     1       6.643  -0.447  23.823  0.00  0.00    +0.120 A 
BRANCH  32   4
ATOM      4  O   UNL     1       7.969  -0.507  24.125  0.00  0.00    -0.495 OA
ATOM     34  C   UNL     1       8.887  -0.152  23.092  0.00  0.00    +0.277 C 
ENDBRANCH  32   4
ENDBRANCH  23  24
ENDBRANCH  15   5
BRANCH  11   1
ATOM      1  O   UNL     1      -2.569   2.815  24.816  0.00  0.00    -0.391 OA
ATOM     36  H   UNL     1      -3.374   3.359  24.860  0.00  0.00    +0.210 HD
ENDBRANCH  11   1
BRANCH  13  19
ATOM     19  C   UNL     1      -5.189   2.322  26.053  0.00  0.00    +0.078 C 
ATOM     21  C   UNL     1      -6.690   2.091  25.873  0.00  0.00    +0.017 C 
BRANCH  19  22
ATOM      2  O   UNL     1      -4.661   4.595  26.592  0.00  0.00    -0.275 OA
ATOM      6  N   UNL     1      -4.655   4.075  24.337  0.00  0.00    -0.303 N 
ATOM     22  C   UNL     1      -4.806   3.760  25.692  0.00  0.00    +0.219 C 
ATOM     26  C   UNL     1      -4.312   5.441  23.958  0.00  0.00    +0.132 C 
BRANCH   6  25
ATOM     25  C   UNL     1      -4.773   3.142  23.218  0.00  0.00    +0.122 C 
BRANCH  25  27
ATOM     27  C   UNL     1      -3.846   3.498  22.062  0.00  0.00    +0.137 C 
BRANCH  27  33
ATOM      7  N   UNL     1      -2.219   1.519  21.464  0.00  0.00    -0.197 NA
ATOM     33  C   UNL     1      -2.936   2.392  21.729  0.00  0.00    +0.064 C 
ENDBRANCH  27  33
ENDBRANCH  25  27
ENDBRANCH   6  25
ENDBRANCH  19  22
ENDBRANCH  13  19
TORSDOF 9
ENDMDL
