MODEL 1
REMARK VINA RESULT:      -3.3      0.000      0.000
REMARK  Name = 38027160
REMARK  12 active torsions:
REMARK  status: ('A' for Active; 'I' for Inactive)
REMARK    1  A    between atoms: N_3  and  C_13
REMARK    2  A    between atoms: N_4  and  C_20
REMARK    3  A    between atoms: N_4  and  C_21
REMARK    4  A    between atoms: C_6  and  C_10
REMARK    5  A    between atoms: C_7  and  C_13
REMARK    6  A    between atoms: C_9  and  C_14
REMARK    7  A    between atoms: C_10  and  C_15
REMARK    8  A    between atoms: C_10  and  C_16
REMARK    9  A    between atoms: C_11  and  C_17
REMARK   10  A    between atoms: C_14  and  C_18
REMARK   11  A    between atoms: C_19  and  C_22
REMARK   12  A    between atoms: C_20  and  C_23
REMARK                            x       y       z     vdW  Elec       q    Type
REMARK                         _______ _______ _______ _____ _____    ______ ____
ROOT
ATOM      6  C   UNL     1      -1.782   0.623  24.879  0.00  0.00    +0.000 C 
ATOM      7  C   UNL     1      -0.908  -0.627  24.610  0.00  0.00    +0.032 C 
ATOM      8  C   UNL     1      -2.891   0.295  25.892  0.00  0.00    +0.012 C 
ATOM      9  C   UNL     1      -3.806  -0.844  25.402  0.00  0.00    +0.023 C 
ATOM     11  C   UNL     1      -3.009  -2.016  24.867  0.00  0.00    -0.073 C 
ATOM     12  C   UNL     1      -1.711  -1.904  24.531  0.00  0.00    -0.022 C 
ATOM     17  C   UNL     1      -3.726  -3.334  24.770  0.00  0.00    +0.039 C 
ENDROOT
BRANCH   6  10
ATOM     10  C   UNL     1      -0.947   1.802  25.391  0.00  0.00    -0.013 C 
ATOM     15  C   UNL     1      -0.149   1.393  26.624  0.00  0.00    +0.007 C 
ATOM     16  C   UNL     1      -0.022   2.314  24.292  0.00  0.00    +0.007 C 
ENDBRANCH   6  10
BRANCH   7  13
ATOM     13  C   UNL     1      -0.086  -0.460  23.327  0.00  0.00    +0.112 C 
BRANCH  13   3
ATOM      2  O   UNL     1       2.056  -0.151  21.441  0.00  0.00    -0.270 OA
ATOM      3  N   UNL     1       1.312  -0.423  23.622  0.00  0.00    -0.311 N 
ATOM     19  C   UNL     1       2.290  -0.270  22.641  0.00  0.00    +0.244 C 
ATOM     33  H   UNL     1       1.580  -0.424  24.601  0.00  0.00    +0.149 HD
BRANCH  19  22
ATOM      5  N   UNL     1       6.355  -0.291  23.986  0.00  0.00    -0.263 NA
ATOM     22  C   UNL     1       3.701  -0.277  23.108  0.00  0.00    +0.040 A 
ATOM     24  C   UNL     1       4.498   0.851  22.941  0.00  0.00    +0.033 A 
ATOM     25  C   UNL     1       4.230  -1.411  23.713  0.00  0.00    +0.033 A 
ATOM     28  C   UNL     1       5.806   0.792  23.393  0.00  0.00    +0.111 A 
ATOM     29  C   UNL     1       5.550  -1.368  24.131  0.00  0.00    +0.111 A 
ENDBRANCH  19  22
ENDBRANCH  13   3
ENDBRANCH   7  13
BRANCH   9  14
ATOM     14  C   UNL     1      -4.808  -0.339  24.357  0.00  0.00    +0.103 C 
BRANCH  14  18
ATOM      1  O   UNL     1      -4.067   1.678  23.295  0.00  0.00    -0.276 OA
ATOM      4  N   UNL     1      -5.511   1.912  25.095  0.00  0.00    -0.300 N 
ATOM     18  C   UNL     1      -4.750   1.168  24.187  0.00  0.00    +0.216 C 
ATOM     21  C   UNL     1      -6.311   1.287  26.141  0.00  0.00    +0.132 C 
BRANCH   4  20
ATOM     20  C   UNL     1      -5.561   3.371  25.064  0.00  0.00    +0.142 C 
BRANCH  20  23
ATOM     23  C   UNL     1      -4.193   3.983  25.156  0.00  0.00    -0.030 A 
ATOM     26  C   UNL     1      -3.498   3.957  26.366  0.00  0.00    +0.005 A 
ATOM     27  C   UNL     1      -3.617   4.577  24.033  0.00  0.00    +0.005 A 
ATOM     30  C   UNL     1      -2.226   4.525  26.451  0.00  0.00    +0.000 A 
ATOM     31  C   UNL     1      -2.346   5.145  24.119  0.00  0.00    +0.000 A 
ATOM     32  C   UNL     1      -1.651   5.119  25.328  0.00  0.00    +0.000 A 
ENDBRANCH  20  23
ENDBRANCH   4  20
ENDBRANCH  14  18
ENDBRANCH   9  14
TORSDOF 8
ENDMDL
MODEL 2
REMARK VINA RESULT:       0.2      1.811      7.285
REMARK  Name = 38027160
REMARK  12 active torsions:
REMARK  status: ('A' for Active; 'I' for Inactive)
REMARK    1  A    between atoms: N_3  and  C_13
REMARK    2  A    between atoms: N_4  and  C_20
REMARK    3  A    between atoms: N_4  and  C_21
REMARK    4  A    between atoms: C_6  and  C_10
REMARK    5  A    between atoms: C_7  and  C_13
REMARK    6  A    between atoms: C_9  and  C_14
REMARK    7  A    between atoms: C_10  and  C_15
REMARK    8  A    between atoms: C_10  and  C_16
REMARK    9  A    between atoms: C_11  and  C_17
REMARK   10  A    between atoms: C_14  and  C_18
REMARK   11  A    between atoms: C_19  and  C_22
REMARK   12  A    between atoms: C_20  and  C_23
REMARK                            x       y       z     vdW  Elec       q    Type
REMARK                         _______ _______ _______ _____ _____    ______ ____
ROOT
ATOM      6  C   UNL     1      -2.753   3.596  25.733  0.00  0.00    +0.000 C 
ATOM      7  C   UNL     1      -3.980   3.306  24.834  0.00  0.00    +0.032 C 
ATOM      8  C   UNL     1      -1.569   4.086  24.885  0.00  0.00    +0.012 C 
ATOM      9  C   UNL     1      -1.157   3.057  23.815  0.00  0.00    +0.023 C 
ATOM     11  C   UNL     1      -2.355   2.519  23.059  0.00  0.00    -0.073 C 
ATOM     12  C   UNL     1      -3.611   2.651  23.524  0.00  0.00    -0.022 C 
ATOM     17  C   UNL     1      -2.081   1.864  21.734  0.00  0.00    +0.039 C 
ENDROOT
BRANCH   6  10
ATOM     10  C   UNL     1      -3.075   4.631  26.818  0.00  0.00    -0.013 C 
ATOM     15  C   UNL     1      -4.327   5.419  26.447  0.00  0.00    +0.007 C 
ATOM     16  C   UNL     1      -3.247   3.947  28.170  0.00  0.00    +0.007 C 
ENDBRANCH   6  10
BRANCH   7  13
ATOM     13  C   UNL     1      -5.009   2.437  25.567  0.00  0.00    +0.112 C 
BRANCH  13   3
ATOM      2  O   UNL     1      -2.755   0.715  26.006  0.00  0.00    -0.270 OA
ATOM      3  N   UNL     1      -4.891   1.069  25.172  0.00  0.00    -0.311 N 
ATOM     19  C   UNL     1      -3.755   0.302  25.425  0.00  0.00    +0.244 C 
ATOM     33  H   UNL     1      -5.712   0.630  24.767  0.00  0.00    +0.149 HD
BRANCH  19  22
ATOM      5  N   UNL     1      -3.820  -3.731  23.989  0.00  0.00    -0.263 NA
ATOM     22  C   UNL     1      -3.778  -1.098  24.926  0.00  0.00    +0.040 A 
ATOM     24  C   UNL     1      -4.442  -1.408  23.744  0.00  0.00    +0.033 A 
ATOM     25  C   UNL     1      -3.135  -2.103  25.640  0.00  0.00    +0.033 A 
ATOM     28  C   UNL     1      -4.433  -2.728  23.323  0.00  0.00    +0.111 A 
ATOM     29  C   UNL     1      -3.185  -3.392  25.134  0.00  0.00    +0.111 A 
ENDBRANCH  19  22
ENDBRANCH  13   3
ENDBRANCH   7  13
BRANCH   9  14
ATOM     14  C   UNL     1      -0.339   1.916  24.430  0.00  0.00    +0.103 C 
BRANCH  14  18
ATOM      1  O   UNL     1       1.704   2.303  23.239  0.00  0.00    -0.276 OA
ATOM      4  N   UNL     1       0.811   0.166  23.120  0.00  0.00    -0.300 N 
ATOM     18  C   UNL     1       0.821   1.497  23.546  0.00  0.00    +0.216 C 
ATOM     21  C   UNL     1      -0.244  -0.768  23.497  0.00  0.00    +0.132 C 
BRANCH   4  20
ATOM     20  C   UNL     1       1.856  -0.391  22.264  0.00  0.00    +0.142 C 
BRANCH  20  23
ATOM     23  C   UNL     1       3.204  -0.345  22.922  0.00  0.00    -0.030 A 
ATOM     26  C   UNL     1       4.003   0.793  22.798  0.00  0.00    +0.005 A 
ATOM     27  C   UNL     1       3.660  -1.439  23.657  0.00  0.00    +0.005 A 
ATOM     30  C   UNL     1       5.256   0.836  23.409  0.00  0.00    +0.000 A 
ATOM     31  C   UNL     1       4.913  -1.396  24.268  0.00  0.00    +0.000 A 
ATOM     32  C   UNL     1       5.711  -0.258  24.144  0.00  0.00    +0.000 A 
ENDBRANCH  20  23
ENDBRANCH   4  20
ENDBRANCH  14  18
ENDBRANCH   9  14
TORSDOF 8
ENDMDL
MODEL 3
REMARK VINA RESULT:       0.4      1.644      4.351
REMARK  Name = 38027160
REMARK  12 active torsions:
REMARK  status: ('A' for Active; 'I' for Inactive)
REMARK    1  A    between atoms: N_3  and  C_13
REMARK    2  A    between atoms: N_4  and  C_20
REMARK    3  A    between atoms: N_4  and  C_21
REMARK    4  A    between atoms: C_6  and  C_10
REMARK    5  A    between atoms: C_7  and  C_13
REMARK    6  A    between atoms: C_9  and  C_14
REMARK    7  A    between atoms: C_10  and  C_15
REMARK    8  A    between atoms: C_10  and  C_16
REMARK    9  A    between atoms: C_11  and  C_17
REMARK   10  A    between atoms: C_14  and  C_18
REMARK   11  A    between atoms: C_19  and  C_22
REMARK   12  A    between atoms: C_20  and  C_23
REMARK                            x       y       z     vdW  Elec       q    Type
REMARK                         _______ _______ _______ _____ _____    ______ ____
ROOT
ATOM      6  C   UNL     1      -2.432   2.175  23.328  0.00  0.00    +0.000 C 
ATOM      7  C   UNL     1      -1.073   2.573  23.954  0.00  0.00    +0.032 C 
ATOM      8  C   UNL     1      -3.173   3.420  22.815  0.00  0.00    +0.012 C 
ATOM      9  C   UNL     1      -3.433   4.444  23.936  0.00  0.00    +0.023 C 
ATOM     11  C   UNL     1      -2.195   4.690  24.773  0.00  0.00    -0.073 C 
ATOM     12  C   UNL     1      -1.144   3.850  24.759  0.00  0.00    -0.022 C 
ATOM     17  C   UNL     1      -2.173   5.949  25.596  0.00  0.00    +0.039 C 
ENDROOT
BRANCH   6  10
ATOM     10  C   UNL     1      -2.259   1.168  22.186  0.00  0.00    -0.013 C 
ATOM     15  C   UNL     1      -3.292   0.052  22.299  0.00  0.00    +0.007 C 
ATOM     16  C   UNL     1      -2.367   1.871  20.836  0.00  0.00    +0.007 C 
ENDBRANCH   6  10
BRANCH   7  13
ATOM     13  C   UNL     1      -0.517   1.447  24.833  0.00  0.00    +0.112 C 
BRANCH  13   3
ATOM      2  O   UNL     1       0.495  -0.373  22.856  0.00  0.00    -0.270 OA
ATOM      3  N   UNL     1       0.856   1.196  24.527  0.00  0.00    -0.311 N 
ATOM     19  C   UNL     1       1.263   0.291  23.548  0.00  0.00    +0.244 C 
ATOM     33  H   UNL     1       1.548   1.774  24.994  0.00  0.00    +0.149 HD
BRANCH  19  22
ATOM      5  N   UNL     1       5.486  -0.188  23.033  0.00  0.00    -0.263 NA
ATOM     22  C   UNL     1       2.729   0.125  23.369  0.00  0.00    +0.040 A 
ATOM     24  C   UNL     1       3.484   1.149  22.808  0.00  0.00    +0.033 A 
ATOM     25  C   UNL     1       3.350  -1.055  23.762  0.00  0.00    +0.033 A 
ATOM     28  C   UNL     1       4.847   0.944  22.663  0.00  0.00    +0.111 A 
ATOM     29  C   UNL     1       4.719  -1.161  23.575  0.00  0.00    +0.111 A 
ENDBRANCH  19  22
ENDBRANCH  13   3
ENDBRANCH   7  13
BRANCH   9  14
ATOM     14  C   UNL     1      -4.614   4.014  24.815  0.00  0.00    +0.103 C 
BRANCH  14  18
ATOM      1  O   UNL     1      -3.404   3.039  26.641  0.00  0.00    -0.276 OA
ATOM      4  N   UNL     1      -4.924   1.673  25.542  0.00  0.00    -0.300 N 
ATOM     18  C   UNL     1      -4.249   2.879  25.754  0.00  0.00    +0.216 C 
ATOM     21  C   UNL     1      -5.918   1.509  24.488  0.00  0.00    +0.132 C 
BRANCH   4  20
ATOM     20  C   UNL     1      -4.685   0.487  26.361  0.00  0.00    +0.142 C 
BRANCH  20  23
ATOM     23  C   UNL     1      -3.852  -0.533  25.643  0.00  0.00    -0.030 A 
ATOM     26  C   UNL     1      -2.478  -0.603  25.879  0.00  0.00    +0.005 A 
ATOM     27  C   UNL     1      -4.449  -1.411  24.739  0.00  0.00    +0.005 A 
ATOM     30  C   UNL     1      -1.703  -1.552  25.211  0.00  0.00    +0.000 A 
ATOM     31  C   UNL     1      -3.674  -2.360  24.071  0.00  0.00    +0.000 A 
ATOM     32  C   UNL     1      -2.301  -2.430  24.308  0.00  0.00    +0.000 A 
ENDBRANCH  20  23
ENDBRANCH   4  20
ENDBRANCH  14  18
ENDBRANCH   9  14
TORSDOF 8
ENDMDL
