MODEL 1
REMARK VINA RESULT:      -7.7      0.000      0.000
REMARK  Name = 75536536
REMARK  6 active torsions:
REMARK  status: ('A' for Active; 'I' for Inactive)
REMARK    1  A    between atoms: O_4  and  C_10
REMARK    2  A    between atoms: N_6  and  C_8
REMARK    3  A    between atoms: N_6  and  C_9
REMARK    4  A    between atoms: N_7  and  C_21
REMARK    5  A    between atoms: C_11  and  C_21
REMARK    6  A    between atoms: C_12  and  C_22
REMARK                            x       y       z     vdW  Elec       q    Type
REMARK                         _______ _______ _______ _____ _____    ______ ____
ROOT
ATOM      3  O   UNL     1      -0.055   3.772  25.756  0.00  0.00    -0.371 OA
ATOM      8  C   UNL     1      -0.291   1.458  25.275  0.00  0.00    +0.111 C 
ATOM     10  C   UNL     1      -1.431   2.217  24.621  0.00  0.00    +0.164 C 
ATOM     11  C   UNL     1      -0.852   3.626  24.568  0.00  0.00    +0.165 C 
ATOM     15  C   UNL     1       0.190   2.466  26.306  0.00  0.00    +0.181 C 
ENDROOT
BRANCH  10   4
ATOM      4  O   UNL     1      -1.744   1.728  23.332  0.00  0.00    -0.388 OA
ATOM     25  H   UNL     1      -2.667   1.957  23.133  0.00  0.00    +0.210 HD
ENDBRANCH  10   4
BRANCH   8   6
ATOM      6  N   UNL     1      -0.696   0.193  25.866  0.00  0.00    -0.306 NA
ATOM     23  H   UNL     1      -1.130   0.351  26.775  0.00  0.00    +0.123 HD
BRANCH   6   9
ATOM      1  F   UNL     1      -3.582  -3.368  25.673  0.00  0.00    -0.206 F 
ATOM      2  F   UNL     1      -4.395  -3.328  23.657  0.00  0.00    -0.206 F 
ATOM      9  C   UNL     1      -1.623  -0.517  24.987  0.00  0.00    +0.054 C 
ATOM     13  C   UNL     1      -1.148  -1.962  24.788  0.00  0.00    +0.024 C 
ATOM     14  C   UNL     1      -3.037  -0.474  25.579  0.00  0.00    +0.024 C 
ATOM     18  C   UNL     1      -2.133  -2.757  23.931  0.00  0.00    +0.077 C 
ATOM     19  C   UNL     1      -4.022  -1.267  24.722  0.00  0.00    +0.077 C 
ATOM     20  C   UNL     1      -3.541  -2.691  24.496  0.00  0.00    +0.249 C 
ENDBRANCH   6   9
ENDBRANCH   8   6
BRANCH  11  21
ATOM     21  C   UNL     1      -1.914   4.709  24.526  0.00  0.00    +0.138 C 
BRANCH  21   7
ATOM      5  O   UNL     1      -3.633   4.111  26.794  0.00  0.00    -0.276 OA
ATOM      7  N   UNL     1      -3.233   4.146  24.498  0.00  0.00    -0.313 N 
ATOM     22  C   UNL     1      -3.982   3.895  25.639  0.00  0.00    +0.216 C 
ATOM     24  H   UNL     1      -3.639   3.937  23.591  0.00  0.00    +0.149 HD
BRANCH  22  12
ATOM     12  C   UNL     1      -5.329   3.309  25.375  0.00  0.00    +0.075 C 
ATOM     16  C   UNL     1      -5.708   2.048  26.078  0.00  0.00    +0.013 C 
ATOM     17  C   UNL     1      -5.412   2.031  24.609  0.00  0.00    +0.013 C 
ENDBRANCH  22  12
ENDBRANCH  21   7
ENDBRANCH  11  21
TORSDOF 6
ENDMDL
MODEL 2
REMARK VINA RESULT:      -7.0      2.377      4.755
REMARK  Name = 75536536
REMARK  6 active torsions:
REMARK  status: ('A' for Active; 'I' for Inactive)
REMARK    1  A    between atoms: O_4  and  C_10
REMARK    2  A    between atoms: N_6  and  C_8
REMARK    3  A    between atoms: N_6  and  C_9
REMARK    4  A    between atoms: N_7  and  C_21
REMARK    5  A    between atoms: C_11  and  C_21
REMARK    6  A    between atoms: C_12  and  C_22
REMARK                            x       y       z     vdW  Elec       q    Type
REMARK                         _______ _______ _______ _____ _____    ______ ____
ROOT
ATOM      3  O   UNL     1      -0.798   1.130  22.881  0.00  0.00    -0.371 OA
ATOM      8  C   UNL     1      -0.948   2.907  24.449  0.00  0.00    +0.111 C 
ATOM     10  C   UNL     1      -0.450   1.661  25.159  0.00  0.00    +0.164 C 
ATOM     11  C   UNL     1       0.077   0.846  23.985  0.00  0.00    +0.165 C 
ATOM     15  C   UNL     1      -1.556   2.313  23.189  0.00  0.00    +0.181 C 
ENDROOT
BRANCH  10   4
ATOM      4  O   UNL     1       0.565   1.940  26.104  0.00  0.00    -0.388 OA
ATOM     25  H   UNL     1       1.334   1.382  25.901  0.00  0.00    +0.210 HD
ENDBRANCH  10   4
BRANCH   8   6
ATOM      6  N   UNL     1      -1.902   3.680  25.228  0.00  0.00    -0.306 NA
ATOM     23  H   UNL     1      -1.732   4.678  25.104  0.00  0.00    +0.123 HD
BRANCH   6   9
ATOM      1  F   UNL     1      -5.841   1.911  26.777  0.00  0.00    -0.206 F 
ATOM      2  F   UNL     1      -7.204   1.998  25.085  0.00  0.00    -0.206 F 
ATOM      9  C   UNL     1      -3.273   3.355  24.839  0.00  0.00    +0.054 C 
ATOM     13  C   UNL     1      -3.509   1.846  24.977  0.00  0.00    +0.024 C 
ATOM     14  C   UNL     1      -4.260   4.153  25.700  0.00  0.00    +0.024 C 
ATOM     18  C   UNL     1      -4.955   1.478  24.647  0.00  0.00    +0.077 C 
ATOM     19  C   UNL     1      -5.706   3.786  25.371  0.00  0.00    +0.077 C 
ATOM     20  C   UNL     1      -5.938   2.288  25.476  0.00  0.00    +0.249 C 
ENDBRANCH   6   9
ENDBRANCH   8   6
BRANCH  11  21
ATOM     21  C   UNL     1       0.097  -0.648  24.253  0.00  0.00    +0.138 C 
BRANCH  21   7
ATOM      5  O   UNL     1      -1.612  -0.960  26.585  0.00  0.00    -0.276 OA
ATOM      7  N   UNL     1      -1.231  -1.188  24.297  0.00  0.00    -0.313 N 
ATOM     22  C   UNL     1      -1.974  -1.298  25.463  0.00  0.00    +0.216 C 
ATOM     24  H   UNL     1      -1.647  -1.490  23.421  0.00  0.00    +0.149 HD
BRANCH  22  12
ATOM     12  C   UNL     1      -3.332  -1.887  25.275  0.00  0.00    +0.075 C 
ATOM     16  C   UNL     1      -3.474  -3.087  24.398  0.00  0.00    +0.013 C 
ATOM     17  C   UNL     1      -3.988  -1.755  23.942  0.00  0.00    +0.013 C 
ENDBRANCH  22  12
ENDBRANCH  21   7
ENDBRANCH  11  21
TORSDOF 6
ENDMDL
MODEL 3
REMARK VINA RESULT:      -6.4      1.677      3.878
REMARK  Name = 75536536
REMARK  6 active torsions:
REMARK  status: ('A' for Active; 'I' for Inactive)
REMARK    1  A    between atoms: O_4  and  C_10
REMARK    2  A    between atoms: N_6  and  C_8
REMARK    3  A    between atoms: N_6  and  C_9
REMARK    4  A    between atoms: N_7  and  C_21
REMARK    5  A    between atoms: C_11  and  C_21
REMARK    6  A    between atoms: C_12  and  C_22
REMARK                            x       y       z     vdW  Elec       q    Type
REMARK                         _______ _______ _______ _____ _____    ______ ____
ROOT
ATOM      3  O   UNL     1      -3.850   3.632  23.977  0.00  0.00    -0.371 OA
ATOM      8  C   UNL     1      -5.445   1.956  24.516  0.00  0.00    +0.111 C 
ATOM     10  C   UNL     1      -4.977   2.625  25.796  0.00  0.00    +0.164 C 
ATOM     11  C   UNL     1      -4.427   3.939  25.256  0.00  0.00    +0.165 C 
ATOM     15  C   UNL     1      -4.338   2.348  23.550  0.00  0.00    +0.181 C 
ENDROOT
BRANCH  10   4
ATOM      4  O   UNL     1      -6.029   2.833  26.719  0.00  0.00    -0.388 OA
ATOM     25  H   UNL     1      -6.741   3.316  26.267  0.00  0.00    +0.210 HD
ENDBRANCH  10   4
BRANCH   8   6
ATOM      6  N   UNL     1      -5.610   0.517  24.635  0.00  0.00    -0.306 NA
ATOM     23  H   UNL     1      -6.270   0.178  23.937  0.00  0.00    +0.123 HD
BRANCH   6   9
ATOM      1  F   UNL     1      -3.275  -3.238  25.858  0.00  0.00    -0.206 F 
ATOM      2  F   UNL     1      -1.338  -3.039  24.892  0.00  0.00    -0.206 F 
ATOM      9  C   UNL     1      -4.326  -0.166  24.483  0.00  0.00    +0.054 C 
ATOM     13  C   UNL     1      -3.650  -0.315  25.852  0.00  0.00    +0.024 C 
ATOM     14  C   UNL     1      -4.540  -1.531  23.817  0.00  0.00    +0.024 C 
ATOM     18  C   UNL     1      -2.338  -1.090  25.740  0.00  0.00    +0.077 C 
ATOM     19  C   UNL     1      -3.229  -2.305  23.705  0.00  0.00    +0.077 C 
ATOM     20  C   UNL     1      -2.539  -2.430  25.053  0.00  0.00    +0.249 C 
ENDBRANCH   6   9
ENDBRANCH   8   6
BRANCH  11  21
ATOM     21  C   UNL     1      -3.378   4.565  26.157  0.00  0.00    +0.138 C 
BRANCH  21   7
ATOM      5  O   UNL     1      -0.944   5.251  24.721  0.00  0.00    -0.276 OA
ATOM      7  N   UNL     1      -2.148   3.826  26.117  0.00  0.00    -0.313 N 
ATOM     22  C   UNL     1      -1.033   4.234  25.400  0.00  0.00    +0.216 C 
ATOM     24  H   UNL     1      -2.096   2.967  26.657  0.00  0.00    +0.149 HD
BRANCH  22  12
ATOM     12  C   UNL     1       0.137   3.313  25.503  0.00  0.00    +0.075 C 
ATOM     16  C   UNL     1      -0.050   1.879  25.133  0.00  0.00    +0.013 C 
ATOM     17  C   UNL     1       0.130   2.269  26.569  0.00  0.00    +0.013 C 
ENDBRANCH  22  12
ENDBRANCH  21   7
ENDBRANCH  11  21
TORSDOF 6
ENDMDL
MODEL 4
REMARK VINA RESULT:      -5.9      4.025      6.631
REMARK  Name = 75536536
REMARK  6 active torsions:
REMARK  status: ('A' for Active; 'I' for Inactive)
REMARK    1  A    between atoms: O_4  and  C_10
REMARK    2  A    between atoms: N_6  and  C_8
REMARK    3  A    between atoms: N_6  and  C_9
REMARK    4  A    between atoms: N_7  and  C_21
REMARK    5  A    between atoms: C_11  and  C_21
REMARK    6  A    between atoms: C_12  and  C_22
REMARK                            x       y       z     vdW  Elec       q    Type
REMARK                         _______ _______ _______ _____ _____    ______ ____
ROOT
ATOM      3  O   UNL     1       0.235   1.656  23.374  0.00  0.00    -0.371 OA
ATOM      8  C   UNL     1      -1.269   0.608  24.884  0.00  0.00    +0.111 C 
ATOM     10  C   UNL     1      -0.405  -0.454  24.228  0.00  0.00    +0.164 C 
ATOM     11  C   UNL     1       0.778   0.381  23.755  0.00  0.00    +0.165 C 
ATOM     15  C   UNL     1      -1.086   1.776  23.928  0.00  0.00    +0.181 C 
ENDROOT
BRANCH  10   4
ATOM      4  O   UNL     1      -0.007  -1.468  25.131  0.00  0.00    -0.388 OA
ATOM     25  H   UNL     1      -0.648  -1.496  25.862  0.00  0.00    +0.210 HD
ENDBRANCH  10   4
BRANCH   8   6
ATOM      6  N   UNL     1      -2.660   0.215  25.038  0.00  0.00    -0.306 NA
ATOM     23  H   UNL     1      -2.818  -0.161  25.972  0.00  0.00    +0.123 HD
BRANCH   6   9
ATOM      1  F   UNL     1      -5.817   2.891  27.018  0.00  0.00    -0.206 F 
ATOM      2  F   UNL     1      -6.405   4.307  25.476  0.00  0.00    -0.206 F 
ATOM      9  C   UNL     1      -3.549   1.350  24.800  0.00  0.00    +0.054 C 
ATOM     13  C   UNL     1      -5.009   0.915  24.986  0.00  0.00    +0.024 C 
ATOM     14  C   UNL     1      -3.187   2.501  25.746  0.00  0.00    +0.024 C 
ATOM     18  C   UNL     1      -5.964   2.095  24.815  0.00  0.00    +0.077 C 
ATOM     19  C   UNL     1      -4.142   3.681  25.575  0.00  0.00    +0.077 C 
ATOM     20  C   UNL     1      -5.592   3.251  25.728  0.00  0.00    +0.249 C 
ENDBRANCH   6   9
ENDBRANCH   8   6
BRANCH  11  21
ATOM     21  C   UNL     1       1.515  -0.235  22.580  0.00  0.00    +0.138 C 
BRANCH  21   7
ATOM      5  O   UNL     1       3.637   1.752  22.508  0.00  0.00    -0.276 OA
ATOM      7  N   UNL     1       2.905  -0.429  22.880  0.00  0.00    -0.313 N 
ATOM     22  C   UNL     1       3.850   0.585  22.818  0.00  0.00    +0.216 C 
ATOM     24  H   UNL     1       3.201  -1.357  23.166  0.00  0.00    +0.149 HD
BRANCH  22  12
ATOM     12  C   UNL     1       5.235   0.159  23.173  0.00  0.00    +0.075 C 
ATOM     16  C   UNL     1       5.410  -1.017  24.075  0.00  0.00    +0.013 C 
ATOM     17  C   UNL     1       5.707   0.365  24.574  0.00  0.00    +0.013 C 
ENDBRANCH  22  12
ENDBRANCH  21   7
ENDBRANCH  11  21
TORSDOF 6
ENDMDL
MODEL 5
REMARK VINA RESULT:      -5.7      2.997      5.293
REMARK  Name = 75536536
REMARK  6 active torsions:
REMARK  status: ('A' for Active; 'I' for Inactive)
REMARK    1  A    between atoms: O_4  and  C_10
REMARK    2  A    between atoms: N_6  and  C_8
REMARK    3  A    between atoms: N_6  and  C_9
REMARK    4  A    between atoms: N_7  and  C_21
REMARK    5  A    between atoms: C_11  and  C_21
REMARK    6  A    between atoms: C_12  and  C_22
REMARK                            x       y       z     vdW  Elec       q    Type
REMARK                         _______ _______ _______ _____ _____    ______ ____
ROOT
ATOM      3  O   UNL     1       0.393   2.735  25.514  0.00  0.00    -0.371 OA
ATOM      8  C   UNL     1      -1.546   1.382  25.287  0.00  0.00    +0.111 C 
ATOM     10  C   UNL     1      -0.713   1.270  24.023  0.00  0.00    +0.164 C 
ATOM     11  C   UNL     1       0.651   1.721  24.530  0.00  0.00    +0.165 C 
ATOM     15  C   UNL     1      -0.990   2.657  25.901  0.00  0.00    +0.181 C 
ENDROOT
BRANCH  10   4
ATOM      4  O   UNL     1      -0.676  -0.047  23.509  0.00  0.00    -0.388 OA
ATOM     25  H   UNL     1       0.226  -0.226  23.192  0.00  0.00    +0.210 HD
ENDBRANCH  10   4
BRANCH   8   6
ATOM      6  N   UNL     1      -2.977   1.451  25.039  0.00  0.00    -0.306 NA
ATOM     23  H   UNL     1      -3.157   1.872  24.128  0.00  0.00    +0.123 HD
BRANCH   6   9
ATOM      1  F   UNL     1      -2.308  -2.943  23.901  0.00  0.00    -0.206 F 
ATOM      2  F   UNL     1      -4.079  -3.986  24.610  0.00  0.00    -0.206 F 
ATOM      9  C   UNL     1      -3.578   0.120  25.102  0.00  0.00    +0.054 C 
ATOM     13  C   UNL     1      -3.806  -0.415  23.682  0.00  0.00    +0.024 C 
ATOM     14  C   UNL     1      -2.677  -0.820  25.911  0.00  0.00    +0.024 C 
ATOM     18  C   UNL     1      -4.368  -1.836  23.709  0.00  0.00    +0.077 C 
ATOM     19  C   UNL     1      -3.239  -2.240  25.939  0.00  0.00    +0.077 C 
ATOM     20  C   UNL     1      -3.495  -2.764  24.535  0.00  0.00    +0.249 C 
ENDBRANCH   6   9
ENDBRANCH   8   6
BRANCH  11  21
ATOM     21  C   UNL     1       1.542   2.281  23.436  0.00  0.00    +0.138 C 
BRANCH  21   7
ATOM      5  O   UNL     1       2.146  -0.178  22.005  0.00  0.00    -0.276 OA
ATOM      7  N   UNL     1       2.797   1.588  23.379  0.00  0.00    -0.313 N 
ATOM     22  C   UNL     1       2.992   0.414  22.666  0.00  0.00    +0.216 C 
ATOM     24  H   UNL     1       3.583   1.994  23.879  0.00  0.00    +0.149 HD
BRANCH  22  12
ATOM     12  C   UNL     1       4.378  -0.132  22.745  0.00  0.00    +0.075 C 
ATOM     16  C   UNL     1       4.761  -0.935  23.943  0.00  0.00    +0.013 C 
ATOM     17  C   UNL     1       5.315   0.445  23.753  0.00  0.00    +0.013 C 
ENDBRANCH  22  12
ENDBRANCH  21   7
ENDBRANCH  11  21
TORSDOF 6
ENDMDL
MODEL 6
REMARK VINA RESULT:      -5.5      3.498      5.325
REMARK  Name = 75536536
REMARK  6 active torsions:
REMARK  status: ('A' for Active; 'I' for Inactive)
REMARK    1  A    between atoms: O_4  and  C_10
REMARK    2  A    between atoms: N_6  and  C_8
REMARK    3  A    between atoms: N_6  and  C_9
REMARK    4  A    between atoms: N_7  and  C_21
REMARK    5  A    between atoms: C_11  and  C_21
REMARK    6  A    between atoms: C_12  and  C_22
REMARK                            x       y       z     vdW  Elec       q    Type
REMARK                         _______ _______ _______ _____ _____    ______ ____
ROOT
ATOM      3  O   UNL     1      -1.408  -2.295  23.611  0.00  0.00    -0.371 OA
ATOM      8  C   UNL     1       0.006  -0.636  24.554  0.00  0.00    +0.111 C 
ATOM     10  C   UNL     1      -1.237  -0.774  25.414  0.00  0.00    +0.164 C 
ATOM     11  C   UNL     1      -1.723  -2.159  25.007  0.00  0.00    +0.165 C 
ATOM     15  C   UNL     1      -0.453  -1.280  23.256  0.00  0.00    +0.181 C 
ENDROOT
BRANCH  10   4
ATOM      4  O   UNL     1      -0.954  -0.701  26.798  0.00  0.00    -0.388 OA
ATOM     25  H   UNL     1      -0.019  -0.928  26.932  0.00  0.00    +0.210 HD
ENDBRANCH  10   4
BRANCH   8   6
ATOM      6  N   UNL     1       0.446   0.739  24.381  0.00  0.00    -0.306 NA
ATOM     23  H   UNL     1       0.715   0.903  23.411  0.00  0.00    +0.123 HD
BRANCH   6   9
ATOM      1  F   UNL     1      -0.482   5.192  24.980  0.00  0.00    -0.206 F 
ATOM      2  F   UNL     1      -2.557   5.255  25.624  0.00  0.00    -0.206 F 
ATOM      9  C   UNL     1      -0.608   1.673  24.771  0.00  0.00    +0.054 C 
ATOM     13  C   UNL     1      -0.175   2.451  26.021  0.00  0.00    +0.024 C 
ATOM     14  C   UNL     1      -0.920   2.621  23.607  0.00  0.00    +0.024 C 
ATOM     18  C   UNL     1      -1.223   3.491  26.417  0.00  0.00    +0.077 C 
ATOM     19  C   UNL     1      -1.968   3.660  24.002  0.00  0.00    +0.077 C 
ATOM     20  C   UNL     1      -1.559   4.413  25.257  0.00  0.00    +0.249 C 
ENDBRANCH   6   9
ENDBRANCH   8   6
BRANCH  11  21
ATOM     21  C   UNL     1      -3.213  -2.358  25.219  0.00  0.00    +0.138 C 
BRANCH  21   7
ATOM      5  O   UNL     1      -4.319  -0.449  23.324  0.00  0.00    -0.276 OA
ATOM      7  N   UNL     1      -3.869  -1.116  25.511  0.00  0.00    -0.313 N 
ATOM     22  C   UNL     1      -4.368  -0.265  24.535  0.00  0.00    +0.216 C 
ATOM     24  H   UNL     1      -3.984  -0.861  26.487  0.00  0.00    +0.149 HD
BRANCH  22  12
ATOM     12  C   UNL     1      -5.013   0.971  25.066  0.00  0.00    +0.075 C 
ATOM     16  C   UNL     1      -4.822   2.251  24.324  0.00  0.00    +0.013 C 
ATOM     17  C   UNL     1      -4.144   2.037  25.643  0.00  0.00    +0.013 C 
ENDBRANCH  22  12
ENDBRANCH  21   7
ENDBRANCH  11  21
TORSDOF 6
ENDMDL
MODEL 7
REMARK VINA RESULT:      -5.3      3.449      6.208
REMARK  Name = 75536536
REMARK  6 active torsions:
REMARK  status: ('A' for Active; 'I' for Inactive)
REMARK    1  A    between atoms: O_4  and  C_10
REMARK    2  A    between atoms: N_6  and  C_8
REMARK    3  A    between atoms: N_6  and  C_9
REMARK    4  A    between atoms: N_7  and  C_21
REMARK    5  A    between atoms: C_11  and  C_21
REMARK    6  A    between atoms: C_12  and  C_22
REMARK                            x       y       z     vdW  Elec       q    Type
REMARK                         _______ _______ _______ _____ _____    ______ ____
ROOT
ATOM      3  O   UNL     1      -0.247   3.176  23.309  0.00  0.00    -0.371 OA
ATOM      8  C   UNL     1      -1.034   3.595  25.511  0.00  0.00    +0.111 C 
ATOM     10  C   UNL     1      -0.229   2.308  25.509  0.00  0.00    +0.164 C 
ATOM     11  C   UNL     1       0.598   2.481  24.241  0.00  0.00    +0.165 C 
ATOM     15  C   UNL     1      -1.347   3.755  24.032  0.00  0.00    +0.181 C 
ENDROOT
BRANCH  10   4
ATOM      4  O   UNL     1       0.588   2.174  26.656  0.00  0.00    -0.388 OA
ATOM     25  H   UNL     1       1.476   2.506  26.440  0.00  0.00    +0.210 HD
ENDBRANCH  10   4
BRANCH   8   6
ATOM      6  N   UNL     1      -2.227   3.536  26.339  0.00  0.00    -0.306 NA
ATOM     23  H   UNL     1      -2.377   4.430  26.805  0.00  0.00    +0.123 HD
BRANCH   6   9
ATOM      1  F   UNL     1      -6.317   1.464  26.513  0.00  0.00    -0.206 F 
ATOM      2  F   UNL     1      -7.126   1.641  24.503  0.00  0.00    -0.206 F 
ATOM      9  C   UNL     1      -3.398   3.187  25.538  0.00  0.00    +0.054 C 
ATOM     13  C   UNL     1      -3.560   1.662  25.489  0.00  0.00    +0.024 C 
ATOM     14  C   UNL     1      -4.646   3.860  26.121  0.00  0.00    +0.024 C 
ATOM     18  C   UNL     1      -4.817   1.262  24.719  0.00  0.00    +0.077 C 
ATOM     19  C   UNL     1      -5.903   3.461  25.350  0.00  0.00    +0.077 C 
ATOM     20  C   UNL     1      -6.053   1.950  25.273  0.00  0.00    +0.249 C 
ENDBRANCH   6   9
ENDBRANCH   8   6
BRANCH  11  21
ATOM     21  C   UNL     1       1.053   1.165  23.638  0.00  0.00    +0.138 C 
BRANCH  21   7
ATOM      5  O   UNL     1       2.691  -0.115  21.604  0.00  0.00    -0.276 OA
ATOM      7  N   UNL     1       2.485   1.078  23.595  0.00  0.00    -0.313 N 
ATOM     22  C   UNL     1       3.183   0.444  22.578  0.00  0.00    +0.216 C 
ATOM     24  H   UNL     1       3.007   1.521  24.345  0.00  0.00    +0.149 HD
BRANCH  22  12
ATOM     12  C   UNL     1       4.667   0.477  22.735  0.00  0.00    +0.075 C 
ATOM     16  C   UNL     1       5.338  -0.673  23.410  0.00  0.00    +0.013 C 
ATOM     17  C   UNL     1       5.234   0.652  24.104  0.00  0.00    +0.013 C 
ENDBRANCH  22  12
ENDBRANCH  21   7
ENDBRANCH  11  21
TORSDOF 6
ENDMDL
MODEL 8
REMARK VINA RESULT:      -4.7      2.770      4.593
REMARK  Name = 75536536
REMARK  6 active torsions:
REMARK  status: ('A' for Active; 'I' for Inactive)
REMARK    1  A    between atoms: O_4  and  C_10
REMARK    2  A    between atoms: N_6  and  C_8
REMARK    3  A    between atoms: N_6  and  C_9
REMARK    4  A    between atoms: N_7  and  C_21
REMARK    5  A    between atoms: C_11  and  C_21
REMARK    6  A    between atoms: C_12  and  C_22
REMARK                            x       y       z     vdW  Elec       q    Type
REMARK                         _______ _______ _______ _____ _____    ______ ____
ROOT
ATOM      3  O   UNL     1       0.020  -0.852  24.603  0.00  0.00    -0.371 OA
ATOM      8  C   UNL     1      -2.310  -0.718  24.162  0.00  0.00    +0.111 C 
ATOM     10  C   UNL     1      -1.676   0.633  23.889  0.00  0.00    +0.164 C 
ATOM     11  C   UNL     1      -0.217   0.239  23.699  0.00  0.00    +0.165 C 
ATOM     15  C   UNL     1      -1.249  -1.378  25.028  0.00  0.00    +0.181 C 
ENDROOT
BRANCH  10   4
ATOM      4  O   UNL     1      -2.206   1.262  22.737  0.00  0.00    -0.388 OA
ATOM     25  H   UNL     1      -1.682   0.982  21.968  0.00  0.00    +0.210 HD
ENDBRANCH  10   4
BRANCH   8   6
ATOM      6  N   UNL     1      -3.605  -0.633  24.819  0.00  0.00    -0.306 NA
ATOM     23  H   UNL     1      -3.515  -0.868  25.806  0.00  0.00    +0.123 HD
BRANCH   6   9
ATOM      1  F   UNL     1      -6.092   2.559  26.980  0.00  0.00    -0.206 F 
ATOM      2  F   UNL     1      -6.236   4.212  25.574  0.00  0.00    -0.206 F 
ATOM      9  C   UNL     1      -4.172   0.706  24.674  0.00  0.00    +0.054 C 
ATOM     13  C   UNL     1      -5.701   0.637  24.780  0.00  0.00    +0.024 C 
ATOM     14  C   UNL     1      -3.583   1.639  25.739  0.00  0.00    +0.024 C 
ATOM     18  C   UNL     1      -6.325   2.030  24.705  0.00  0.00    +0.077 C 
ATOM     19  C   UNL     1      -4.206   3.031  25.664  0.00  0.00    +0.077 C 
ATOM     20  C   UNL     1      -5.723   2.967  25.738  0.00  0.00    +0.249 C 
ENDBRANCH   6   9
ENDBRANCH   8   6
BRANCH  11  21
ATOM     21  C   UNL     1       0.753   1.370  23.994  0.00  0.00    +0.138 C 
BRANCH  21   7
ATOM      5  O   UNL     1      -0.035   2.385  26.602  0.00  0.00    -0.276 OA
ATOM      7  N   UNL     1       0.058   2.591  24.283  0.00  0.00    -0.313 N 
ATOM     22  C   UNL     1      -0.277   2.995  25.567  0.00  0.00    +0.216 C 
ATOM     24  H   UNL     1      -0.183   3.193  23.501  0.00  0.00    +0.149 HD
BRANCH  22  12
ATOM     12  C   UNL     1      -0.995   4.302  25.634  0.00  0.00    +0.075 C 
ATOM     16  C   UNL     1      -1.928   4.660  24.526  0.00  0.00    +0.013 C 
ATOM     17  C   UNL     1      -0.618   5.373  24.667  0.00  0.00    +0.013 C 
ENDBRANCH  22  12
ENDBRANCH  21   7
ENDBRANCH  11  21
TORSDOF 6
ENDMDL
MODEL 9
REMARK VINA RESULT:      -4.2      2.106      3.853
REMARK  Name = 75536536
REMARK  6 active torsions:
REMARK  status: ('A' for Active; 'I' for Inactive)
REMARK    1  A    between atoms: O_4  and  C_10
REMARK    2  A    between atoms: N_6  and  C_8
REMARK    3  A    between atoms: N_6  and  C_9
REMARK    4  A    between atoms: N_7  and  C_21
REMARK    5  A    between atoms: C_11  and  C_21
REMARK    6  A    between atoms: C_12  and  C_22
REMARK                            x       y       z     vdW  Elec       q    Type
REMARK                         _______ _______ _______ _____ _____    ______ ____
ROOT
ATOM      3  O   UNL     1      -3.452   1.739  23.142  0.00  0.00    -0.371 OA
ATOM      8  C   UNL     1      -4.823   0.365  24.511  0.00  0.00    +0.111 C 
ATOM     10  C   UNL     1      -4.915   1.799  24.998  0.00  0.00    +0.164 C 
ATOM     11  C   UNL     1      -4.455   2.560  23.761  0.00  0.00    +0.165 C 
ATOM     15  C   UNL     1      -3.548   0.410  23.684  0.00  0.00    +0.181 C 
ENDROOT
BRANCH  10   4
ATOM      4  O   UNL     1      -6.228   2.162  25.382  0.00  0.00    -0.388 OA
ATOM     25  H   UNL     1      -6.172   2.717  26.178  0.00  0.00    +0.210 HD
ENDBRANCH  10   4
BRANCH   8   6
ATOM      6  N   UNL     1      -4.768  -0.614  25.584  0.00  0.00    -0.306 NA
ATOM     23  H   UNL     1      -5.449  -1.354  25.421  0.00  0.00    +0.123 HD
BRANCH   6   9
ATOM      1  F   UNL     1      -0.576  -0.551  23.719  0.00  0.00    -0.206 F 
ATOM      2  F   UNL     1       0.590  -1.954  24.903  0.00  0.00    -0.206 F 
ATOM      9  C   UNL     1      -3.427  -1.185  25.696  0.00  0.00    +0.054 C 
ATOM     13  C   UNL     1      -3.078  -1.948  24.412  0.00  0.00    +0.024 C 
ATOM     14  C   UNL     1      -2.410  -0.073  25.976  0.00  0.00    +0.024 C 
ATOM     18  C   UNL     1      -1.653  -2.499  24.464  0.00  0.00    +0.077 C 
ATOM     19  C   UNL     1      -0.986  -0.623  26.030  0.00  0.00    +0.077 C 
ATOM     20  C   UNL     1      -0.644  -1.406  24.772  0.00  0.00    +0.249 C 
ENDBRANCH   6   9
ENDBRANCH   8   6
BRANCH  11  21
ATOM     21  C   UNL     1      -3.876   3.927  24.079  0.00  0.00    +0.138 C 
BRANCH  21   7
ATOM      5  O   UNL     1      -2.535   3.766  26.654  0.00  0.00    -0.276 OA
ATOM      7  N   UNL     1      -2.465   3.851  24.327  0.00  0.00    -0.313 N 
ATOM     22  C   UNL     1      -1.914   3.777  25.597  0.00  0.00    +0.216 C 
ATOM     24  H   UNL     1      -1.845   3.837  23.522  0.00  0.00    +0.149 HD
BRANCH  22  12
ATOM     12  C   UNL     1      -0.424   3.704  25.620  0.00  0.00    +0.075 C 
ATOM     16  C   UNL     1       0.247   2.594  24.880  0.00  0.00    +0.013 C 
ATOM     17  C   UNL     1       0.224   2.594  26.379  0.00  0.00    +0.013 C 
ENDBRANCH  22  12
ENDBRANCH  21   7
ENDBRANCH  11  21
TORSDOF 6
ENDMDL
MODEL 10
REMARK VINA RESULT:      -4.2     14.923     16.753
REMARK  Name = 75536536
REMARK  6 active torsions:
REMARK  status: ('A' for Active; 'I' for Inactive)
REMARK    1  A    between atoms: O_4  and  C_10
REMARK    2  A    between atoms: N_6  and  C_8
REMARK    3  A    between atoms: N_6  and  C_9
REMARK    4  A    between atoms: N_7  and  C_21
REMARK    5  A    between atoms: C_11  and  C_21
REMARK    6  A    between atoms: C_12  and  C_22
REMARK                            x       y       z     vdW  Elec       q    Type
REMARK                         _______ _______ _______ _____ _____    ______ ____
ROOT
ATOM      3  O   UNL     1      -4.787 -10.369  15.371  0.00  0.00    -0.371 OA
ATOM      8  C   UNL     1      -6.306 -10.067  13.570  0.00  0.00    +0.111 C 
ATOM     10  C   UNL     1      -7.091 -10.206  14.862  0.00  0.00    +0.164 C 
ATOM     11  C   UNL     1      -6.024  -9.856  15.892  0.00  0.00    +0.165 C 
ATOM     15  C   UNL     1      -4.961 -10.650  13.971  0.00  0.00    +0.181 C 
ENDROOT
BRANCH  10   4
ATOM      4  O   UNL     1      -8.195  -9.324  14.927  0.00  0.00    -0.388 OA
ATOM     25  H   UNL     1      -8.099  -8.772  15.721  0.00  0.00    +0.210 HD
ENDBRANCH  10   4
BRANCH   8   6
ATOM      6  N   UNL     1      -6.911 -10.759  12.443  0.00  0.00    -0.306 NA
ATOM     23  H   UNL     1      -7.915 -10.589  12.423  0.00  0.00    +0.123 HD
BRANCH   6   9
ATOM      1  F   UNL     1      -3.572  -8.159  10.670  0.00  0.00    -0.206 F 
ATOM      2  F   UNL     1      -3.756  -8.394   8.516  0.00  0.00    -0.206 F 
ATOM      9  C   UNL     1      -6.306 -10.326  11.185  0.00  0.00    +0.054 C 
ATOM     13  C   UNL     1      -6.423  -8.802  11.049  0.00  0.00    +0.024 C 
ATOM     14  C   UNL     1      -4.842 -10.778  11.129  0.00  0.00    +0.024 C 
ATOM     18  C   UNL     1      -5.737  -8.305   9.776  0.00  0.00    +0.077 C 
ATOM     19  C   UNL     1      -4.157 -10.282   9.857  0.00  0.00    +0.077 C 
ATOM     20  C   UNL     1      -4.295  -8.777   9.701  0.00  0.00    +0.249 C 
ENDBRANCH   6   9
ENDBRANCH   8   6
BRANCH  11  21
ATOM     21  C   UNL     1      -6.293 -10.456  17.261  0.00  0.00    +0.138 C 
BRANCH  21   7
ATOM      5  O   UNL     1      -7.679 -10.443  19.817  0.00  0.00    -0.276 OA
ATOM      7  N   UNL     1      -7.699 -10.617  17.493  0.00  0.00    -0.313 N 
ATOM     22  C   UNL     1      -8.274 -10.596  18.756  0.00  0.00    +0.216 C 
ATOM     24  H   UNL     1      -8.301 -10.737  16.683  0.00  0.00    +0.149 HD
BRANCH  22  12
ATOM     12  C   UNL     1      -9.754 -10.781  18.762  0.00  0.00    +0.075 C 
ATOM     16  C   UNL     1     -10.518 -10.467  17.518  0.00  0.00    +0.013 C 
ATOM     17  C   UNL     1     -10.624  -9.569  18.714  0.00  0.00    +0.013 C 
ENDBRANCH  22  12
ENDBRANCH  21   7
ENDBRANCH  11  21
TORSDOF 6
ENDMDL
