MODEL 1
REMARK VINA RESULT:      -3.3      0.000      0.000
REMARK  Name = 45783835
REMARK  3 active torsions:
REMARK  status: ('A' for Active; 'I' for Inactive)
REMARK    1  A    between atoms: N_2  and  C_16
REMARK    2  A    between atoms: C_7  and  C_15
REMARK    3  A    between atoms: C_18  and  C_20
REMARK                            x       y       z     vdW  Elec       q    Type
REMARK                         _______ _______ _______ _____ _____    ______ ____
ROOT
ATOM      1  O   UNL     1       1.696   1.466  23.820  0.00  0.00    -0.336 OA
ATOM      4  N   UNL     1       0.749  -0.542  23.525  0.00  0.00    -0.190 NA
ATOM      5  N   UNL     1       0.364   1.599  24.234  0.00  0.00    -0.056 NA
ATOM     15  C   UNL     1       1.838   0.176  23.418  0.00  0.00    +0.245 A 
ATOM     18  C   UNL     1      -0.128   0.374  24.031  0.00  0.00    +0.202 A 
ENDROOT
BRANCH  18  20
ATOM      3  N   UNL     1      -4.603   1.634  25.255  0.00  0.00    -0.315 N 
ATOM      6  N   UNL     1      -4.147  -0.638  24.878  0.00  0.00    -0.240 NA
ATOM     11  C   UNL     1      -6.482   2.731  26.150  0.00  0.00    +0.020 C 
ATOM     12  C   UNL     1      -5.615   3.750  25.430  0.00  0.00    +0.020 C 
ATOM     13  C   UNL     1      -6.012   1.401  25.564  0.00  0.00    +0.106 C 
ATOM     14  C   UNL     1      -4.260   3.052  25.339  0.00  0.00    +0.106 C 
ATOM     17  C   UNL     1      -3.709   0.640  24.923  0.00  0.00    +0.122 A 
ATOM     19  C   UNL     1      -2.404   1.023  24.655  0.00  0.00    +0.055 A 
ATOM     20  C   UNL     1      -1.490   0.031  24.319  0.00  0.00    +0.027 A 
ATOM     21  C   UNL     1      -1.903  -1.296  24.264  0.00  0.00    +0.031 A 
ATOM     22  C   UNL     1      -3.229  -1.576  24.550  0.00  0.00    +0.113 A 
ENDBRANCH  18  20
BRANCH  15   7
ATOM      2  N   UNL     1       4.222   0.826  23.125  0.00  0.00    -0.294 NA
ATOM      7  C   UNL     1       3.209  -0.228  22.918  0.00  0.00    +0.146 C 
ATOM      8  C   UNL     1       3.770  -1.460  23.651  0.00  0.00    +0.030 C 
ATOM      9  C   UNL     1       5.126  -1.022  24.185  0.00  0.00    +0.017 C 
ATOM     10  C   UNL     1       5.504   0.140  23.289  0.00  0.00    +0.085 C 
ATOM     16  C   UNL     1       4.260   1.808  22.050  0.00  0.00    +0.105 C 
ENDBRANCH  15   7
TORSDOF 2
ENDMDL
MODEL 2
REMARK VINA RESULT:      -3.2      1.533      2.477
REMARK  Name = 45783835
REMARK  3 active torsions:
REMARK  status: ('A' for Active; 'I' for Inactive)
REMARK    1  A    between atoms: N_2  and  C_16
REMARK    2  A    between atoms: C_7  and  C_15
REMARK    3  A    between atoms: C_18  and  C_20
REMARK                            x       y       z     vdW  Elec       q    Type
REMARK                         _______ _______ _______ _____ _____    ______ ____
ROOT
ATOM      1  O   UNL     1       0.928  -0.725  23.407  0.00  0.00    -0.336 OA
ATOM      4  N   UNL     1       1.444   1.432  23.714  0.00  0.00    -0.190 NA
ATOM      5  N   UNL     1      -0.247  -0.104  23.848  0.00  0.00    -0.056 NA
ATOM     15  C   UNL     1       1.874   0.248  23.356  0.00  0.00    +0.245 A 
ATOM     18  C   UNL     1       0.137   1.166  24.006  0.00  0.00    +0.202 A 
ENDROOT
BRANCH  18  20
ATOM      3  N   UNL     1      -4.254   2.637  25.299  0.00  0.00    -0.315 N 
ATOM      6  N   UNL     1      -2.497   4.195  25.338  0.00  0.00    -0.240 NA
ATOM     11  C   UNL     1      -6.582   2.888  25.526  0.00  0.00    +0.020 C 
ATOM     12  C   UNL     1      -6.225   1.423  25.715  0.00  0.00    +0.020 C 
ATOM     13  C   UNL     1      -5.250   3.601  25.757  0.00  0.00    +0.106 C 
ATOM     14  C   UNL     1      -4.842   1.317  25.078  0.00  0.00    +0.106 C 
ATOM     17  C   UNL     1      -2.923   2.934  25.099  0.00  0.00    +0.122 A 
ATOM     19  C   UNL     1      -2.101   1.908  24.662  0.00  0.00    +0.055 A 
ATOM     20  C   UNL     1      -0.756   2.193  24.457  0.00  0.00    +0.027 A 
ATOM     21  C   UNL     1      -0.281   3.479  24.690  0.00  0.00    +0.031 A 
ATOM     22  C   UNL     1      -1.183   4.436  25.126  0.00  0.00    +0.113 A 
ENDBRANCH  18  20
BRANCH  15   7
ATOM      2  N   UNL     1       4.278   0.858  23.156  0.00  0.00    -0.294 NA
ATOM      7  C   UNL     1       3.255  -0.174  22.900  0.00  0.00    +0.146 C 
ATOM      8  C   UNL     1       3.767  -1.425  23.638  0.00  0.00    +0.030 C 
ATOM      9  C   UNL     1       5.111  -1.018  24.225  0.00  0.00    +0.017 C 
ATOM     10  C   UNL     1       5.541   0.147  23.357  0.00  0.00    +0.085 C 
ATOM     16  C   UNL     1       4.371   1.852  22.094  0.00  0.00    +0.105 C 
ENDBRANCH  15   7
TORSDOF 2
ENDMDL
MODEL 3
REMARK VINA RESULT:      -1.2      1.203      1.415
REMARK  Name = 45783835
REMARK  3 active torsions:
REMARK  status: ('A' for Active; 'I' for Inactive)
REMARK    1  A    between atoms: N_2  and  C_16
REMARK    2  A    between atoms: C_7  and  C_15
REMARK    3  A    between atoms: C_18  and  C_20
REMARK                            x       y       z     vdW  Elec       q    Type
REMARK                         _______ _______ _______ _____ _____    ______ ____
ROOT
ATOM      1  O   UNL     1       1.627  -1.871  24.767  0.00  0.00    -0.336 OA
ATOM      4  N   UNL     1       0.473  -0.444  23.484  0.00  0.00    -0.190 NA
ATOM      5  N   UNL     1       0.292  -1.971  25.179  0.00  0.00    -0.056 NA
ATOM     15  C   UNL     1       1.646  -0.952  23.768  0.00  0.00    +0.245 A 
ATOM     18  C   UNL     1      -0.326  -1.100  24.375  0.00  0.00    +0.202 A 
ENDROOT
BRANCH  18  20
ATOM      3  N   UNL     1      -4.055   1.883  24.934  0.00  0.00    -0.315 N 
ATOM      6  N   UNL     1      -4.492  -0.394  24.555  0.00  0.00    -0.240 NA
ATOM     11  C   UNL     1      -5.452   3.667  25.564  0.00  0.00    +0.020 C 
ATOM     12  C   UNL     1      -4.150   4.231  25.022  0.00  0.00    +0.020 C 
ATOM     13  C   UNL     1      -5.468   2.242  25.013  0.00  0.00    +0.106 C 
ATOM     14  C   UNL     1      -3.191   3.047  25.119  0.00  0.00    +0.106 C 
ATOM     17  C   UNL     1      -3.593   0.604  24.711  0.00  0.00    +0.122 A 
ATOM     19  C   UNL     1      -2.220   0.424  24.661  0.00  0.00    +0.055 A 
ATOM     20  C   UNL     1      -1.738  -0.860  24.437  0.00  0.00    +0.027 A 
ATOM     21  C   UNL     1      -2.633  -1.913  24.273  0.00  0.00    +0.031 A 
ATOM     22  C   UNL     1      -3.987  -1.630  24.341  0.00  0.00    +0.113 A 
ENDBRANCH  18  20
BRANCH  15   7
ATOM      2  N   UNL     1       3.505   0.680  23.494  0.00  0.00    -0.294 NA
ATOM      7  C   UNL     1       2.995  -0.660  23.144  0.00  0.00    +0.146 C 
ATOM      8  C   UNL     1       4.092  -1.632  23.618  0.00  0.00    +0.030 C 
ATOM      9  C   UNL     1       5.201  -0.744  24.163  0.00  0.00    +0.017 C 
ATOM     10  C   UNL     1       4.964   0.585  23.476  0.00  0.00    +0.085 C 
ATOM     16  C   UNL     1       3.013   1.731  22.613  0.00  0.00    +0.105 C 
ENDBRANCH  15   7
TORSDOF 2
ENDMDL
MODEL 4
REMARK VINA RESULT:      -0.5     14.414     17.248
REMARK  Name = 45783835
REMARK  3 active torsions:
REMARK  status: ('A' for Active; 'I' for Inactive)
REMARK    1  A    between atoms: N_2  and  C_16
REMARK    2  A    between atoms: C_7  and  C_15
REMARK    3  A    between atoms: C_18  and  C_20
REMARK                            x       y       z     vdW  Elec       q    Type
REMARK                         _______ _______ _______ _____ _____    ______ ____
ROOT
ATOM      1  O   UNL     1      -6.145 -10.354  16.811  0.00  0.00    -0.336 OA
ATOM      4  N   UNL     1      -7.404 -10.632  14.980  0.00  0.00    -0.190 NA
ATOM      5  N   UNL     1      -5.278 -10.220  15.718  0.00  0.00    -0.056 NA
ATOM     15  C   UNL     1      -7.375 -10.595  16.288  0.00  0.00    +0.245 A 
ATOM     18  C   UNL     1      -6.095 -10.396  14.676  0.00  0.00    +0.202 A 
ENDROOT
BRANCH  18  20
ATOM      3  N   UNL     1      -2.616  -9.623  11.449  0.00  0.00    -0.315 N 
ATOM      6  N   UNL     1      -4.742 -10.250  10.671  0.00  0.00    -0.240 NA
ATOM     11  C   UNL     1      -0.700  -8.845  10.328  0.00  0.00    +0.020 C 
ATOM     12  C   UNL     1      -0.304  -9.291  11.725  0.00  0.00    +0.020 C 
ATOM     13  C   UNL     1      -2.041  -9.543  10.108  0.00  0.00    +0.106 C 
ATOM     14  C   UNL     1      -1.632  -9.295  12.478  0.00  0.00    +0.106 C 
ATOM     17  C   UNL     1      -3.925  -9.967  11.711  0.00  0.00    +0.122 A 
ATOM     19  C   UNL     1      -4.319 -10.000  13.038  0.00  0.00    +0.055 A 
ATOM     20  C   UNL     1      -5.636 -10.345  13.318  0.00  0.00    +0.027 A 
ATOM     21  C   UNL     1      -6.508 -10.642  12.275  0.00  0.00    +0.031 A 
ATOM     22  C   UNL     1      -6.016 -10.580  10.981  0.00  0.00    +0.113 A 
ENDBRANCH  18  20
BRANCH  15   7
ATOM      2  N   UNL     1      -8.292 -10.027  18.531  0.00  0.00    -0.294 NA
ATOM      7  C   UNL     1      -8.506 -10.780  17.280  0.00  0.00    +0.146 C 
ATOM      8  C   UNL     1      -9.856 -10.271  16.743  0.00  0.00    +0.030 C 
ATOM      9  C   UNL     1     -10.353  -9.283  17.788  0.00  0.00    +0.017 C 
ATOM     10  C   UNL     1      -9.620  -9.698  19.048  0.00  0.00    +0.085 C 
ATOM     16  C   UNL     1      -7.488 -10.750  19.508  0.00  0.00    +0.105 C 
ENDBRANCH  15   7
TORSDOF 2
ENDMDL
MODEL 5
REMARK VINA RESULT:       0.4      1.499      1.889
REMARK  Name = 45783835
REMARK  3 active torsions:
REMARK  status: ('A' for Active; 'I' for Inactive)
REMARK    1  A    between atoms: N_2  and  C_16
REMARK    2  A    between atoms: C_7  and  C_15
REMARK    3  A    between atoms: C_18  and  C_20
REMARK                            x       y       z     vdW  Elec       q    Type
REMARK                         _______ _______ _______ _____ _____    ______ ____
ROOT
ATOM      1  O   UNL     1       1.571  -0.769  21.646  0.00  0.00    -0.336 OA
ATOM      4  N   UNL     1       1.409   0.122  23.694  0.00  0.00    -0.190 NA
ATOM      5  N   UNL     1       0.201  -0.660  21.915  0.00  0.00    -0.056 NA
ATOM     15  C   UNL     1       2.210  -0.287  22.743  0.00  0.00    +0.245 A 
ATOM     18  C   UNL     1       0.187  -0.126  23.140  0.00  0.00    +0.202 A 
ENDROOT
BRANCH  18  20
ATOM      3  N   UNL     1      -2.726   2.988  25.361  0.00  0.00    -0.315 N 
ATOM      6  N   UNL     1      -3.404   0.745  25.199  0.00  0.00    -0.240 NA
ATOM     11  C   UNL     1      -3.593   4.807  26.575  0.00  0.00    +0.020 C 
ATOM     12  C   UNL     1      -2.651   5.334  25.506  0.00  0.00    +0.020 C 
ATOM     13  C   UNL     1      -3.930   3.403  26.077  0.00  0.00    +0.106 C 
ATOM     14  C   UNL     1      -1.814   4.109  25.145  0.00  0.00    +0.106 C 
ATOM     17  C   UNL     1      -2.481   1.699  24.939  0.00  0.00    +0.122 A 
ATOM     19  C   UNL     1      -1.291   1.465  24.270  0.00  0.00    +0.055 A 
ATOM     20  C   UNL     1      -1.030   0.170  23.839  0.00  0.00    +0.027 A 
ATOM     21  C   UNL     1      -1.954  -0.839  24.088  0.00  0.00    +0.031 A 
ATOM     22  C   UNL     1      -3.115  -0.503  24.767  0.00  0.00    +0.113 A 
ENDBRANCH  18  20
BRANCH  15   7
ATOM      2  N   UNL     1       4.315   0.930  23.275  0.00  0.00    -0.294 NA
ATOM      7  C   UNL     1       3.725  -0.295  22.700  0.00  0.00    +0.146 C 
ATOM      8  C   UNL     1       4.336  -1.446  23.520  0.00  0.00    +0.030 C 
ATOM      9  C   UNL     1       5.302  -0.777  24.487  0.00  0.00    +0.017 C 
ATOM     10  C   UNL     1       5.618   0.545  23.817  0.00  0.00    +0.085 C 
ATOM     16  C   UNL     1       4.421   2.022  22.316  0.00  0.00    +0.105 C 
ENDBRANCH  15   7
TORSDOF 2
ENDMDL
