MODEL 1
REMARK VINA RESULT:       2.7      0.000      0.000
REMARK  Name = 28959956
REMARK  8 active torsions:
REMARK  status: ('A' for Active; 'I' for Inactive)
REMARK    1  A    between atoms: O_3  and  C_22
REMARK    2  A    between atoms: N_7  and  C_15
REMARK    3  A    between atoms: N_8  and  C_24
REMARK    4  A    between atoms: C_9  and  C_12
REMARK    5  A    between atoms: C_10  and  C_16
REMARK    6  A    between atoms: C_12  and  C_15
REMARK    7  A    between atoms: C_16  and  C_22
REMARK    8  A    between atoms: C_21  and  C_23
REMARK                            x       y       z     vdW  Elec       q    Type
REMARK                         _______ _______ _______ _____ _____    ______ ____
ROOT
ATOM      4  O   UNL     1      -5.833   4.172  25.377  0.00  0.00    -0.269 OA
ATOM      6  N   UNL     1      -4.581   2.208  25.599  0.00  0.00    -0.297 N 
ATOM      9  C   UNL     1      -3.332   0.326  24.563  0.00  0.00    +0.011 C 
ATOM     10  C   UNL     1      -4.544  -0.593  24.865  0.00  0.00    +0.006 C 
ATOM     11  C   UNL     1      -3.297   1.494  25.566  0.00  0.00    +0.112 C 
ATOM     13  C   UNL     1      -5.856   0.206  24.937  0.00  0.00    +0.023 C 
ATOM     14  C   UNL     1      -5.740   1.373  25.913  0.00  0.00    +0.108 C 
ATOM     21  C   UNL     1      -4.759   3.572  25.355  0.00  0.00    +0.253 C 
ENDROOT
BRANCH  21  23
ATOM      1  S   UNL     1      -2.189   4.243  26.039  0.00  0.00    -0.092 S 
ATOM     23  C   UNL     1      -3.574   4.378  25.043  0.00  0.00    +0.074 A 
ATOM     25  C   UNL     1      -3.388   5.278  24.017  0.00  0.00    +0.021 A 
ATOM     28  C   UNL     1      -2.090   5.864  24.049  0.00  0.00    +0.008 A 
ATOM     31  C   UNL     1      -1.334   5.390  25.098  0.00  0.00    +0.046 A 
ENDBRANCH  21  23
BRANCH   9  12
ATOM     12  C   UNL     1      -3.298   0.858  23.125  0.00  0.00    +0.020 C 
BRANCH  12  15
ATOM     15  C   UNL     1      -2.155   1.847  22.939  0.00  0.00    +0.085 C 
BRANCH  15   7
ATOM      7  N   UNL     1      -0.902   1.250  23.400  0.00  0.00    -0.299 NA
ATOM      8  N   UNL     1       1.887   0.638  23.298  0.00  0.00    -0.327 N 
ATOM     17  C   UNL     1       0.098   2.291  23.664  0.00  0.00    +0.103 C 
ATOM     18  C   UNL     1      -0.385   0.304  22.402  0.00  0.00    +0.103 C 
ATOM     19  C   UNL     1       1.397   1.685  24.201  0.00  0.00    +0.120 C 
ATOM     20  C   UNL     1       0.896  -0.370  22.898  0.00  0.00    +0.120 C 
BRANCH   8  24
ATOM      2  F   UNL     1       7.202  -0.871  23.481  0.00  0.00    -0.205 F 
ATOM     24  C   UNL     1       3.232   0.256  23.344  0.00  0.00    +0.030 A 
ATOM     26  C   UNL     1       3.575  -1.045  23.712  0.00  0.00    +0.026 A 
ATOM     27  C   UNL     1       4.231   1.176  23.024  0.00  0.00    +0.026 A 
ATOM     29  C   UNL     1       4.916  -1.427  23.758  0.00  0.00    +0.040 A 
ATOM     30  C   UNL     1       5.571   0.795  23.070  0.00  0.00    +0.040 A 
ATOM     32  C   UNL     1       5.914  -0.506  23.436  0.00  0.00    +0.124 A 
ENDBRANCH   8  24
ENDBRANCH  15   7
ENDBRANCH  12  15
ENDBRANCH   9  12
BRANCH  10  16
ATOM     16  C   UNL     1      -4.674  -1.757  23.883  0.00  0.00    +0.124 C 
BRANCH  16  22
ATOM      5  O   UNL     1      -3.189  -3.628  23.398  0.00  0.00    -0.251 OA
ATOM     22  C   UNL     1      -3.703  -2.861  24.198  0.00  0.00    +0.305 C 
BRANCH  22   3
ATOM      3  O   UNL     1      -3.465  -2.894  25.534  0.00  0.00    -0.481 OA
ATOM     33  H   UNL     1      -2.775  -2.248  25.799  0.00  0.00    +0.295 HD
ENDBRANCH  22   3
ENDBRANCH  16  22
ENDBRANCH  10  16
TORSDOF 8
ENDMDL
MODEL 2
REMARK VINA RESULT:       3.2      1.973      4.493
REMARK  Name = 28959956
REMARK  8 active torsions:
REMARK  status: ('A' for Active; 'I' for Inactive)
REMARK    1  A    between atoms: O_3  and  C_22
REMARK    2  A    between atoms: N_7  and  C_15
REMARK    3  A    between atoms: N_8  and  C_24
REMARK    4  A    between atoms: C_9  and  C_12
REMARK    5  A    between atoms: C_10  and  C_16
REMARK    6  A    between atoms: C_12  and  C_15
REMARK    7  A    between atoms: C_16  and  C_22
REMARK    8  A    between atoms: C_21  and  C_23
REMARK                            x       y       z     vdW  Elec       q    Type
REMARK                         _______ _______ _______ _____ _____    ______ ____
ROOT
ATOM      4  O   UNL     1      -5.687   0.444  26.699  0.00  0.00    -0.269 OA
ATOM      6  N   UNL     1      -5.086   1.747  24.851  0.00  0.00    -0.297 N 
ATOM      9  C   UNL     1      -3.359   2.991  23.569  0.00  0.00    +0.011 C 
ATOM     10  C   UNL     1      -3.964   4.313  24.111  0.00  0.00    +0.006 C 
ATOM     11  C   UNL     1      -4.438   1.894  23.540  0.00  0.00    +0.112 C 
ATOM     13  C   UNL     1      -4.671   4.099  25.460  0.00  0.00    +0.023 C 
ATOM     14  C   UNL     1      -5.694   2.969  25.375  0.00  0.00    +0.108 C 
ATOM     21  C   UNL     1      -5.151   0.569  25.598  0.00  0.00    +0.253 C 
ENDROOT
BRANCH  21  23
ATOM      1  S   UNL     1      -3.290  -1.420  25.924  0.00  0.00    -0.092 S 
ATOM     23  C   UNL     1      -4.530  -0.637  25.041  0.00  0.00    +0.074 A 
ATOM     25  C   UNL     1      -4.800  -1.276  23.851  0.00  0.00    +0.021 A 
ATOM     28  C   UNL     1      -3.979  -2.425  23.662  0.00  0.00    +0.008 A 
ATOM     31  C   UNL     1      -3.112  -2.620  24.715  0.00  0.00    +0.046 A 
ENDBRANCH  21  23
BRANCH   9  12
ATOM     12  C   UNL     1      -2.127   2.507  24.343  0.00  0.00    +0.020 C 
BRANCH  12  15
ATOM     15  C   UNL     1      -1.875   1.027  24.091  0.00  0.00    +0.085 C 
BRANCH  15   7
ATOM      7  N   UNL     1      -0.547   0.841  23.509  0.00  0.00    -0.299 NA
ATOM      8  N   UNL     1       2.239   0.206  23.520  0.00  0.00    -0.327 N 
ATOM     17  C   UNL     1      -0.101  -0.548  23.675  0.00  0.00    +0.103 C 
ATOM     18  C   UNL     1       0.421   1.752  24.133  0.00  0.00    +0.103 C 
ATOM     19  C   UNL     1       1.265  -0.771  23.021  0.00  0.00    +0.120 C 
ATOM     20  C   UNL     1       1.803   1.608  23.493  0.00  0.00    +0.120 C 
BRANCH   8  24
ATOM      2  F   UNL     1       7.649  -0.841  23.070  0.00  0.00    -0.205 F 
ATOM     24  C   UNL     1       3.608  -0.059  23.406  0.00  0.00    +0.030 A 
ATOM     26  C   UNL     1       4.120  -1.283  23.836  0.00  0.00    +0.026 A 
ATOM     27  C   UNL     1       4.462   0.901  22.862  0.00  0.00    +0.026 A 
ATOM     29  C   UNL     1       5.485  -1.548  23.723  0.00  0.00    +0.040 A 
ATOM     30  C   UNL     1       5.826   0.636  22.749  0.00  0.00    +0.040 A 
ATOM     32  C   UNL     1       6.338  -0.587  23.178  0.00  0.00    +0.124 A 
ENDBRANCH   8  24
ENDBRANCH  15   7
ENDBRANCH  12  15
ENDBRANCH   9  12
BRANCH  10  16
ATOM     16  C   UNL     1      -2.941   5.444  24.212  0.00  0.00    +0.124 C 
BRANCH  16  22
ATOM      5  O   UNL     1      -2.056   4.673  26.348  0.00  0.00    -0.251 OA
ATOM     22  C   UNL     1      -1.880   5.143  25.234  0.00  0.00    +0.305 C 
BRANCH  22   3
ATOM      3  O   UNL     1      -0.661   5.475  24.739  0.00  0.00    -0.481 OA
ATOM     33  H   UNL     1      -0.658   6.372  24.343  0.00  0.00    +0.295 HD
ENDBRANCH  22   3
ENDBRANCH  16  22
ENDBRANCH  10  16
TORSDOF 8
ENDMDL
MODEL 3
REMARK VINA RESULT:       4.5     16.860     19.363
REMARK  Name = 28959956
REMARK  8 active torsions:
REMARK  status: ('A' for Active; 'I' for Inactive)
REMARK    1  A    between atoms: O_3  and  C_22
REMARK    2  A    between atoms: N_7  and  C_15
REMARK    3  A    between atoms: N_8  and  C_24
REMARK    4  A    between atoms: C_9  and  C_12
REMARK    5  A    between atoms: C_10  and  C_16
REMARK    6  A    between atoms: C_12  and  C_15
REMARK    7  A    between atoms: C_16  and  C_22
REMARK    8  A    between atoms: C_21  and  C_23
REMARK                            x       y       z     vdW  Elec       q    Type
REMARK                         _______ _______ _______ _____ _____    ______ ____
ROOT
ATOM      4  O   UNL     1      11.535 -10.212  30.112  0.00  0.00    -0.269 OA
ATOM      6  N   UNL     1      13.235  -9.831  31.674  0.00  0.00    -0.297 N 
ATOM      9  C   UNL     1      15.065  -8.398  32.553  0.00  0.00    +0.011 C 
ATOM     10  C   UNL     1      16.085  -9.374  31.909  0.00  0.00    +0.006 C 
ATOM     11  C   UNL     1      13.753  -9.142  32.864  0.00  0.00    +0.112 C 
ATOM     13  C   UNL     1      15.481 -10.105  30.698  0.00  0.00    +0.023 C 
ATOM     14  C   UNL     1      14.163 -10.781  31.062  0.00  0.00    +0.108 C 
ATOM     21  C   UNL     1      11.971  -9.641  31.111  0.00  0.00    +0.253 C 
ENDROOT
BRANCH  21  23
ATOM      1  S   UNL     1       9.451  -9.142  32.075  0.00  0.00    -0.092 S 
ATOM     23  C   UNL     1      11.067  -8.680  31.752  0.00  0.00    +0.074 A 
ATOM     25  C   UNL     1      11.327  -7.390  32.158  0.00  0.00    +0.021 A 
ATOM     28  C   UNL     1      10.184  -6.773  32.743  0.00  0.00    +0.008 A 
ATOM     31  C   UNL     1       9.094  -7.615  32.761  0.00  0.00    +0.046 A 
ENDBRANCH  21  23
BRANCH   9  12
ATOM     12  C   UNL     1      14.782  -7.149  31.711  0.00  0.00    +0.020 C 
BRANCH  12  15
ATOM     15  C   UNL     1      14.211  -7.528  30.351  0.00  0.00    +0.085 C 
BRANCH  15   7
ATOM      7  N   UNL     1      15.084  -7.029  29.290  0.00  0.00    -0.299 NA
ATOM      8  N   UNL     1      15.717  -5.676  26.854  0.00  0.00    -0.327 N 
ATOM     17  C   UNL     1      15.019  -5.565  29.214  0.00  0.00    +0.103 C 
ATOM     18  C   UNL     1      14.706  -7.612  27.996  0.00  0.00    +0.103 C 
ATOM     19  C   UNL     1      15.971  -5.025  28.144  0.00  0.00    +0.120 C 
ATOM     20  C   UNL     1      15.649  -7.143  26.886  0.00  0.00    +0.120 C 
BRANCH   8  24
ATOM      2  F   UNL     1      17.405  -3.256  22.179  0.00  0.00    -0.205 F 
ATOM     24  C   UNL     1      16.145  -5.063  25.671  0.00  0.00    +0.030 A 
ATOM     26  C   UNL     1      15.872  -3.714  25.447  0.00  0.00    +0.026 A 
ATOM     27  C   UNL     1      16.843  -5.802  24.715  0.00  0.00    +0.026 A 
ATOM     29  C   UNL     1      16.298  -3.103  24.268  0.00  0.00    +0.040 A 
ATOM     30  C   UNL     1      17.268  -5.191  23.537  0.00  0.00    +0.040 A 
ATOM     32  C   UNL     1      16.997  -3.842  23.313  0.00  0.00    +0.124 A 
ENDBRANCH   8  24
ENDBRANCH  15   7
ENDBRANCH  12  15
ENDBRANCH   9  12
BRANCH  10  16
ATOM     16  C   UNL     1      17.403  -8.699  31.529  0.00  0.00    +0.124 C 
BRANCH  16  22
ATOM      5  O   UNL     1      17.166  -6.533  32.622  0.00  0.00    -0.251 OA
ATOM     22  C   UNL     1      17.302  -7.201  31.608  0.00  0.00    +0.305 C 
BRANCH  22   3
ATOM      3  O   UNL     1      17.382  -6.670  30.361  0.00  0.00    -0.481 OA
ATOM     33  H   UNL     1      18.307  -6.634  30.037  0.00  0.00    +0.295 HD
ENDBRANCH  22   3
ENDBRANCH  16  22
ENDBRANCH  10  16
TORSDOF 8
ENDMDL
MODEL 4
REMARK VINA RESULT:       5.0      2.014      4.452
REMARK  Name = 28959956
REMARK  8 active torsions:
REMARK  status: ('A' for Active; 'I' for Inactive)
REMARK    1  A    between atoms: O_3  and  C_22
REMARK    2  A    between atoms: N_7  and  C_15
REMARK    3  A    between atoms: N_8  and  C_24
REMARK    4  A    between atoms: C_9  and  C_12
REMARK    5  A    between atoms: C_10  and  C_16
REMARK    6  A    between atoms: C_12  and  C_15
REMARK    7  A    between atoms: C_16  and  C_22
REMARK    8  A    between atoms: C_21  and  C_23
REMARK                            x       y       z     vdW  Elec       q    Type
REMARK                         _______ _______ _______ _____ _____    ______ ____
ROOT
ATOM      4  O   UNL     1      -3.773  -1.257  27.288  0.00  0.00    -0.269 OA
ATOM      6  N   UNL     1      -4.647   0.074  25.574  0.00  0.00    -0.297 N 
ATOM      9  C   UNL     1      -4.370   1.917  23.930  0.00  0.00    +0.011 C 
ATOM     10  C   UNL     1      -5.222   2.821  24.858  0.00  0.00    +0.006 C 
ATOM     11  C   UNL     1      -4.741   0.439  24.154  0.00  0.00    +0.112 C 
ATOM     13  C   UNL     1      -5.129   2.371  26.326  0.00  0.00    +0.023 C 
ATOM     14  C   UNL     1      -5.463   0.889  26.472  0.00  0.00    +0.108 C 
ATOM     21  C   UNL     1      -3.859  -0.952  26.099  0.00  0.00    +0.253 C 
ENDROOT
BRANCH  21  23
ATOM      1  S   UNL     1      -3.833  -2.878  24.146  0.00  0.00    -0.092 S 
ATOM     23  C   UNL     1      -3.052  -1.749  25.168  0.00  0.00    +0.074 A 
ATOM     25  C   UNL     1      -1.689  -1.732  24.974  0.00  0.00    +0.021 A 
ATOM     28  C   UNL     1      -1.279  -2.658  23.973  0.00  0.00    +0.008 A 
ATOM     31  C   UNL     1      -2.346  -3.348  23.439  0.00  0.00    +0.046 A 
ENDBRANCH  21  23
BRANCH   9  12
ATOM     12  C   UNL     1      -2.858   2.115  24.083  0.00  0.00    +0.020 C 
BRANCH  12  15
ATOM     15  C   UNL     1      -2.114   1.586  22.864  0.00  0.00    +0.085 C 
BRANCH  15   7
ATOM      7  N   UNL     1      -0.858   0.966  23.280  0.00  0.00    -0.299 NA
ATOM      8  N   UNL     1       1.964   0.514  23.248  0.00  0.00    -0.327 N 
ATOM     17  C   UNL     1       0.064   1.976  23.814  0.00  0.00    +0.103 C 
ATOM     18  C   UNL     1      -0.230   0.267  22.152  0.00  0.00    +0.103 C 
ATOM     19  C   UNL     1       1.363   1.333  24.306  0.00  0.00    +0.120 C 
ATOM     20  C   UNL     1       1.058  -0.435  22.588  0.00  0.00    +0.120 C 
BRANCH   8  24
ATOM      2  F   UNL     1       7.338  -0.759  23.484  0.00  0.00    -0.205 F 
ATOM     24  C   UNL     1       3.324   0.192  23.307  0.00  0.00    +0.030 A 
ATOM     26  C   UNL     1       3.722  -1.079  23.721  0.00  0.00    +0.026 A 
ATOM     27  C   UNL     1       4.282   1.142  22.955  0.00  0.00    +0.026 A 
ATOM     29  C   UNL     1       5.078  -1.401  23.780  0.00  0.00    +0.040 A 
ATOM     30  C   UNL     1       5.637   0.820  23.014  0.00  0.00    +0.040 A 
ATOM     32  C   UNL     1       6.036  -0.450  23.427  0.00  0.00    +0.124 A 
ENDBRANCH   8  24
ENDBRANCH  15   7
ENDBRANCH  12  15
ENDBRANCH   9  12
BRANCH  10  16
ATOM     16  C   UNL     1      -4.882   4.305  24.727  0.00  0.00    +0.124 C 
BRANCH  16  22
ATOM      5  O   UNL     1      -3.267   4.481  26.544  0.00  0.00    -0.251 OA
ATOM     22  C   UNL     1      -3.561   4.630  25.368  0.00  0.00    +0.305 C 
BRANCH  22   3
ATOM      3  O   UNL     1      -2.710   5.129  24.436  0.00  0.00    -0.481 OA
ATOM     33  H   UNL     1      -1.791   5.188  24.773  0.00  0.00    +0.295 HD
ENDBRANCH  22   3
ENDBRANCH  16  22
ENDBRANCH  10  16
TORSDOF 8
ENDMDL
MODEL 5
REMARK VINA RESULT:       5.5      1.321      1.907
REMARK  Name = 28959956
REMARK  8 active torsions:
REMARK  status: ('A' for Active; 'I' for Inactive)
REMARK    1  A    between atoms: O_3  and  C_22
REMARK    2  A    between atoms: N_7  and  C_15
REMARK    3  A    between atoms: N_8  and  C_24
REMARK    4  A    between atoms: C_9  and  C_12
REMARK    5  A    between atoms: C_10  and  C_16
REMARK    6  A    between atoms: C_12  and  C_15
REMARK    7  A    between atoms: C_16  and  C_22
REMARK    8  A    between atoms: C_21  and  C_23
REMARK                            x       y       z     vdW  Elec       q    Type
REMARK                         _______ _______ _______ _____ _____    ______ ____
ROOT
ATOM      4  O   UNL     1      -4.216   3.041  22.585  0.00  0.00    -0.269 OA
ATOM      6  N   UNL     1      -4.296   1.765  24.545  0.00  0.00    -0.297 N 
ATOM      9  C   UNL     1      -3.231   0.147  26.101  0.00  0.00    +0.011 C 
ATOM     10  C   UNL     1      -4.159  -0.956  25.527  0.00  0.00    +0.006 C 
ATOM     11  C   UNL     1      -3.895   1.527  25.938  0.00  0.00    +0.112 C 
ATOM     13  C   UNL     1      -4.589  -0.638  24.085  0.00  0.00    +0.023 C 
ATOM     14  C   UNL     1      -5.196   0.759  23.985  0.00  0.00    +0.108 C 
ATOM     21  C   UNL     1      -3.887   2.841  23.754  0.00  0.00    +0.253 C 
ENDROOT
BRANCH  21  23
ATOM      1  S   UNL     1      -3.611   4.971  25.461  0.00  0.00    -0.092 S 
ATOM     23  C   UNL     1      -2.983   3.831  24.349  0.00  0.00    +0.074 A 
ATOM     25  C   UNL     1      -1.631   4.000  24.144  0.00  0.00    +0.021 A 
ATOM     28  C   UNL     1      -1.105   5.079  24.910  0.00  0.00    +0.008 A 
ATOM     31  C   UNL     1      -2.074   5.694  25.672  0.00  0.00    +0.046 A 
ENDBRANCH  21  23
BRANCH   9  12
ATOM     12  C   UNL     1      -1.825   0.157  25.491  0.00  0.00    +0.020 C 
BRANCH  12  15
ATOM     15  C   UNL     1      -1.870   0.572  24.027  0.00  0.00    +0.085 C 
BRANCH  15   7
ATOM      7  N   UNL     1      -0.517   0.594  23.475  0.00  0.00    -0.299 NA
ATOM      8  N   UNL     1       2.296   0.090  23.444  0.00  0.00    -0.327 N 
ATOM     17  C   UNL     1      -0.008  -0.772  23.305  0.00  0.00    +0.103 C 
ATOM     18  C   UNL     1       0.384   1.356  24.349  0.00  0.00    +0.103 C 
ATOM     19  C   UNL     1       1.387  -0.767  22.675  0.00  0.00    +0.120 C 
ATOM     20  C   UNL     1       1.791   1.434  23.753  0.00  0.00    +0.120 C 
BRANCH   8  24
ATOM      2  F   UNL     1       7.762  -0.591  22.975  0.00  0.00    -0.205 F 
ATOM     24  C   UNL     1       3.679  -0.082  23.326  0.00  0.00    +0.030 A 
ATOM     26  C   UNL     1       4.450   0.887  22.684  0.00  0.00    +0.026 A 
ATOM     27  C   UNL     1       4.288  -1.224  23.848  0.00  0.00    +0.026 A 
ATOM     29  C   UNL     1       5.829   0.716  22.566  0.00  0.00    +0.040 A 
ATOM     30  C   UNL     1       5.666  -1.395  23.729  0.00  0.00    +0.040 A 
ATOM     32  C   UNL     1       6.437  -0.425  23.089  0.00  0.00    +0.124 A 
ENDBRANCH   8  24
ENDBRANCH  15   7
ENDBRANCH  12  15
ENDBRANCH   9  12
BRANCH  10  16
ATOM     16  C   UNL     1      -3.551  -2.355  25.612  0.00  0.00    +0.124 C 
BRANCH  16  22
ATOM      5  O   UNL     1      -4.224  -3.379  23.505  0.00  0.00    -0.251 OA
ATOM     22  C   UNL     1      -3.351  -2.957  24.248  0.00  0.00    +0.305 C 
BRANCH  22   3
ATOM      3  O   UNL     1      -2.029  -2.972  23.943  0.00  0.00    -0.481 OA
ATOM     33  H   UNL     1      -1.603  -2.105  24.117  0.00  0.00    +0.295 HD
ENDBRANCH  22   3
ENDBRANCH  16  22
ENDBRANCH  10  16
TORSDOF 8
ENDMDL
