MODEL 1
REMARK VINA RESULT:      -6.1      0.000      0.000
REMARK  Name = 75367091
REMARK  8 active torsions:
REMARK  status: ('A' for Active; 'I' for Inactive)
REMARK    1  A    between atoms: O_3  and  C_8
REMARK    2  A    between atoms: N_5  and  C_7
REMARK    3  A    between atoms: N_5  and  C_12
REMARK    4  A    between atoms: N_6  and  C_11
REMARK    5  A    between atoms: C_9  and  C_11
REMARK    6  A    between atoms: C_12  and  C_13
REMARK    7  A    between atoms: C_14  and  C_17
REMARK    8  A    between atoms: C_20  and  C_23
REMARK                            x       y       z     vdW  Elec       q    Type
REMARK                         _______ _______ _______ _____ _____    ______ ____
ROOT
ATOM      2  O   UNL     1      -1.878  -0.594  25.834  0.00  0.00    -0.371 OA
ATOM      7  C   UNL     1      -3.912  -1.328  24.872  0.00  0.00    +0.111 C 
ATOM      8  C   UNL     1      -2.775  -2.008  24.131  0.00  0.00    +0.164 C 
ATOM      9  C   UNL     1      -1.509  -1.326  24.650  0.00  0.00    +0.165 C 
ATOM     10  C   UNL     1      -3.236  -0.908  26.166  0.00  0.00    +0.181 C 
ENDROOT
BRANCH   8   3
ATOM      3  O   UNL     1      -2.759  -3.382  24.523  0.00  0.00    -0.388 OA
ATOM     28  H   UNL     1      -1.901  -3.752  24.251  0.00  0.00    +0.210 HD
ENDBRANCH   8   3
BRANCH   7   5
ATOM      5  N   UNL     1      -4.409  -0.162  24.145  0.00  0.00    -0.305 NA
ATOM     27  H   UNL     1      -3.659   0.215  23.565  0.00  0.00    +0.123 HD
BRANCH   5  12
ATOM     12  C   UNL     1      -4.851   0.880  25.064  0.00  0.00    +0.116 C 
BRANCH  12  13
ATOM     13  C   UNL     1      -3.924   2.067  25.055  0.00  0.00    -0.034 A 
ATOM     15  C   UNL     1      -2.912   2.153  24.099  0.00  0.00    +0.005 A 
ATOM     16  C   UNL     1      -4.078   3.079  26.002  0.00  0.00    +0.005 A 
ATOM     18  C   UNL     1      -2.052   3.251  24.092  0.00  0.00    +0.003 A 
ATOM     19  C   UNL     1      -3.218   4.177  25.995  0.00  0.00    +0.003 A 
ATOM     20  C   UNL     1      -2.205   4.264  25.040  0.00  0.00    -0.050 A 
ATOM     23  C   UNL     1      -1.285   5.438  25.031  0.00  0.00    +0.044 C 
ENDBRANCH  12  13
ENDBRANCH   5  12
ENDBRANCH   7   5
BRANCH   9  11
ATOM     11  C   UNL     1      -0.892  -0.352  23.658  0.00  0.00    +0.138 C 
BRANCH  11   6
ATOM      4  O   UNL     1       1.058  -0.351  21.550  0.00  0.00    -0.270 OA
ATOM      6  N   UNL     1       0.533  -0.286  23.810  0.00  0.00    -0.309 N 
ATOM     14  C   UNL     1       1.406  -0.290  22.727  0.00  0.00    +0.244 C 
ATOM     29  H   UNL     1       0.891  -0.317  24.758  0.00  0.00    +0.149 HD
BRANCH  14  17
ATOM      1  F   UNL     1       6.881  -0.115  23.962  0.00  0.00    -0.205 F 
ATOM     17  C   UNL     1       2.855  -0.244  23.053  0.00  0.00    +0.037 A 
ATOM     21  C   UNL     1       3.593   0.909  22.786  0.00  0.00    +0.016 A 
ATOM     22  C   UNL     1       3.477  -1.353  23.627  0.00  0.00    +0.016 A 
ATOM     24  C   UNL     1       4.954   0.953  23.093  0.00  0.00    +0.039 A 
ATOM     25  C   UNL     1       4.837  -1.309  23.934  0.00  0.00    +0.039 A 
ATOM     26  C   UNL     1       5.575  -0.157  23.666  0.00  0.00    +0.123 A 
ENDBRANCH  14  17
ENDBRANCH  11   6
ENDBRANCH   9  11
TORSDOF 7
ENDMDL
MODEL 2
REMARK VINA RESULT:      -5.6      1.790      4.039
REMARK  Name = 75367091
REMARK  8 active torsions:
REMARK  status: ('A' for Active; 'I' for Inactive)
REMARK    1  A    between atoms: O_3  and  C_8
REMARK    2  A    between atoms: N_5  and  C_7
REMARK    3  A    between atoms: N_5  and  C_12
REMARK    4  A    between atoms: N_6  and  C_11
REMARK    5  A    between atoms: C_9  and  C_11
REMARK    6  A    between atoms: C_12  and  C_13
REMARK    7  A    between atoms: C_14  and  C_17
REMARK    8  A    between atoms: C_20  and  C_23
REMARK                            x       y       z     vdW  Elec       q    Type
REMARK                         _______ _______ _______ _____ _____    ______ ____
ROOT
ATOM      2  O   UNL     1      -2.493   2.510  23.093  0.00  0.00    -0.371 OA
ATOM      7  C   UNL     1      -3.148   3.634  25.070  0.00  0.00    +0.111 C 
ATOM      8  C   UNL     1      -1.635   3.511  25.083  0.00  0.00    +0.164 C 
ATOM      9  C   UNL     1      -1.307   2.594  23.905  0.00  0.00    +0.165 C 
ATOM     10  C   UNL     1      -3.465   3.433  23.598  0.00  0.00    +0.181 C 
ENDROOT
BRANCH   8   3
ATOM      3  O   UNL     1      -1.090   4.808  24.830  0.00  0.00    -0.388 OA
ATOM     28  H   UNL     1      -1.227   5.002  23.886  0.00  0.00    +0.210 HD
ENDBRANCH   8   3
BRANCH   7   5
ATOM      5  N   UNL     1      -3.779   2.596  25.882  0.00  0.00    -0.305 NA
ATOM     27  H   UNL     1      -3.062   1.959  26.229  0.00  0.00    +0.123 HD
BRANCH   5  12
ATOM     12  C   UNL     1      -4.738   1.827  25.097  0.00  0.00    +0.116 C 
BRANCH  12  13
ATOM     13  C   UNL     1      -4.326   0.385  24.962  0.00  0.00    -0.034 A 
ATOM     15  C   UNL     1      -4.604  -0.311  23.786  0.00  0.00    +0.005 A 
ATOM     16  C   UNL     1      -3.666  -0.253  26.013  0.00  0.00    +0.005 A 
ATOM     18  C   UNL     1      -4.224  -1.648  23.661  0.00  0.00    +0.003 A 
ATOM     19  C   UNL     1      -3.286  -1.589  25.888  0.00  0.00    +0.003 A 
ATOM     20  C   UNL     1      -3.564  -2.287  24.712  0.00  0.00    -0.050 A 
ATOM     23  C   UNL     1      -3.159  -3.716  24.578  0.00  0.00    +0.044 C 
ENDBRANCH  12  13
ENDBRANCH   5  12
ENDBRANCH   7   5
BRANCH   9  11
ATOM     11  C   UNL     1      -0.913   1.185  24.323  0.00  0.00    +0.138 C 
BRANCH  11   6
ATOM      4  O   UNL     1       0.432  -0.381  22.327  0.00  0.00    -0.270 OA
ATOM      6  N   UNL     1       0.502   0.983  24.203  0.00  0.00    -0.309 N 
ATOM     14  C   UNL     1       1.070   0.205  23.199  0.00  0.00    +0.244 C 
ATOM     29  H   UNL     1       1.081   1.371  24.940  0.00  0.00    +0.149 HD
BRANCH  14  17
ATOM      1  F   UNL     1       6.661  -0.294  23.315  0.00  0.00    -0.205 F 
ATOM     17  C   UNL     1       2.549   0.072  23.228  0.00  0.00    +0.037 A 
ATOM     21  C   UNL     1       3.353   1.132  22.807  0.00  0.00    +0.016 A 
ATOM     22  C   UNL     1       3.135  -1.111  23.680  0.00  0.00    +0.016 A 
ATOM     24  C   UNL     1       4.742   1.008  22.836  0.00  0.00    +0.039 A 
ATOM     25  C   UNL     1       4.525  -1.234  23.709  0.00  0.00    +0.039 A 
ATOM     26  C   UNL     1       5.327  -0.176  23.286  0.00  0.00    +0.123 A 
ENDBRANCH  14  17
ENDBRANCH  11   6
ENDBRANCH   9  11
TORSDOF 7
ENDMDL
MODEL 3
REMARK VINA RESULT:      -5.3      3.775      6.474
REMARK  Name = 75367091
REMARK  8 active torsions:
REMARK  status: ('A' for Active; 'I' for Inactive)
REMARK    1  A    between atoms: O_3  and  C_8
REMARK    2  A    between atoms: N_5  and  C_7
REMARK    3  A    between atoms: N_5  and  C_12
REMARK    4  A    between atoms: N_6  and  C_11
REMARK    5  A    between atoms: C_9  and  C_11
REMARK    6  A    between atoms: C_12  and  C_13
REMARK    7  A    between atoms: C_14  and  C_17
REMARK    8  A    between atoms: C_20  and  C_23
REMARK                            x       y       z     vdW  Elec       q    Type
REMARK                         _______ _______ _______ _____ _____    ______ ____
ROOT
ATOM      2  O   UNL     1      -2.221  -3.212  24.288  0.00  0.00    -0.371 OA
ATOM      7  C   UNL     1      -0.953  -1.435  25.204  0.00  0.00    +0.111 C 
ATOM      8  C   UNL     1      -2.377  -1.302  25.712  0.00  0.00    +0.164 C 
ATOM      9  C   UNL     1      -3.174  -2.334  24.915  0.00  0.00    +0.165 C 
ATOM     10  C   UNL     1      -0.911  -2.891  24.771  0.00  0.00    +0.181 C 
ENDROOT
BRANCH   8   3
ATOM      3  O   UNL     1      -2.384  -1.672  27.093  0.00  0.00    -0.388 OA
ATOM     28  H   UNL     1      -2.389  -2.644  27.133  0.00  0.00    +0.210 HD
ENDBRANCH   8   3
BRANCH   7   5
ATOM      5  N   UNL     1      -0.701  -0.550  24.069  0.00  0.00    -0.305 NA
ATOM     27  H   UNL     1      -0.422  -1.110  23.263  0.00  0.00    +0.123 HD
BRANCH   5  12
ATOM     12  C   UNL     1       0.369   0.394  24.368  0.00  0.00    +0.116 C 
BRANCH  12  13
ATOM     13  C   UNL     1      -0.161   1.782  24.618  0.00  0.00    -0.034 A 
ATOM     15  C   UNL     1      -0.846   2.064  25.799  0.00  0.00    +0.005 A 
ATOM     16  C   UNL     1       0.034   2.784  23.666  0.00  0.00    +0.005 A 
ATOM     18  C   UNL     1      -1.339   3.348  26.029  0.00  0.00    +0.003 A 
ATOM     19  C   UNL     1      -0.458   4.068  23.897  0.00  0.00    +0.003 A 
ATOM     20  C   UNL     1      -1.145   4.351  25.078  0.00  0.00    -0.050 A 
ATOM     23  C   UNL     1      -1.672   5.724  25.325  0.00  0.00    +0.044 C 
ENDBRANCH  12  13
ENDBRANCH   5  12
ENDBRANCH   7   5
BRANCH   9  11
ATOM     11  C   UNL     1      -4.048  -1.723  23.830  0.00  0.00    +0.138 C 
BRANCH  11   6
ATOM      4  O   UNL     1      -2.959   0.832  23.101  0.00  0.00    -0.270 OA
ATOM      6  N   UNL     1      -4.545  -0.436  24.224  0.00  0.00    -0.309 N 
ATOM     14  C   UNL     1      -3.952   0.756  23.821  0.00  0.00    +0.244 C 
ATOM     29  H   UNL     1      -5.313  -0.429  24.887  0.00  0.00    +0.149 HD
BRANCH  14  17
ATOM      1  F   UNL     1      -6.287   5.473  25.775  0.00  0.00    -0.205 F 
ATOM     17  C   UNL     1      -4.570   2.004  24.337  0.00  0.00    +0.037 A 
ATOM     21  C   UNL     1      -5.571   1.937  25.307  0.00  0.00    +0.016 A 
ATOM     22  C   UNL     1      -4.149   3.243  23.855  0.00  0.00    +0.016 A 
ATOM     24  C   UNL     1      -6.152   3.109  25.792  0.00  0.00    +0.039 A 
ATOM     25  C   UNL     1      -4.729   4.415  24.340  0.00  0.00    +0.039 A 
ATOM     26  C   UNL     1      -5.731   4.348  25.308  0.00  0.00    +0.123 A 
ENDBRANCH  14  17
ENDBRANCH  11   6
ENDBRANCH   9  11
TORSDOF 7
ENDMDL
MODEL 4
REMARK VINA RESULT:      -4.8      3.601      6.800
REMARK  Name = 75367091
REMARK  8 active torsions:
REMARK  status: ('A' for Active; 'I' for Inactive)
REMARK    1  A    between atoms: O_3  and  C_8
REMARK    2  A    between atoms: N_5  and  C_7
REMARK    3  A    between atoms: N_5  and  C_12
REMARK    4  A    between atoms: N_6  and  C_11
REMARK    5  A    between atoms: C_9  and  C_11
REMARK    6  A    between atoms: C_12  and  C_13
REMARK    7  A    between atoms: C_14  and  C_17
REMARK    8  A    between atoms: C_20  and  C_23
REMARK                            x       y       z     vdW  Elec       q    Type
REMARK                         _______ _______ _______ _____ _____    ______ ____
ROOT
ATOM      2  O   UNL     1      -4.189   4.404  25.725  0.00  0.00    -0.371 OA
ATOM      7  C   UNL     1      -1.957   3.724  26.124  0.00  0.00    +0.111 C 
ATOM      8  C   UNL     1      -1.993   4.448  24.790  0.00  0.00    +0.164 C 
ATOM      9  C   UNL     1      -3.479   4.657  24.499  0.00  0.00    +0.165 C 
ATOM     10  C   UNL     1      -3.238   4.214  26.779  0.00  0.00    +0.181 C 
ENDROOT
BRANCH   8   3
ATOM      3  O   UNL     1      -1.369   5.721  24.968  0.00  0.00    -0.388 OA
ATOM     28  H   UNL     1      -0.739   5.841  24.236  0.00  0.00    +0.210 HD
ENDBRANCH   8   3
BRANCH   7   5
ATOM      5  N   UNL     1      -1.986   2.274  25.951  0.00  0.00    -0.305 NA
ATOM     27  H   UNL     1      -2.663   1.872  26.600  0.00  0.00    +0.123 HD
BRANCH   5  12
ATOM     12  C   UNL     1      -0.680   1.687  26.224  0.00  0.00    +0.116 C 
BRANCH  12  13
ATOM     13  C   UNL     1      -0.068   1.079  24.990  0.00  0.00    -0.034 A 
ATOM     15  C   UNL     1       0.902   1.780  24.275  0.00  0.00    +0.005 A 
ATOM     16  C   UNL     1      -0.474  -0.186  24.561  0.00  0.00    +0.005 A 
ATOM     18  C   UNL     1       1.467   1.218  23.131  0.00  0.00    +0.003 A 
ATOM     19  C   UNL     1       0.091  -0.747  23.417  0.00  0.00    +0.003 A 
ATOM     20  C   UNL     1       1.062  -0.046  22.701  0.00  0.00    -0.050 A 
ATOM     23  C   UNL     1       1.667  -0.646  21.477  0.00  0.00    +0.044 C 
ENDBRANCH  12  13
ENDBRANCH   5  12
ENDBRANCH   7   5
BRANCH   9  11
ATOM     11  C   UNL     1      -4.027   3.727  23.428  0.00  0.00    +0.138 C 
BRANCH  11   6
ATOM      4  O   UNL     1      -5.836   1.879  24.676  0.00  0.00    -0.270 OA
ATOM      6  N   UNL     1      -3.764   2.353  23.747  0.00  0.00    -0.309 N 
ATOM     14  C   UNL     1      -4.705   1.527  24.354  0.00  0.00    +0.244 C 
ATOM     29  H   UNL     1      -2.819   2.021  23.583  0.00  0.00    +0.149 HD
BRANCH  14  17
ATOM      1  F   UNL     1      -3.059  -3.729  25.447  0.00  0.00    -0.205 F 
ATOM     17  C   UNL     1      -4.268   0.137  24.643  0.00  0.00    +0.037 A 
ATOM     21  C   UNL     1      -3.856  -0.212  25.930  0.00  0.00    +0.016 A 
ATOM     22  C   UNL     1      -4.272  -0.821  23.629  0.00  0.00    +0.016 A 
ATOM     24  C   UNL     1      -3.446  -1.518  26.201  0.00  0.00    +0.039 A 
ATOM     25  C   UNL     1      -3.863  -2.127  23.901  0.00  0.00    +0.039 A 
ATOM     26  C   UNL     1      -3.450  -2.475  25.186  0.00  0.00    +0.123 A 
ENDBRANCH  14  17
ENDBRANCH  11   6
ENDBRANCH   9  11
TORSDOF 7
ENDMDL
MODEL 5
REMARK VINA RESULT:      -4.8      2.942      5.088
REMARK  Name = 75367091
REMARK  8 active torsions:
REMARK  status: ('A' for Active; 'I' for Inactive)
REMARK    1  A    between atoms: O_3  and  C_8
REMARK    2  A    between atoms: N_5  and  C_7
REMARK    3  A    between atoms: N_5  and  C_12
REMARK    4  A    between atoms: N_6  and  C_11
REMARK    5  A    between atoms: C_9  and  C_11
REMARK    6  A    between atoms: C_12  and  C_13
REMARK    7  A    between atoms: C_14  and  C_17
REMARK    8  A    between atoms: C_20  and  C_23
REMARK                            x       y       z     vdW  Elec       q    Type
REMARK                         _______ _______ _______ _____ _____    ______ ____
ROOT
ATOM      2  O   UNL     1      -3.946   3.313  24.039  0.00  0.00    -0.371 OA
ATOM      7  C   UNL     1      -5.691   2.194  25.181  0.00  0.00    +0.111 C 
ATOM      8  C   UNL     1      -5.343   3.443  25.970  0.00  0.00    +0.164 C 
ATOM      9  C   UNL     1      -4.080   3.987  25.304  0.00  0.00    +0.165 C 
ATOM     10  C   UNL     1      -5.116   2.520  23.812  0.00  0.00    +0.181 C 
ENDROOT
BRANCH   8   3
ATOM      3  O   UNL     1      -6.406   4.382  25.791  0.00  0.00    -0.388 OA
ATOM     28  H   UNL     1      -6.433   4.613  24.846  0.00  0.00    +0.210 HD
ENDBRANCH   8   3
BRANCH   7   5
ATOM      5  N   UNL     1      -5.051   1.007  25.742  0.00  0.00    -0.305 NA
ATOM     27  H   UNL     1      -4.155   1.271  26.152  0.00  0.00    +0.123 HD
BRANCH   5  12
ATOM     12  C   UNL     1      -4.808   0.005  24.711  0.00  0.00    +0.116 C 
BRANCH  12  13
ATOM     13  C   UNL     1      -3.492  -0.700  24.911  0.00  0.00    -0.034 A 
ATOM     15  C   UNL     1      -2.568  -0.203  25.830  0.00  0.00    +0.005 A 
ATOM     16  C   UNL     1      -3.197  -1.848  24.175  0.00  0.00    +0.005 A 
ATOM     18  C   UNL     1      -1.349  -0.854  26.014  0.00  0.00    +0.003 A 
ATOM     19  C   UNL     1      -1.977  -2.498  24.358  0.00  0.00    +0.003 A 
ATOM     20  C   UNL     1      -1.053  -2.002  25.278  0.00  0.00    -0.050 A 
ATOM     23  C   UNL     1       0.252  -2.697  25.475  0.00  0.00    +0.044 C 
ENDBRANCH  12  13
ENDBRANCH   5  12
ENDBRANCH   7   5
BRANCH   9  11
ATOM     11  C   UNL     1      -2.814   3.745  26.111  0.00  0.00    +0.138 C 
BRANCH  11   6
ATOM      4  O   UNL     1      -0.572   4.376  24.432  0.00  0.00    -0.270 OA
ATOM      6  N   UNL     1      -1.946   2.811  25.453  0.00  0.00    -0.309 N 
ATOM     14  C   UNL     1      -0.878   3.208  24.655  0.00  0.00    +0.244 C 
ATOM     29  H   UNL     1      -2.194   1.830  25.528  0.00  0.00    +0.149 HD
BRANCH  14  17
ATOM      1  F   UNL     1       2.096  -0.908  22.259  0.00  0.00    -0.205 F 
ATOM     17  C   UNL     1      -0.092   2.118  24.022  0.00  0.00    +0.037 A 
ATOM     21  C   UNL     1      -0.741   1.123  23.292  0.00  0.00    +0.016 A 
ATOM     22  C   UNL     1       1.297   2.092  24.155  0.00  0.00    +0.016 A 
ATOM     24  C   UNL     1      -0.003   0.099  22.697  0.00  0.00    +0.039 A 
ATOM     25  C   UNL     1       2.036   1.068  23.560  0.00  0.00    +0.039 A 
ATOM     26  C   UNL     1       1.386   0.073  22.831  0.00  0.00    +0.123 A 
ENDBRANCH  14  17
ENDBRANCH  11   6
ENDBRANCH   9  11
TORSDOF 7
ENDMDL
MODEL 6
REMARK VINA RESULT:      -4.8      3.870      6.227
REMARK  Name = 75367091
REMARK  8 active torsions:
REMARK  status: ('A' for Active; 'I' for Inactive)
REMARK    1  A    between atoms: O_3  and  C_8
REMARK    2  A    between atoms: N_5  and  C_7
REMARK    3  A    between atoms: N_5  and  C_12
REMARK    4  A    between atoms: N_6  and  C_11
REMARK    5  A    between atoms: C_9  and  C_11
REMARK    6  A    between atoms: C_12  and  C_13
REMARK    7  A    between atoms: C_14  and  C_17
REMARK    8  A    between atoms: C_20  and  C_23
REMARK                            x       y       z     vdW  Elec       q    Type
REMARK                         _______ _______ _______ _____ _____    ______ ____
ROOT
ATOM      2  O   UNL     1      -1.514  -1.957  23.517  0.00  0.00    -0.371 OA
ATOM      7  C   UNL     1      -0.235  -0.592  24.966  0.00  0.00    +0.111 C 
ATOM      8  C   UNL     1      -0.512  -1.901  25.683  0.00  0.00    +0.164 C 
ATOM      9  C   UNL     1      -1.514  -2.630  24.789  0.00  0.00    +0.165 C 
ATOM     10  C   UNL     1      -0.472  -0.974  23.515  0.00  0.00    +0.181 C 
ENDROOT
BRANCH   8   3
ATOM      3  O   UNL     1       0.708  -2.644  25.720  0.00  0.00    -0.388 OA
ATOM     28  H   UNL     1       1.135  -2.460  26.574  0.00  0.00    +0.210 HD
ENDBRANCH   8   3
BRANCH   7   5
ATOM      5  N   UNL     1      -1.161   0.458  25.383  0.00  0.00    -0.305 NA
ATOM     27  H   UNL     1      -1.554   0.907  24.555  0.00  0.00    +0.123 HD
BRANCH   5  12
ATOM     12  C   UNL     1      -0.482   1.472  26.179  0.00  0.00    +0.116 C 
BRANCH  12  13
ATOM     13  C   UNL     1      -0.887   2.866  25.779  0.00  0.00    -0.034 A 
ATOM     15  C   UNL     1      -1.964   3.487  26.410  0.00  0.00    +0.005 A 
ATOM     16  C   UNL     1      -0.186   3.535  24.775  0.00  0.00    +0.005 A 
ATOM     18  C   UNL     1      -2.342   4.777  26.037  0.00  0.00    +0.003 A 
ATOM     19  C   UNL     1      -0.563   4.825  24.402  0.00  0.00    +0.003 A 
ATOM     20  C   UNL     1      -1.641   5.447  25.033  0.00  0.00    -0.050 A 
ATOM     23  C   UNL     1      -2.045   6.826  24.635  0.00  0.00    +0.044 C 
ENDBRANCH  12  13
ENDBRANCH   5  12
ENDBRANCH   7   5
BRANCH   9  11
ATOM     11  C   UNL     1      -2.934  -2.623  25.334  0.00  0.00    +0.138 C 
BRANCH  11   6
ATOM      4  O   UNL     1      -4.448  -1.180  23.366  0.00  0.00    -0.270 OA
ATOM      6  N   UNL     1      -3.440  -1.286  25.454  0.00  0.00    -0.309 N 
ATOM     14  C   UNL     1      -4.168  -0.662  24.445  0.00  0.00    +0.244 C 
ATOM     29  H   UNL     1      -3.173  -0.772  26.286  0.00  0.00    +0.149 HD
BRANCH  14  17
ATOM      1  F   UNL     1      -5.794   4.616  25.455  0.00  0.00    -0.205 F 
ATOM     17  C   UNL     1      -4.597   0.734  24.713  0.00  0.00    +0.037 A 
ATOM     21  C   UNL     1      -4.109   1.777  23.925  0.00  0.00    +0.016 A 
ATOM     22  C   UNL     1      -5.490   1.003  25.751  0.00  0.00    +0.016 A 
ATOM     24  C   UNL     1      -4.513   3.089  24.176  0.00  0.00    +0.039 A 
ATOM     25  C   UNL     1      -5.894   2.315  26.002  0.00  0.00    +0.039 A 
ATOM     26  C   UNL     1      -5.405   3.357  25.215  0.00  0.00    +0.123 A 
ENDBRANCH  14  17
ENDBRANCH  11   6
ENDBRANCH   9  11
TORSDOF 7
ENDMDL
MODEL 7
REMARK VINA RESULT:      -4.4      3.289      4.383
REMARK  Name = 75367091
REMARK  8 active torsions:
REMARK  status: ('A' for Active; 'I' for Inactive)
REMARK    1  A    between atoms: O_3  and  C_8
REMARK    2  A    between atoms: N_5  and  C_7
REMARK    3  A    between atoms: N_5  and  C_12
REMARK    4  A    between atoms: N_6  and  C_11
REMARK    5  A    between atoms: C_9  and  C_11
REMARK    6  A    between atoms: C_12  and  C_13
REMARK    7  A    between atoms: C_14  and  C_17
REMARK    8  A    between atoms: C_20  and  C_23
REMARK                            x       y       z     vdW  Elec       q    Type
REMARK                         _______ _______ _______ _____ _____    ______ ____
ROOT
ATOM      2  O   UNL     1      -1.725  -1.332  26.124  0.00  0.00    -0.371 OA
ATOM      7  C   UNL     1      -3.744  -1.764  24.967  0.00  0.00    +0.111 C 
ATOM      8  C   UNL     1      -2.635  -2.536  24.274  0.00  0.00    +0.164 C 
ATOM      9  C   UNL     1      -1.347  -2.040  24.929  0.00  0.00    +0.165 C 
ATOM     10  C   UNL     1      -3.132  -1.497  26.332  0.00  0.00    +0.181 C 
ENDROOT
BRANCH   8   3
ATOM      3  O   UNL     1      -2.812  -3.921  24.581  0.00  0.00    -0.388 OA
ATOM     28  H   UNL     1      -3.174  -4.351  23.787  0.00  0.00    +0.210 HD
ENDBRANCH   8   3
BRANCH   7   5
ATOM      5  N   UNL     1      -4.039  -0.511  24.277  0.00  0.00    -0.305 NA
ATOM     27  H   UNL     1      -3.168  -0.098  23.943  0.00  0.00    +0.123 HD
BRANCH   5  12
ATOM     12  C   UNL     1      -4.687   0.441  25.173  0.00  0.00    +0.116 C 
BRANCH  12  13
ATOM     13  C   UNL     1      -4.541   1.859  24.686  0.00  0.00    -0.034 A 
ATOM     15  C   UNL     1      -5.057   2.911  25.441  0.00  0.00    +0.005 A 
ATOM     16  C   UNL     1      -3.891   2.118  23.479  0.00  0.00    +0.005 A 
ATOM     18  C   UNL     1      -4.924   4.224  24.990  0.00  0.00    +0.003 A 
ATOM     19  C   UNL     1      -3.758   3.431  23.028  0.00  0.00    +0.003 A 
ATOM     20  C   UNL     1      -4.274   4.484  23.783  0.00  0.00    -0.050 A 
ATOM     23  C   UNL     1      -4.132   5.888  23.301  0.00  0.00    +0.044 C 
ENDBRANCH  12  13
ENDBRANCH   5  12
ENDBRANCH   7   5
BRANCH   9  11
ATOM     11  C   UNL     1      -0.541  -1.098  24.048  0.00  0.00    +0.138 C 
BRANCH  11   6
ATOM      4  O   UNL     1       1.268   1.132  24.011  0.00  0.00    -0.270 OA
ATOM      6  N   UNL     1      -0.865   0.274  24.319  0.00  0.00    -0.309 N 
ATOM     14  C   UNL     1       0.080   1.294  24.277  0.00  0.00    +0.244 C 
ATOM     29  H   UNL     1      -1.813   0.464  24.627  0.00  0.00    +0.149 HD
BRANCH  14  17
ATOM      1  F   UNL     1      -1.770   6.444  25.533  0.00  0.00    -0.205 F 
ATOM     17  C   UNL     1      -0.411   2.656  24.609  0.00  0.00    +0.037 A 
ATOM     21  C   UNL     1      -1.170   2.863  25.761  0.00  0.00    +0.016 A 
ATOM     22  C   UNL     1      -0.109   3.730  23.770  0.00  0.00    +0.016 A 
ATOM     24  C   UNL     1      -1.630   4.143  26.073  0.00  0.00    +0.039 A 
ATOM     25  C   UNL     1      -0.570   5.009  24.082  0.00  0.00    +0.039 A 
ATOM     26  C   UNL     1      -1.330   5.215  25.233  0.00  0.00    +0.123 A 
ENDBRANCH  14  17
ENDBRANCH  11   6
ENDBRANCH   9  11
TORSDOF 7
ENDMDL
MODEL 8
REMARK VINA RESULT:      -4.0      3.709      6.866
REMARK  Name = 75367091
REMARK  8 active torsions:
REMARK  status: ('A' for Active; 'I' for Inactive)
REMARK    1  A    between atoms: O_3  and  C_8
REMARK    2  A    between atoms: N_5  and  C_7
REMARK    3  A    between atoms: N_5  and  C_12
REMARK    4  A    between atoms: N_6  and  C_11
REMARK    5  A    between atoms: C_9  and  C_11
REMARK    6  A    between atoms: C_12  and  C_13
REMARK    7  A    between atoms: C_14  and  C_17
REMARK    8  A    between atoms: C_20  and  C_23
REMARK                            x       y       z     vdW  Elec       q    Type
REMARK                         _______ _______ _______ _____ _____    ______ ____
ROOT
ATOM      2  O   UNL     1      -2.643   3.662  26.655  0.00  0.00    -0.371 OA
ATOM      7  C   UNL     1      -1.144   4.296  24.937  0.00  0.00    +0.111 C 
ATOM      8  C   UNL     1      -2.341   5.228  24.878  0.00  0.00    +0.164 C 
ATOM      9  C   UNL     1      -3.351   4.627  25.856  0.00  0.00    +0.165 C 
ATOM     10  C   UNL     1      -1.246   3.745  26.349  0.00  0.00    +0.181 C 
ENDROOT
BRANCH   8   3
ATOM      3  O   UNL     1      -1.924   6.505  25.365  0.00  0.00    -0.388 OA
ATOM     28  H   UNL     1      -2.104   6.525  26.321  0.00  0.00    +0.210 HD
ENDBRANCH   8   3
BRANCH   7   5
ATOM      5  N   UNL     1      -1.249   3.221  23.953  0.00  0.00    -0.305 NA
ATOM     27  H   UNL     1      -1.961   2.557  24.256  0.00  0.00    +0.123 HD
BRANCH   5  12
ATOM     12  C   UNL     1       0.017   2.510  23.816  0.00  0.00    +0.116 C 
BRANCH  12  13
ATOM     13  C   UNL     1      -0.103   1.066  24.228  0.00  0.00    -0.034 A 
ATOM     15  C   UNL     1       0.249   0.056  23.334  0.00  0.00    +0.005 A 
ATOM     16  C   UNL     1      -0.569   0.741  25.502  0.00  0.00    +0.005 A 
ATOM     18  C   UNL     1       0.136  -1.281  23.714  0.00  0.00    +0.003 A 
ATOM     19  C   UNL     1      -0.682  -0.596  25.882  0.00  0.00    +0.003 A 
ATOM     20  C   UNL     1      -0.329  -1.608  24.989  0.00  0.00    -0.050 A 
ATOM     23  C   UNL     1      -0.451  -3.038  25.394  0.00  0.00    +0.044 C 
ENDBRANCH  12  13
ENDBRANCH   5  12
ENDBRANCH   7   5
BRANCH   9  11
ATOM     11  C   UNL     1      -4.513   3.922  25.173  0.00  0.00    +0.138 C 
BRANCH  11   6
ATOM      4  O   UNL     1      -3.708   2.166  23.049  0.00  0.00    -0.270 OA
ATOM      6  N   UNL     1      -4.374   2.496  25.246  0.00  0.00    -0.309 N 
ATOM     14  C   UNL     1      -3.975   1.721  24.162  0.00  0.00    +0.244 C 
ATOM     29  H   UNL     1      -4.660   2.056  26.114  0.00  0.00    +0.149 HD
BRANCH  14  17
ATOM      1  F   UNL     1      -3.706  -3.819  25.037  0.00  0.00    -0.205 F 
ATOM     17  C   UNL     1      -3.906   0.255  24.393  0.00  0.00    +0.037 A 
ATOM     21  C   UNL     1      -3.816  -0.619  23.309  0.00  0.00    +0.016 A 
ATOM     22  C   UNL     1      -3.926  -0.248  25.694  0.00  0.00    +0.016 A 
ATOM     24  C   UNL     1      -3.750  -1.995  23.526  0.00  0.00    +0.039 A 
ATOM     25  C   UNL     1      -3.860  -1.624  25.912  0.00  0.00    +0.039 A 
ATOM     26  C   UNL     1      -3.772  -2.497  24.828  0.00  0.00    +0.123 A 
ENDBRANCH  14  17
ENDBRANCH  11   6
ENDBRANCH   9  11
TORSDOF 7
ENDMDL
MODEL 9
REMARK VINA RESULT:      -4.0      3.822      5.752
REMARK  Name = 75367091
REMARK  8 active torsions:
REMARK  status: ('A' for Active; 'I' for Inactive)
REMARK    1  A    between atoms: O_3  and  C_8
REMARK    2  A    between atoms: N_5  and  C_7
REMARK    3  A    between atoms: N_5  and  C_12
REMARK    4  A    between atoms: N_6  and  C_11
REMARK    5  A    between atoms: C_9  and  C_11
REMARK    6  A    between atoms: C_12  and  C_13
REMARK    7  A    between atoms: C_14  and  C_17
REMARK    8  A    between atoms: C_20  and  C_23
REMARK                            x       y       z     vdW  Elec       q    Type
REMARK                         _______ _______ _______ _____ _____    ______ ____
ROOT
ATOM      2  O   UNL     1       0.144   4.492  25.134  0.00  0.00    -0.371 OA
ATOM      7  C   UNL     1      -2.037   3.930  24.405  0.00  0.00    +0.111 C 
ATOM      8  C   UNL     1      -1.862   3.390  25.813  0.00  0.00    +0.164 C 
ATOM      9  C   UNL     1      -0.380   3.592  26.128  0.00  0.00    +0.165 C 
ATOM     10  C   UNL     1      -0.940   4.980  24.336  0.00  0.00    +0.181 C 
ENDROOT
BRANCH   8   3
ATOM      3  O   UNL     1      -2.641   4.205  26.692  0.00  0.00    -0.388 OA
ATOM     28  H   UNL     1      -3.574   3.959  26.566  0.00  0.00    +0.210 HD
ENDBRANCH   8   3
BRANCH   7   5
ATOM      5  N   UNL     1      -1.824   2.892  23.400  0.00  0.00    -0.305 NA
ATOM     27  H   UNL     1      -1.280   3.279  22.628  0.00  0.00    +0.123 HD
BRANCH   5  12
ATOM     12  C   UNL     1      -3.092   2.405  22.871  0.00  0.00    +0.116 C 
BRANCH  12  13
ATOM     13  C   UNL     1      -4.113   2.202  23.959  0.00  0.00    -0.034 A 
ATOM     15  C   UNL     1      -4.779   3.301  24.503  0.00  0.00    +0.005 A 
ATOM     16  C   UNL     1      -4.392   0.916  24.423  0.00  0.00    +0.005 A 
ATOM     18  C   UNL     1      -5.723   3.114  25.512  0.00  0.00    +0.003 A 
ATOM     19  C   UNL     1      -5.336   0.730  25.432  0.00  0.00    +0.003 A 
ATOM     20  C   UNL     1      -6.002   1.828  25.977  0.00  0.00    -0.050 A 
ATOM     23  C   UNL     1      -7.012   1.629  27.057  0.00  0.00    +0.044 C 
ENDBRANCH  12  13
ENDBRANCH   5  12
ENDBRANCH   7   5
BRANCH   9  11
ATOM     11  C   UNL     1       0.432   2.306  26.085  0.00  0.00    +0.138 C 
BRANCH  11   6
ATOM      4  O   UNL     1       0.286   0.500  23.857  0.00  0.00    -0.270 OA
ATOM      6  N   UNL     1      -0.418   1.156  25.968  0.00  0.00    -0.309 N 
ATOM     14  C   UNL     1      -0.422   0.333  24.846  0.00  0.00    +0.244 C 
ATOM     29  H   UNL     1      -1.088   1.009  26.715  0.00  0.00    +0.149 HD
BRANCH  14  17
ATOM      1  F   UNL     1      -4.041  -3.959  24.935  0.00  0.00    -0.205 F 
ATOM     17  C   UNL     1      -1.381  -0.802  24.869  0.00  0.00    +0.037 A 
ATOM     21  C   UNL     1      -1.354  -1.757  23.852  0.00  0.00    +0.016 A 
ATOM     22  C   UNL     1      -2.305  -0.914  25.908  0.00  0.00    +0.016 A 
ATOM     24  C   UNL     1      -2.254  -2.824  23.874  0.00  0.00    +0.039 A 
ATOM     25  C   UNL     1      -3.204  -1.981  25.929  0.00  0.00    +0.039 A 
ATOM     26  C   UNL     1      -3.179  -2.935  24.913  0.00  0.00    +0.123 A 
ENDBRANCH  14  17
ENDBRANCH  11   6
ENDBRANCH   9  11
TORSDOF 7
ENDMDL
MODEL 10
REMARK VINA RESULT:      -4.0      3.069      7.234
REMARK  Name = 75367091
REMARK  8 active torsions:
REMARK  status: ('A' for Active; 'I' for Inactive)
REMARK    1  A    between atoms: O_3  and  C_8
REMARK    2  A    between atoms: N_5  and  C_7
REMARK    3  A    between atoms: N_5  and  C_12
REMARK    4  A    between atoms: N_6  and  C_11
REMARK    5  A    between atoms: C_9  and  C_11
REMARK    6  A    between atoms: C_12  and  C_13
REMARK    7  A    between atoms: C_14  and  C_17
REMARK    8  A    between atoms: C_20  and  C_23
REMARK                            x       y       z     vdW  Elec       q    Type
REMARK                         _______ _______ _______ _____ _____    ______ ____
ROOT
ATOM      2  O   UNL     1      -1.198   3.270  26.393  0.00  0.00    -0.371 OA
ATOM      7  C   UNL     1       0.195   2.424  24.676  0.00  0.00    +0.111 C 
ATOM      8  C   UNL     1      -0.644   3.543  24.086  0.00  0.00    +0.164 C 
ATOM      9  C   UNL     1      -1.660   3.885  25.176  0.00  0.00    +0.165 C 
ATOM     10  C   UNL     1       0.103   2.717  26.164  0.00  0.00    +0.181 C 
ENDROOT
BRANCH   8   3
ATOM      3  O   UNL     1       0.213   4.668  23.878  0.00  0.00    -0.388 OA
ATOM     28  H   UNL     1       0.937   4.605  24.525  0.00  0.00    +0.210 HD
ENDBRANCH   8   3
BRANCH   7   5
ATOM      5  N   UNL     1      -0.367   1.110  24.371  0.00  0.00    -0.305 NA
ATOM     27  H   UNL     1      -0.114   0.457  25.113  0.00  0.00    +0.123 HD
BRANCH   5  12
ATOM     12  C   UNL     1       0.150   0.598  23.108  0.00  0.00    +0.116 C 
BRANCH  12  13
ATOM     13  C   UNL     1       1.639   0.378  23.159  0.00  0.00    -0.034 A 
ATOM     15  C   UNL     1       2.147  -0.877  23.490  0.00  0.00    +0.005 A 
ATOM     16  C   UNL     1       2.509   1.431  22.875  0.00  0.00    +0.005 A 
ATOM     18  C   UNL     1       3.526  -1.081  23.540  0.00  0.00    +0.003 A 
ATOM     19  C   UNL     1       3.888   1.228  22.925  0.00  0.00    +0.003 A 
ATOM     20  C   UNL     1       4.397  -0.028  23.256  0.00  0.00    -0.050 A 
ATOM     23  C   UNL     1       5.872  -0.247  23.310  0.00  0.00    +0.044 C 
ENDBRANCH  12  13
ENDBRANCH   5  12
ENDBRANCH   7   5
BRANCH   9  11
ATOM     11  C   UNL     1      -3.062   3.372  24.884  0.00  0.00    +0.138 C 
BRANCH  11   6
ATOM      4  O   UNL     1      -5.220   1.594  25.538  0.00  0.00    -0.270 OA
ATOM      6  N   UNL     1      -3.074   1.946  24.730  0.00  0.00    -0.309 N 
ATOM     14  C   UNL     1      -4.169   1.160  25.074  0.00  0.00    +0.244 C 
ATOM     29  H   UNL     1      -2.206   1.514  24.429  0.00  0.00    +0.149 HD
BRANCH  14  17
ATOM      1  F   UNL     1      -3.582  -4.376  24.341  0.00  0.00    -0.205 F 
ATOM     17  C   UNL     1      -4.012  -0.305  24.880  0.00  0.00    +0.037 A 
ATOM     21  C   UNL     1      -3.359  -1.071  25.846  0.00  0.00    +0.016 A 
ATOM     22  C   UNL     1      -4.521  -0.915  23.733  0.00  0.00    +0.016 A 
ATOM     24  C   UNL     1      -3.213  -2.446  25.663  0.00  0.00    +0.039 A 
ATOM     25  C   UNL     1      -4.375  -2.290  23.550  0.00  0.00    +0.039 A 
ATOM     26  C   UNL     1      -3.721  -3.055  24.515  0.00  0.00    +0.123 A 
ENDBRANCH  14  17
ENDBRANCH  11   6
ENDBRANCH   9  11
TORSDOF 7
ENDMDL
