MODEL 1
REMARK VINA RESULT:      -3.0      0.000      0.000
REMARK  Name = 38029498
REMARK  9 active torsions:
REMARK  status: ('A' for Active; 'I' for Inactive)
REMARK    1  A    between atoms: N_4  and  C_14
REMARK    2  A    between atoms: C_7  and  C_11
REMARK    3  A    between atoms: C_8  and  C_14
REMARK    4  A    between atoms: C_10  and  C_15
REMARK    5  A    between atoms: C_11  and  C_16
REMARK    6  A    between atoms: C_11  and  C_17
REMARK    7  A    between atoms: C_12  and  C_18
REMARK    8  A    between atoms: C_15  and  C_19
REMARK    9  A    between atoms: C_20  and  C_21
REMARK                            x       y       z     vdW  Elec       q    Type
REMARK                         _______ _______ _______ _____ _____    ______ ____
ROOT
ATOM      7  C   UNL     1      -2.729   2.496  23.533  0.00  0.00    +0.000 C 
ATOM      8  C   UNL     1      -1.413   2.334  24.335  0.00  0.00    +0.032 C 
ATOM      9  C   UNL     1      -3.401   3.836  23.871  0.00  0.00    +0.012 C 
ATOM     10  C   UNL     1      -3.726   3.963  25.371  0.00  0.00    +0.023 C 
ATOM     12  C   UNL     1      -2.550   3.559  26.238  0.00  0.00    -0.073 C 
ATOM     13  C   UNL     1      -1.519   2.842  25.754  0.00  0.00    -0.022 C 
ATOM     18  C   UNL     1      -2.564   4.036  27.663  0.00  0.00    +0.039 C 
ENDROOT
BRANCH   7  11
ATOM     11  C   UNL     1      -2.490   2.401  22.023  0.00  0.00    -0.013 C 
ATOM     16  C   UNL     1      -3.543   3.205  21.267  0.00  0.00    +0.007 C 
ATOM     17  C   UNL     1      -2.497   0.944  21.574  0.00  0.00    +0.007 C 
ENDBRANCH   7  11
BRANCH   8  14
ATOM     14  C   UNL     1      -0.950   0.873  24.349  0.00  0.00    +0.112 C 
BRANCH  14   4
ATOM      3  O   UNL     1       0.498  -0.613  22.364  0.00  0.00    -0.270 OA
ATOM      4  N   UNL     1       0.471   0.790  24.214  0.00  0.00    -0.311 N 
ATOM     20  C   UNL     1       1.094   0.041  23.216  0.00  0.00    +0.244 C 
ATOM     32  H   UNL     1       1.029   1.376  24.824  0.00  0.00    +0.149 HD
BRANCH  20  21
ATOM      1  F   UNL     1       6.709   0.020  23.256  0.00  0.00    -0.205 F 
ATOM     21  C   UNL     1       2.580   0.036  23.226  0.00  0.00    +0.037 A 
ATOM     23  C   UNL     1       3.284   1.158  22.793  0.00  0.00    +0.016 A 
ATOM     24  C   UNL     1       3.270  -1.093  23.670  0.00  0.00    +0.016 A 
ATOM     26  C   UNL     1       4.680   1.153  22.803  0.00  0.00    +0.039 A 
ATOM     27  C   UNL     1       4.665  -1.098  23.680  0.00  0.00    +0.039 A 
ATOM     29  C   UNL     1       5.370   0.025  23.245  0.00  0.00    +0.123 A 
ENDBRANCH  20  21
ENDBRANCH  14   4
ENDBRANCH   8  14
BRANCH  10  15
ATOM     15  C   UNL     1      -4.979   3.159  25.736  0.00  0.00    +0.104 C 
BRANCH  15  19
ATOM      2  O   UNL     1      -5.744   1.670  24.004  0.00  0.00    -0.275 OA
ATOM      5  N   UNL     1      -4.223   0.901  25.620  0.00  0.00    -0.270 N 
ATOM      6  N   UNL     1      -3.161  -1.195  25.983  0.00  0.00    -0.240 NA
ATOM     19  C   UNL     1      -5.046   1.837  24.999  0.00  0.00    +0.219 C 
ATOM     22  C   UNL     1      -4.008  -0.444  25.242  0.00  0.00    +0.125 A 
ATOM     25  C   UNL     1      -4.684  -0.911  24.127  0.00  0.00    +0.044 A 
ATOM     28  C   UNL     1      -4.480  -2.233  23.748  0.00  0.00    +0.005 A 
ATOM     30  C   UNL     1      -2.988  -2.475  25.584  0.00  0.00    +0.113 A 
ATOM     31  C   UNL     1      -3.618  -3.037  24.485  0.00  0.00    +0.020 A 
ATOM     33  H   UNL     1      -3.701   1.191  26.445  0.00  0.00    +0.156 HD
ENDBRANCH  15  19
ENDBRANCH  10  15
TORSDOF 6
ENDMDL
MODEL 2
REMARK VINA RESULT:      -1.6      2.735      6.027
REMARK  Name = 38029498
REMARK  9 active torsions:
REMARK  status: ('A' for Active; 'I' for Inactive)
REMARK    1  A    between atoms: N_4  and  C_14
REMARK    2  A    between atoms: C_7  and  C_11
REMARK    3  A    between atoms: C_8  and  C_14
REMARK    4  A    between atoms: C_10  and  C_15
REMARK    5  A    between atoms: C_11  and  C_16
REMARK    6  A    between atoms: C_11  and  C_17
REMARK    7  A    between atoms: C_12  and  C_18
REMARK    8  A    between atoms: C_15  and  C_19
REMARK    9  A    between atoms: C_20  and  C_21
REMARK                            x       y       z     vdW  Elec       q    Type
REMARK                         _______ _______ _______ _____ _____    ______ ____
ROOT
ATOM      7  C   UNL     1      -4.034   3.378  25.708  0.00  0.00    +0.000 C 
ATOM      8  C   UNL     1      -3.906   4.050  24.318  0.00  0.00    +0.032 C 
ATOM      9  C   UNL     1      -3.093   4.054  26.718  0.00  0.00    +0.012 C 
ATOM     10  C   UNL     1      -1.619   3.987  26.278  0.00  0.00    +0.023 C 
ATOM     12  C   UNL     1      -1.447   4.383  24.825  0.00  0.00    -0.073 C 
ATOM     13  C   UNL     1      -2.483   4.417  23.967  0.00  0.00    -0.022 C 
ATOM     18  C   UNL     1      -0.064   4.780  24.390  0.00  0.00    +0.039 C 
ENDROOT
BRANCH   7  11
ATOM     11  C   UNL     1      -5.472   3.420  26.230  0.00  0.00    -0.013 C 
ATOM     16  C   UNL     1      -6.177   2.096  25.953  0.00  0.00    +0.007 C 
ATOM     17  C   UNL     1      -6.234   4.581  25.599  0.00  0.00    +0.007 C 
ENDBRANCH   7  11
BRANCH   8  14
ATOM     14  C   UNL     1      -4.489   3.158  23.217  0.00  0.00    +0.112 C 
BRANCH  14   4
ATOM      3  O   UNL     1      -2.180   1.463  23.021  0.00  0.00    -0.270 OA
ATOM      4  N   UNL     1      -4.409   1.779  23.586  0.00  0.00    -0.311 N 
ATOM     20  C   UNL     1      -3.242   1.026  23.458  0.00  0.00    +0.244 C 
ATOM     32  H   UNL     1      -5.220   1.373  24.040  0.00  0.00    +0.149 HD
BRANCH  20  21
ATOM      1  F   UNL     1      -3.569  -4.368  24.980  0.00  0.00    -0.205 F 
ATOM     21  C   UNL     1      -3.329  -0.401  23.861  0.00  0.00    +0.037 A 
ATOM     23  C   UNL     1      -4.429  -1.168  23.479  0.00  0.00    +0.016 A 
ATOM     24  C   UNL     1      -2.309  -0.975  24.621  0.00  0.00    +0.016 A 
ATOM     26  C   UNL     1      -4.511  -2.508  23.857  0.00  0.00    +0.039 A 
ATOM     27  C   UNL     1      -2.391  -2.314  24.999  0.00  0.00    +0.039 A 
ATOM     29  C   UNL     1      -3.492  -3.081  24.618  0.00  0.00    +0.123 A 
ENDBRANCH  20  21
ENDBRANCH  14   4
ENDBRANCH   8  14
BRANCH  10  15
ATOM     15  C   UNL     1      -1.025   2.599  26.543  0.00  0.00    +0.104 C 
BRANCH  15  19
ATOM      2  O   UNL     1       1.299   2.940  26.010  0.00  0.00    -0.275 OA
ATOM      5  N   UNL     1       0.021   1.420  24.755  0.00  0.00    -0.270 N 
ATOM      6  N   UNL     1       0.529   0.007  22.911  0.00  0.00    -0.240 NA
ATOM     19  C   UNL     1       0.248   2.360  25.757  0.00  0.00    +0.219 C 
ATOM     22  C   UNL     1       0.950   0.926  23.810  0.00  0.00    +0.125 A 
ATOM     25  C   UNL     1       2.244   1.419  23.866  0.00  0.00    +0.044 A 
ATOM     28  C   UNL     1       3.164   0.941  22.941  0.00  0.00    +0.005 A 
ATOM     30  C   UNL     1       1.452  -0.435  22.028  0.00  0.00    +0.113 A 
ATOM     31  C   UNL     1       2.769  -0.005  22.000  0.00  0.00    +0.020 A 
ATOM     33  H   UNL     1      -0.912   1.024  24.668  0.00  0.00    +0.156 HD
ENDBRANCH  15  19
ENDBRANCH  10  15
TORSDOF 6
ENDMDL
MODEL 3
REMARK VINA RESULT:      -0.9      1.711      4.482
REMARK  Name = 38029498
REMARK  9 active torsions:
REMARK  status: ('A' for Active; 'I' for Inactive)
REMARK    1  A    between atoms: N_4  and  C_14
REMARK    2  A    between atoms: C_7  and  C_11
REMARK    3  A    between atoms: C_8  and  C_14
REMARK    4  A    between atoms: C_10  and  C_15
REMARK    5  A    between atoms: C_11  and  C_16
REMARK    6  A    between atoms: C_11  and  C_17
REMARK    7  A    between atoms: C_12  and  C_18
REMARK    8  A    between atoms: C_15  and  C_19
REMARK    9  A    between atoms: C_20  and  C_21
REMARK                            x       y       z     vdW  Elec       q    Type
REMARK                         _______ _______ _______ _____ _____    ______ ____
ROOT
ATOM      7  C   UNL     1      -1.660   0.023  25.005  0.00  0.00    +0.000 C 
ATOM      8  C   UNL     1      -1.194  -1.269  24.289  0.00  0.00    +0.032 C 
ATOM      9  C   UNL     1      -2.810  -0.287  25.976  0.00  0.00    +0.012 C 
ATOM     10  C   UNL     1      -4.023  -0.914  25.263  0.00  0.00    +0.023 C 
ATOM     12  C   UNL     1      -3.609  -2.031  24.326  0.00  0.00    -0.073 C 
ATOM     13  C   UNL     1      -2.338  -2.181  23.912  0.00  0.00    -0.022 C 
ATOM     18  C   UNL     1      -4.682  -2.998  23.910  0.00  0.00    +0.039 C 
ENDROOT
BRANCH   7  11
ATOM     11  C   UNL     1      -0.513   0.701  25.758  0.00  0.00    -0.013 C 
ATOM     16  C   UNL     1      -1.055   1.532  26.918  0.00  0.00    +0.007 C 
ATOM     17  C   UNL     1       0.308   1.569  24.810  0.00  0.00    +0.007 C 
ENDBRANCH   7  11
BRANCH   8  14
ATOM     14  C   UNL     1      -0.369  -0.942  23.039  0.00  0.00    +0.112 C 
BRANCH  14   4
ATOM      3  O   UNL     1       1.760  -0.272  21.232  0.00  0.00    -0.270 OA
ATOM      4  N   UNL     1       1.007  -0.749  23.376  0.00  0.00    -0.311 N 
ATOM     20  C   UNL     1       1.980  -0.423  22.431  0.00  0.00    +0.244 C 
ATOM     32  H   UNL     1       1.249  -0.767  24.360  0.00  0.00    +0.149 HD
BRANCH  20  21
ATOM      1  F   UNL     1       7.233   0.111  24.341  0.00  0.00    -0.205 F 
ATOM     21  C   UNL     1       3.370  -0.282  22.937  0.00  0.00    +0.037 A 
ATOM     23  C   UNL     1       3.992  -1.354  23.576  0.00  0.00    +0.016 A 
ATOM     24  C   UNL     1       4.053   0.923  22.772  0.00  0.00    +0.016 A 
ATOM     26  C   UNL     1       5.297  -1.222  24.051  0.00  0.00    +0.039 A 
ATOM     27  C   UNL     1       5.358   1.055  23.247  0.00  0.00    +0.039 A 
ATOM     29  C   UNL     1       5.980  -0.017  23.887  0.00  0.00    +0.123 A 
ENDBRANCH  20  21
ENDBRANCH  14   4
ENDBRANCH   8  14
BRANCH  10  15
ATOM     15  C   UNL     1      -4.839   0.151  24.522  0.00  0.00    +0.104 C 
BRANCH  15  19
ATOM      2  O   UNL     1      -5.295   2.103  25.857  0.00  0.00    -0.275 OA
ATOM      5  N   UNL     1      -3.408   2.056  24.458  0.00  0.00    -0.270 N 
ATOM      6  N   UNL     1      -1.682   3.628  24.008  0.00  0.00    -0.240 NA
ATOM     19  C   UNL     1      -4.566   1.548  25.042  0.00  0.00    +0.219 C 
ATOM     22  C   UNL     1      -2.817   3.322  24.678  0.00  0.00    +0.125 A 
ATOM     25  C   UNL     1      -3.443   4.174  25.573  0.00  0.00    +0.044 A 
ATOM     28  C   UNL     1      -2.869   5.421  25.794  0.00  0.00    +0.005 A 
ATOM     30  C   UNL     1      -1.154   4.849  24.250  0.00  0.00    +0.113 A 
ATOM     31  C   UNL     1      -1.703   5.773  25.125  0.00  0.00    +0.020 A 
ATOM     33  H   UNL     1      -2.907   1.472  23.793  0.00  0.00    +0.156 HD
ENDBRANCH  15  19
ENDBRANCH  10  15
TORSDOF 6
ENDMDL
MODEL 4
REMARK VINA RESULT:       0.4      1.972      2.971
REMARK  Name = 38029498
REMARK  9 active torsions:
REMARK  status: ('A' for Active; 'I' for Inactive)
REMARK    1  A    between atoms: N_4  and  C_14
REMARK    2  A    between atoms: C_7  and  C_11
REMARK    3  A    between atoms: C_8  and  C_14
REMARK    4  A    between atoms: C_10  and  C_15
REMARK    5  A    between atoms: C_11  and  C_16
REMARK    6  A    between atoms: C_11  and  C_17
REMARK    7  A    between atoms: C_12  and  C_18
REMARK    8  A    between atoms: C_15  and  C_19
REMARK    9  A    between atoms: C_20  and  C_21
REMARK                            x       y       z     vdW  Elec       q    Type
REMARK                         _______ _______ _______ _____ _____    ______ ____
ROOT
ATOM      7  C   UNL     1      -2.068   4.189  24.813  0.00  0.00    +0.000 C 
ATOM      8  C   UNL     1      -2.403   3.622  26.216  0.00  0.00    +0.032 C 
ATOM      9  C   UNL     1      -3.334   4.747  24.144  0.00  0.00    +0.012 C 
ATOM     10  C   UNL     1      -4.431   3.676  23.989  0.00  0.00    +0.023 C 
ATOM     12  C   UNL     1      -4.633   2.888  25.267  0.00  0.00    -0.073 C 
ATOM     13  C   UNL     1      -3.721   2.886  26.257  0.00  0.00    -0.022 C 
ATOM     18  C   UNL     1      -5.927   2.136  25.401  0.00  0.00    +0.039 C 
ENDROOT
BRANCH   7  11
ATOM     11  C   UNL     1      -0.994   5.278  24.881  0.00  0.00    -0.013 C 
ATOM     16  C   UNL     1      -1.634   6.661  24.800  0.00  0.00    +0.007 C 
ATOM     17  C   UNL     1       0.027   5.089  23.765  0.00  0.00    +0.007 C 
ENDBRANCH   7  11
BRANCH   8  14
ATOM     14  C   UNL     1      -1.288   2.700  26.720  0.00  0.00    +0.112 C 
BRANCH  14   4
ATOM      3  O   UNL     1      -0.650   0.024  25.895  0.00  0.00    -0.270 OA
ATOM      4  N   UNL     1      -0.419   2.321  25.649  0.00  0.00    -0.311 N 
ATOM     20  C   UNL     1      -0.164   0.992  25.314  0.00  0.00    +0.244 C 
ATOM     32  H   UNL     1      -0.052   3.065  25.066  0.00  0.00    +0.149 HD
BRANCH  20  21
ATOM      1  F   UNL     1       3.415   0.129  21.075  0.00  0.00    -0.205 F 
ATOM     21  C   UNL     1       0.783   0.764  24.192  0.00  0.00    +0.037 A 
ATOM     23  C   UNL     1       1.869   1.618  24.012  0.00  0.00    +0.016 A 
ATOM     24  C   UNL     1       0.585  -0.306  23.319  0.00  0.00    +0.016 A 
ATOM     26  C   UNL     1       2.759   1.405  22.959  0.00  0.00    +0.039 A 
ATOM     27  C   UNL     1       1.474  -0.520  22.266  0.00  0.00    +0.039 A 
ATOM     29  C   UNL     1       2.561   0.336  22.085  0.00  0.00    +0.123 A 
ENDBRANCH  20  21
ENDBRANCH  14   4
ENDBRANCH   8  14
BRANCH  10  15
ATOM     15  C   UNL     1      -4.131   2.744  22.810  0.00  0.00    +0.104 C 
BRANCH  15  19
ATOM      2  O   UNL     1      -2.072   1.614  23.344  0.00  0.00    -0.275 OA
ATOM      5  N   UNL     1      -4.105   0.440  23.422  0.00  0.00    -0.270 N 
ATOM      6  N   UNL     1      -4.662  -1.809  23.953  0.00  0.00    -0.240 NA
ATOM     19  C   UNL     1      -3.291   1.552  23.222  0.00  0.00    +0.219 C 
ATOM     22  C   UNL     1      -3.709  -0.860  23.811  0.00  0.00    +0.125 A 
ATOM     25  C   UNL     1      -2.358  -1.080  24.024  0.00  0.00    +0.044 A 
ATOM     28  C   UNL     1      -1.958  -2.356  24.405  0.00  0.00    +0.005 A 
ATOM     30  C   UNL     1      -4.236  -3.037  24.325  0.00  0.00    +0.113 A 
ATOM     31  C   UNL     1      -2.908  -3.359  24.561  0.00  0.00    +0.020 A 
ATOM     33  H   UNL     1      -5.107   0.545  23.279  0.00  0.00    +0.156 HD
ENDBRANCH  15  19
ENDBRANCH  10  15
TORSDOF 6
ENDMDL
