MODEL 1
REMARK VINA RESULT:      -3.9      0.000      0.000
REMARK  Name = 51137080
REMARK  3 active torsions:
REMARK  status: ('A' for Active; 'I' for Inactive)
REMARK    1  A    between atoms: N_2  and  C_9
REMARK    2  A    between atoms: C_5  and  C_10
REMARK    3  A    between atoms: C_9  and  C_11
REMARK                            x       y       z     vdW  Elec       q    Type
REMARK                         _______ _______ _______ _____ _____    ______ ____
ROOT
ATOM      2  N   UNL     1      -4.787 -10.161  16.528  0.00  0.00    -0.297 NA
ATOM      5  C   UNL     1      -4.632 -10.781  14.272  0.00  0.00    +0.060 C 
ATOM      6  C   UNL     1      -5.556 -10.092  15.284  0.00  0.00    +0.095 C 
ATOM      7  C   UNL     1      -3.219 -10.615  14.858  0.00  0.00    +0.027 C 
ATOM      8  C   UNL     1      -3.417  -9.822  16.143  0.00  0.00    +0.085 C 
ENDROOT
BRANCH   5  10
ATOM      1  S   UNL     1      -3.425 -10.100  11.862  0.00  0.00    -0.072 S 
ATOM      3  N   UNL     1      -5.952  -9.902  12.341  0.00  0.00    -0.244 NA
ATOM     10  C   UNL     1      -4.802 -10.256  12.865  0.00  0.00    +0.084 A 
ATOM     15  C   UNL     1      -4.429  -9.501  10.595  0.00  0.00    +0.039 A 
ATOM     16  C   UNL     1      -5.753  -9.467  11.038  0.00  0.00    +0.078 A 
ATOM     19  C   UNL     1      -4.069  -9.093   9.300  0.00  0.00    +0.017 A 
ATOM     20  C   UNL     1      -6.753  -9.007  10.153  0.00  0.00    +0.029 A 
ATOM     23  C   UNL     1      -5.078  -8.642   8.443  0.00  0.00    +0.001 A 
ATOM     24  C   UNL     1      -6.402  -8.598   8.863  0.00  0.00    +0.002 A 
ENDBRANCH   5  10
BRANCH   2   9
ATOM      9  C   UNL     1      -5.311  -9.272  17.555  0.00  0.00    +0.121 C 
BRANCH   9  11
ATOM      4  N   UNL     1      -8.198 -10.759  19.286  0.00  0.00    -0.360 N 
ATOM     11  C   UNL     1      -6.647  -9.736  18.069  0.00  0.00    -0.008 A 
ATOM     12  C   UNL     1      -7.924  -9.388  17.546  0.00  0.00    +0.004 A 
ATOM     13  C   UNL     1      -6.848 -10.580  19.137  0.00  0.00    +0.088 A 
ATOM     14  C   UNL     1      -8.879 -10.043  18.327  0.00  0.00    +0.047 A 
ATOM     17  C   UNL     1      -8.361  -8.577  16.480  0.00  0.00    +0.010 A 
ATOM     18  C   UNL     1     -10.254  -9.925  18.093  0.00  0.00    +0.026 A 
ATOM     21  C   UNL     1      -9.733  -8.450  16.235  0.00  0.00    +0.001 A 
ATOM     22  C   UNL     1     -10.663  -9.115  17.031  0.00  0.00    +0.002 A 
ATOM     25  H   UNL     1      -8.632 -11.333  19.994  0.00  0.00    +0.165 HD
ENDBRANCH   9  11
ENDBRANCH   2   9
TORSDOF 3
ENDMDL
MODEL 2
REMARK VINA RESULT:      -2.0     13.965     16.074
REMARK  Name = 51137080
REMARK  3 active torsions:
REMARK  status: ('A' for Active; 'I' for Inactive)
REMARK    1  A    between atoms: N_2  and  C_9
REMARK    2  A    between atoms: C_5  and  C_10
REMARK    3  A    between atoms: C_9  and  C_11
REMARK                            x       y       z     vdW  Elec       q    Type
REMARK                         _______ _______ _______ _____ _____    ______ ____
ROOT
ATOM      2  N   UNL     1      -3.191  -0.698  24.418  0.00  0.00    -0.297 NA
ATOM      5  C   UNL     1      -0.945  -1.370  24.364  0.00  0.00    +0.060 C 
ATOM      6  C   UNL     1      -2.043  -0.723  23.509  0.00  0.00    +0.095 C 
ATOM      7  C   UNL     1      -1.360  -1.080  25.816  0.00  0.00    +0.027 C 
ATOM      8  C   UNL     1      -2.643  -0.267  25.705  0.00  0.00    +0.085 C 
ENDROOT
BRANCH   5  10
ATOM      1  S   UNL     1       0.632   0.614  23.222  0.00  0.00    -0.072 S 
ATOM      3  N   UNL     1       1.541  -1.582  24.225  0.00  0.00    -0.244 NA
ATOM     10  C   UNL     1       0.443  -0.900  23.994  0.00  0.00    +0.084 A 
ATOM     15  C   UNL     1       2.338   0.366  23.176  0.00  0.00    +0.039 A 
ATOM     16  C   UNL     1       2.637  -0.868  23.761  0.00  0.00    +0.078 A 
ATOM     19  C   UNL     1       3.340   1.204  22.660  0.00  0.00    +0.017 A 
ATOM     20  C   UNL     1       3.987  -1.276  23.831  0.00  0.00    +0.029 A 
ATOM     23  C   UNL     1       4.668   0.777  22.742  0.00  0.00    +0.001 A 
ATOM     24  C   UNL     1       4.989  -0.447  23.319  0.00  0.00    +0.002 A 
ENDBRANCH   5  10
BRANCH   2   9
ATOM      9  C   UNL     1      -4.253   0.179  23.947  0.00  0.00    +0.121 C 
BRANCH   9  11
ATOM      4  N   UNL     1      -5.028   3.090  26.059  0.00  0.00    -0.360 N 
ATOM     11  C   UNL     1      -4.310   1.461  24.732  0.00  0.00    -0.008 A 
ATOM     12  C   UNL     1      -3.296   2.457  24.804  0.00  0.00    +0.004 A 
ATOM     13  C   UNL     1      -5.363   1.879  25.514  0.00  0.00    +0.088 A 
ATOM     14  C   UNL     1      -3.772   3.467  25.642  0.00  0.00    +0.047 A 
ATOM     17  C   UNL     1      -2.015   2.596  24.235  0.00  0.00    +0.010 A 
ATOM     18  C   UNL     1      -3.027   4.614  25.940  0.00  0.00    +0.026 A 
ATOM     21  C   UNL     1      -1.259   3.738  24.524  0.00  0.00    +0.001 A 
ATOM     22  C   UNL     1      -1.759   4.730  25.364  0.00  0.00    +0.002 A 
ATOM     25  H   UNL     1      -5.618   3.630  26.677  0.00  0.00    +0.165 HD
ENDBRANCH   9  11
ENDBRANCH   2   9
TORSDOF 3
ENDMDL
MODEL 3
REMARK VINA RESULT:      -1.6     14.115     16.345
REMARK  Name = 51137080
REMARK  3 active torsions:
REMARK  status: ('A' for Active; 'I' for Inactive)
REMARK    1  A    between atoms: N_2  and  C_9
REMARK    2  A    between atoms: C_5  and  C_10
REMARK    3  A    between atoms: C_9  and  C_11
REMARK                            x       y       z     vdW  Elec       q    Type
REMARK                         _______ _______ _______ _____ _____    ______ ____
ROOT
ATOM      2  N   UNL     1      -0.404   4.025  25.177  0.00  0.00    -0.297 NA
ATOM      5  C   UNL     1      -0.058   1.706  25.188  0.00  0.00    +0.060 C 
ATOM      6  C   UNL     1      -0.999   2.798  25.712  0.00  0.00    +0.095 C 
ATOM      7  C   UNL     1       0.585   2.315  23.931  0.00  0.00    +0.027 C 
ATOM      8  C   UNL     1      -0.043   3.696  23.797  0.00  0.00    +0.085 C 
ENDROOT
BRANCH   5  10
ATOM      1  S   UNL     1       0.037  -0.837  24.068  0.00  0.00    -0.072 S 
ATOM      3  N   UNL     1      -1.953   0.093  25.421  0.00  0.00    -0.244 NA
ATOM     10  C   UNL     1      -0.756   0.383  24.966  0.00  0.00    +0.084 A 
ATOM     15  C   UNL     1      -1.326  -1.870  24.288  0.00  0.00    +0.039 A 
ATOM     16  C   UNL     1      -2.294  -1.198  25.039  0.00  0.00    +0.078 A 
ATOM     19  C   UNL     1      -1.524  -3.183  23.829  0.00  0.00    +0.017 A 
ATOM     20  C   UNL     1      -3.502  -1.863  25.341  0.00  0.00    +0.029 A 
ATOM     23  C   UNL     1      -2.729  -3.819  24.141  0.00  0.00    +0.001 A 
ATOM     24  C   UNL     1      -3.706  -3.169  24.887  0.00  0.00    +0.002 A 
ENDBRANCH   5  10
BRANCH   2   9
ATOM      9  C   UNL     1      -1.310   5.161  25.257  0.00  0.00    +0.121 C 
BRANCH   9  11
ATOM      4  N   UNL     1      -4.599   4.633  26.821  0.00  0.00    -0.360 N 
ATOM     11  C   UNL     1      -2.691   4.747  25.692  0.00  0.00    -0.008 A 
ATOM     12  C   UNL     1      -3.507   3.751  25.086  0.00  0.00    +0.004 A 
ATOM     13  C   UNL     1      -3.389   5.271  26.756  0.00  0.00    +0.088 A 
ATOM     14  C   UNL     1      -4.698   3.700  25.814  0.00  0.00    +0.047 A 
ATOM     17  C   UNL     1      -3.347   2.886  23.986  0.00  0.00    +0.010 A 
ATOM     18  C   UNL     1      -5.740   2.822  25.493  0.00  0.00    +0.026 A 
ATOM     21  C   UNL     1      -4.381   2.003  23.655  0.00  0.00    +0.001 A 
ATOM     22  C   UNL     1      -5.559   1.974  24.398  0.00  0.00    +0.002 A 
ATOM     25  H   UNL     1      -5.316   4.819  27.508  0.00  0.00    +0.165 HD
ENDBRANCH   9  11
ENDBRANCH   2   9
TORSDOF 3
ENDMDL
MODEL 4
REMARK VINA RESULT:      -0.8     14.201     17.203
REMARK  Name = 51137080
REMARK  3 active torsions:
REMARK  status: ('A' for Active; 'I' for Inactive)
REMARK    1  A    between atoms: N_2  and  C_9
REMARK    2  A    between atoms: C_5  and  C_10
REMARK    3  A    between atoms: C_9  and  C_11
REMARK                            x       y       z     vdW  Elec       q    Type
REMARK                         _______ _______ _______ _____ _____    ______ ____
ROOT
ATOM      2  N   UNL     1       0.423  -0.727  23.804  0.00  0.00    -0.297 NA
ATOM      5  C   UNL     1      -1.247   0.059  25.250  0.00  0.00    +0.060 C 
ATOM      6  C   UNL     1      -0.261   0.516  24.167  0.00  0.00    +0.095 C 
ATOM      7  C   UNL     1      -1.476  -1.435  24.964  0.00  0.00    +0.027 C 
ATOM      8  C   UNL     1      -0.638  -1.732  23.728  0.00  0.00    +0.085 C 
ENDROOT
BRANCH   5  10
ATOM      1  S   UNL     1      -4.024   0.127  25.150  0.00  0.00    -0.072 S 
ATOM      3  N   UNL     1      -2.519   2.202  25.439  0.00  0.00    -0.244 NA
ATOM     10  C   UNL     1      -2.504   0.897  25.295  0.00  0.00    +0.084 A 
ATOM     15  C   UNL     1      -4.802   1.660  25.289  0.00  0.00    +0.039 A 
ATOM     16  C   UNL     1      -3.831   2.653  25.438  0.00  0.00    +0.078 A 
ATOM     19  C   UNL     1      -6.174   1.960  25.269  0.00  0.00    +0.017 A 
ATOM     20  C   UNL     1      -4.250   3.996  25.571  0.00  0.00    +0.029 A 
ATOM     23  C   UNL     1      -6.562   3.296  25.403  0.00  0.00    +0.001 A 
ATOM     24  C   UNL     1      -5.613   4.302  25.552  0.00  0.00    +0.002 A 
ENDBRANCH   5  10
BRANCH   2   9
ATOM      9  C   UNL     1       1.164  -0.608  22.556  0.00  0.00    +0.121 C 
BRANCH   9  11
ATOM      4  N   UNL     1       3.958   1.779  22.756  0.00  0.00    -0.360 N 
ATOM     11  C   UNL     1       2.455   0.145  22.742  0.00  0.00    -0.008 A 
ATOM     12  C   UNL     1       3.676  -0.379  23.250  0.00  0.00    +0.004 A 
ATOM     13  C   UNL     1       2.659   1.474  22.447  0.00  0.00    +0.088 A 
ATOM     14  C   UNL     1       4.603   0.667  23.247  0.00  0.00    +0.047 A 
ATOM     17  C   UNL     1       4.085  -1.645  23.711  0.00  0.00    +0.010 A 
ATOM     18  C   UNL     1       5.922   0.507  23.686  0.00  0.00    +0.026 A 
ATOM     21  C   UNL     1       5.401  -1.819  24.153  0.00  0.00    +0.001 A 
ATOM     22  C   UNL     1       6.304  -0.758  24.140  0.00  0.00    +0.002 A 
ATOM     25  H   UNL     1       4.382   2.689  22.639  0.00  0.00    +0.165 HD
ENDBRANCH   9  11
ENDBRANCH   2   9
TORSDOF 3
ENDMDL
MODEL 5
REMARK VINA RESULT:      -0.7     13.551     15.537
REMARK  Name = 51137080
REMARK  3 active torsions:
REMARK  status: ('A' for Active; 'I' for Inactive)
REMARK    1  A    between atoms: N_2  and  C_9
REMARK    2  A    between atoms: C_5  and  C_10
REMARK    3  A    between atoms: C_9  and  C_11
REMARK                            x       y       z     vdW  Elec       q    Type
REMARK                         _______ _______ _______ _____ _____    ______ ____
ROOT
ATOM      2  N   UNL     1      -2.892  -1.548  24.545  0.00  0.00    -0.297 NA
ATOM      5  C   UNL     1      -0.571  -1.880  24.559  0.00  0.00    +0.060 C 
ATOM      6  C   UNL     1      -1.742  -1.516  23.638  0.00  0.00    +0.095 C 
ATOM      7  C   UNL     1      -1.040  -1.475  25.966  0.00  0.00    +0.027 C 
ATOM      8  C   UNL     1      -2.428  -0.881  25.763  0.00  0.00    +0.085 C 
ENDROOT
BRANCH   5  10
ATOM      1  S   UNL     1       0.713   0.231  23.285  0.00  0.00    -0.072 S 
ATOM      3  N   UNL     1       1.917  -1.791  24.341  0.00  0.00    -0.244 NA
ATOM     10  C   UNL     1       0.737  -1.260  24.122  0.00  0.00    +0.084 A 
ATOM     15  C   UNL     1       2.435   0.193  23.190  0.00  0.00    +0.039 A 
ATOM     16  C   UNL     1       2.902  -0.968  23.811  0.00  0.00    +0.078 A 
ATOM     19  C   UNL     1       3.309   1.124  22.607  0.00  0.00    +0.017 A 
ATOM     20  C   UNL     1       4.293  -1.204  23.850  0.00  0.00    +0.029 A 
ATOM     23  C   UNL     1       4.682   0.867  22.659  0.00  0.00    +0.001 A 
ATOM     24  C   UNL     1       5.169  -0.281  23.272  0.00  0.00    +0.002 A 
ENDBRANCH   5  10
BRANCH   2   9
ATOM      9  C   UNL     1      -4.067  -0.904  23.974  0.00  0.00    +0.121 C 
BRANCH   9  11
ATOM      4  N   UNL     1      -3.134   2.547  23.104  0.00  0.00    -0.360 N 
ATOM     11  C   UNL     1      -3.873   0.581  23.822  0.00  0.00    -0.008 A 
ATOM     12  C   UNL     1      -4.532   1.601  24.563  0.00  0.00    +0.004 A 
ATOM     13  C   UNL     1      -3.019   1.193  22.933  0.00  0.00    +0.088 A 
ATOM     14  C   UNL     1      -4.050   2.825  24.093  0.00  0.00    +0.047 A 
ATOM     17  C   UNL     1      -5.495   1.602  25.592  0.00  0.00    +0.010 A 
ATOM     18  C   UNL     1      -4.485   4.054  24.603  0.00  0.00    +0.026 A 
ATOM     21  C   UNL     1      -5.939   2.824  26.111  0.00  0.00    +0.001 A 
ATOM     22  C   UNL     1      -5.440   4.029  25.623  0.00  0.00    +0.002 A 
ATOM     25  H   UNL     1      -2.620   3.242  22.581  0.00  0.00    +0.165 HD
ENDBRANCH   9  11
ENDBRANCH   2   9
TORSDOF 3
ENDMDL
MODEL 6
REMARK VINA RESULT:      -0.4      2.689      4.623
REMARK  Name = 51137080
REMARK  3 active torsions:
REMARK  status: ('A' for Active; 'I' for Inactive)
REMARK    1  A    between atoms: N_2  and  C_9
REMARK    2  A    between atoms: C_5  and  C_10
REMARK    3  A    between atoms: C_9  and  C_11
REMARK                            x       y       z     vdW  Elec       q    Type
REMARK                         _______ _______ _______ _____ _____    ______ ____
ROOT
ATOM      2  N   UNL     1      -7.085 -10.179  15.598  0.00  0.00    -0.297 NA
ATOM      5  C   UNL     1      -4.945 -10.776  14.849  0.00  0.00    +0.060 C 
ATOM      6  C   UNL     1      -6.317 -10.300  14.357  0.00  0.00    +0.095 C 
ATOM      7  C   UNL     1      -4.862 -10.290  16.306  0.00  0.00    +0.027 C 
ATOM      8  C   UNL     1      -6.169  -9.545  16.547  0.00  0.00    +0.085 C 
ENDROOT
BRANCH   5  10
ATOM      1  S   UNL     1      -2.257 -10.095  14.646  0.00  0.00    -0.072 S 
ATOM      3  N   UNL     1      -3.925 -10.078  12.677  0.00  0.00    -0.244 NA
ATOM     10  C   UNL     1      -3.809 -10.320  13.962  0.00  0.00    +0.084 A 
ATOM     15  C   UNL     1      -1.656  -9.626  13.099  0.00  0.00    +0.039 A 
ATOM     16  C   UNL     1      -2.697  -9.678  12.169  0.00  0.00    +0.078 A 
ATOM     19  C   UNL     1      -0.355  -9.240  12.736  0.00  0.00    +0.017 A 
ATOM     20  C   UNL     1      -2.425  -9.332  10.827  0.00  0.00    +0.029 A 
ATOM     23  C   UNL     1      -0.112  -8.902  11.402  0.00  0.00    +0.001 A 
ATOM     24  C   UNL     1      -1.133  -8.947  10.458  0.00  0.00    +0.002 A 
ENDBRANCH   5  10
BRANCH   2   9
ATOM      9  C   UNL     1      -8.313  -9.417  15.419  0.00  0.00    +0.121 C 
BRANCH   9  11
ATOM      4  N   UNL     1     -10.719 -10.758  12.979  0.00  0.00    -0.360 N 
ATOM     11  C   UNL     1      -9.099  -9.894  14.227  0.00  0.00    -0.008 A 
ATOM     12  C   UNL     1      -8.688  -9.840  12.865  0.00  0.00    +0.004 A 
ATOM     13  C   UNL     1     -10.351 -10.463  14.265  0.00  0.00    +0.088 A 
ATOM     14  C   UNL     1      -9.723 -10.388  12.104  0.00  0.00    +0.047 A 
ATOM     17  C   UNL     1      -7.533  -9.376  12.205  0.00  0.00    +0.010 A 
ATOM     18  C   UNL     1      -9.659 -10.496  10.710  0.00  0.00    +0.026 A 
ATOM     21  C   UNL     1      -7.456  -9.478  10.812  0.00  0.00    +0.001 A 
ATOM     22  C   UNL     1      -8.503 -10.029  10.077  0.00  0.00    +0.002 A 
ATOM     25  H   UNL     1     -11.595 -11.185  12.711  0.00  0.00    +0.165 HD
ENDBRANCH   9  11
ENDBRANCH   2   9
TORSDOF 3
ENDMDL
MODEL 7
REMARK VINA RESULT:      -0.3      1.335      2.093
REMARK  Name = 51137080
REMARK  3 active torsions:
REMARK  status: ('A' for Active; 'I' for Inactive)
REMARK    1  A    between atoms: N_2  and  C_9
REMARK    2  A    between atoms: C_5  and  C_10
REMARK    3  A    between atoms: C_9  and  C_11
REMARK                            x       y       z     vdW  Elec       q    Type
REMARK                         _______ _______ _______ _____ _____    ______ ____
ROOT
ATOM      2  N   UNL     1      -4.068 -10.564  16.487  0.00  0.00    -0.297 NA
ATOM      5  C   UNL     1      -3.768 -10.781  14.172  0.00  0.00    +0.060 C 
ATOM      6  C   UNL     1      -4.845 -10.776  15.264  0.00  0.00    +0.095 C 
ATOM      7  C   UNL     1      -2.605  -9.969  14.767  0.00  0.00    +0.027 C 
ATOM      8  C   UNL     1      -3.095  -9.527  16.140  0.00  0.00    +0.085 C 
ENDROOT
BRANCH   5  10
ATOM      1  S   UNL     1      -5.951 -10.001  12.639  0.00  0.00    -0.072 S 
ATOM      3  N   UNL     1      -3.512 -10.037  11.800  0.00  0.00    -0.244 NA
ATOM     10  C   UNL     1      -4.276 -10.280  12.839  0.00  0.00    +0.084 A 
ATOM     15  C   UNL     1      -5.663  -9.506  11.012  0.00  0.00    +0.039 A 
ATOM     16  C   UNL     1      -4.294  -9.592  10.743  0.00  0.00    +0.078 A 
ATOM     19  C   UNL     1      -6.583  -9.073  10.043  0.00  0.00    +0.017 A 
ATOM     20  C   UNL     1      -3.831  -9.231   9.459  0.00  0.00    +0.029 A 
ATOM     23  C   UNL     1      -6.099  -8.721   8.780  0.00  0.00    +0.001 A 
ATOM     24  C   UNL     1      -4.741  -8.798   8.491  0.00  0.00    +0.002 A 
ENDBRANCH   5  10
BRANCH   2   9
ATOM      9  C   UNL     1      -4.904 -10.183  17.616  0.00  0.00    +0.121 C 
BRANCH   9  11
ATOM      4  N   UNL     1      -8.040  -9.154  15.988  0.00  0.00    -0.360 N 
ATOM     11  C   UNL     1      -6.312  -9.863  17.188  0.00  0.00    -0.008 A 
ATOM     12  C   UNL     1      -7.500 -10.114  17.929  0.00  0.00    +0.004 A 
ATOM     13  C   UNL     1      -6.676  -9.272  16.000  0.00  0.00    +0.088 A 
ATOM     14  C   UNL     1      -8.570  -9.659  17.154  0.00  0.00    +0.047 A 
ATOM     17  C   UNL     1      -7.771 -10.686  19.188  0.00  0.00    +0.010 A 
ATOM     18  C   UNL     1      -9.901  -9.749  17.578  0.00  0.00    +0.026 A 
ATOM     21  C   UNL     1      -9.097 -10.781  19.624  0.00  0.00    +0.001 A 
ATOM     22  C   UNL     1     -10.144 -10.319  18.830  0.00  0.00    +0.002 A 
ATOM     25  H   UNL     1      -8.580  -8.753  15.235  0.00  0.00    +0.165 HD
ENDBRANCH   9  11
ENDBRANCH   2   9
TORSDOF 3
ENDMDL
MODEL 8
REMARK VINA RESULT:       0.1     13.727     16.440
REMARK  Name = 51137080
REMARK  3 active torsions:
REMARK  status: ('A' for Active; 'I' for Inactive)
REMARK    1  A    between atoms: N_2  and  C_9
REMARK    2  A    between atoms: C_5  and  C_10
REMARK    3  A    between atoms: C_9  and  C_11
REMARK                            x       y       z     vdW  Elec       q    Type
REMARK                         _______ _______ _______ _____ _____    ______ ____
ROOT
ATOM      2  N   UNL     1      -2.302  -2.152  25.022  0.00  0.00    -0.297 NA
ATOM      5  C   UNL     1      -4.125  -0.716  25.356  0.00  0.00    +0.060 C 
ATOM      6  C   UNL     1      -2.644  -0.904  25.707  0.00  0.00    +0.095 C 
ATOM      7  C   UNL     1      -4.316  -1.491  24.041  0.00  0.00    +0.027 C 
ATOM      8  C   UNL     1      -2.937  -2.046  23.707  0.00  0.00    +0.085 C 
ENDROOT
BRANCH   5  10
ATOM      1  S   UNL     1      -5.977   1.223  26.090  0.00  0.00    -0.072 S 
ATOM      3  N   UNL     1      -3.863   1.676  24.682  0.00  0.00    -0.244 NA
ATOM     10  C   UNL     1      -4.539   0.737  25.302  0.00  0.00    +0.084 A 
ATOM     15  C   UNL     1      -5.700   2.844  25.570  0.00  0.00    +0.039 A 
ATOM     16  C   UNL     1      -4.518   2.891  24.828  0.00  0.00    +0.078 A 
ATOM     19  C   UNL     1      -6.475   3.992  25.805  0.00  0.00    +0.017 A 
ATOM     20  C   UNL     1      -4.097   4.132  24.302  0.00  0.00    +0.029 A 
ATOM     23  C   UNL     1      -6.036   5.208  25.273  0.00  0.00    +0.001 A 
ATOM     24  C   UNL     1      -4.863   5.278  24.531  0.00  0.00    +0.002 A 
ENDBRANCH   5  10
BRANCH   2   9
ATOM      9  C   UNL     1      -0.864  -2.358  24.927  0.00  0.00    +0.121 C 
BRANCH   9  11
ATOM      4  N   UNL     1       1.069   0.083  22.966  0.00  0.00    -0.360 N 
ATOM     11  C   UNL     1      -0.168  -1.170  24.319  0.00  0.00    -0.008 A 
ATOM     12  C   UNL     1      -0.205   0.170  24.796  0.00  0.00    +0.004 A 
ATOM     13  C   UNL     1       0.623  -1.192  23.193  0.00  0.00    +0.088 A 
ATOM     14  C   UNL     1       0.579   0.935  23.930  0.00  0.00    +0.047 A 
ATOM     17  C   UNL     1      -0.831   0.807  25.886  0.00  0.00    +0.010 A 
ATOM     18  C   UNL     1       0.768   2.312  24.100  0.00  0.00    +0.026 A 
ATOM     21  C   UNL     1      -0.651   2.183  26.068  0.00  0.00    +0.001 A 
ATOM     22  C   UNL     1       0.136   2.922  25.188  0.00  0.00    +0.002 A 
ATOM     25  H   UNL     1       1.670   0.359  22.203  0.00  0.00    +0.165 HD
ENDBRANCH   9  11
ENDBRANCH   2   9
TORSDOF 3
ENDMDL
