MODEL 1
REMARK VINA RESULT:      -3.2      0.000      0.000
REMARK  Name = 11943194
REMARK  10 active torsions:
REMARK  status: ('A' for Active; 'I' for Inactive)
REMARK    1  A    between atoms: O_1  and  C_15
REMARK    2  A    between atoms: O_1  and  C_17
REMARK    3  A    between atoms: O_3  and  C_21
REMARK    4  A    between atoms: O_3  and  C_24
REMARK    5  A    between atoms: O_4  and  C_22
REMARK    6  A    between atoms: O_4  and  C_25
REMARK    7  A    between atoms: N_6  and  C_18
REMARK    8  A    between atoms: C_8  and  C_14
REMARK    9  A    between atoms: C_10  and  C_15
REMARK   10  A    between atoms: C_14  and  C_16
REMARK                            x       y       z     vdW  Elec       q    Type
REMARK                         _______ _______ _______ _____ _____    ______ ____
ROOT
ATOM      2  O   UNL     1       0.109   3.017  26.577  0.00  0.00    -0.226 OA
ATOM      6  N   UNL     1      -0.687   2.482  24.441  0.00  0.00    -0.251 N 
ATOM     17  C   UNL     1      -0.563   3.253  25.580  0.00  0.00    +0.405 C 
ATOM     26  H   UNL     1      -1.297   2.848  23.715  0.00  0.00    +0.158 HD
ENDROOT
BRANCH   6  18
ATOM     18  C   UNL     1      -0.067   1.243  24.158  0.00  0.00    +0.043 A 
ATOM     19  C   UNL     1      -0.586   0.083  24.709  0.00  0.00    +0.069 A 
ATOM     20  C   UNL     1       1.049   1.214  23.336  0.00  0.00    +0.069 A 
ATOM     21  C   UNL     1       1.660  -0.008  23.057  0.00  0.00    +0.125 A 
ATOM     22  C   UNL     1       0.025  -1.140  24.429  0.00  0.00    +0.125 A 
ATOM     23  C   UNL     1       1.148  -1.186  23.604  0.00  0.00    +0.091 A 
BRANCH  21   3
ATOM      3  O   UNL     1       2.756  -0.053  22.252  0.00  0.00    -0.495 OA
ATOM     24  C   UNL     1       3.891   0.712  22.658  0.00  0.00    +0.277 C 
ENDBRANCH  21   3
BRANCH  22   4
ATOM      4  O   UNL     1      -0.474  -2.289  24.963  0.00  0.00    -0.495 OA
ATOM     25  C   UNL     1      -1.783  -2.679  24.554  0.00  0.00    +0.277 C 
ENDBRANCH  22   4
ENDBRANCH   6  18
BRANCH  17   1
ATOM      1  O   UNL     1      -1.336   4.386  25.450  0.00  0.00    -0.449 OA
BRANCH   1  15
ATOM     15  C   UNL     1      -2.171   4.458  24.311  0.00  0.00    +0.252 C 
BRANCH  15  10
ATOM      5  N   UNL     1      -3.687   3.446  26.034  0.00  0.00    -0.296 NA
ATOM      7  C   UNL     1      -5.281   2.377  24.279  0.00  0.00    -0.004 C 
ATOM      8  C   UNL     1      -4.344   1.312  24.894  0.00  0.00    +0.006 C 
ATOM      9  C   UNL     1      -4.436   3.498  23.649  0.00  0.00    +0.026 C 
ATOM     10  C   UNL     1      -3.613   4.199  24.753  0.00  0.00    +0.094 C 
ATOM     11  C   UNL     1      -3.328   2.024  25.816  0.00  0.00    +0.088 C 
ATOM     12  C   UNL     1      -6.073   3.002  25.443  0.00  0.00    +0.019 C 
ATOM     13  C   UNL     1      -5.089   3.501  26.516  0.00  0.00    +0.085 C 
BRANCH   8  14
ATOM     14  C   UNL     1      -3.644   0.448  23.847  0.00  0.00    +0.002 C 
ATOM     16  C   UNL     1      -4.218  -0.955  23.815  0.00  0.00    +0.004 C 
ENDBRANCH   8  14
ENDBRANCH  15  10
ENDBRANCH   1  15
ENDBRANCH  17   1
TORSDOF 7
ENDMDL
MODEL 2
REMARK VINA RESULT:      -3.2      0.043      2.553
REMARK  Name = 11943194
REMARK  10 active torsions:
REMARK  status: ('A' for Active; 'I' for Inactive)
REMARK    1  A    between atoms: O_1  and  C_15
REMARK    2  A    between atoms: O_1  and  C_17
REMARK    3  A    between atoms: O_3  and  C_21
REMARK    4  A    between atoms: O_3  and  C_24
REMARK    5  A    between atoms: O_4  and  C_22
REMARK    6  A    between atoms: O_4  and  C_25
REMARK    7  A    between atoms: N_6  and  C_18
REMARK    8  A    between atoms: C_8  and  C_14
REMARK    9  A    between atoms: C_10  and  C_15
REMARK   10  A    between atoms: C_14  and  C_16
REMARK                            x       y       z     vdW  Elec       q    Type
REMARK                         _______ _______ _______ _____ _____    ______ ____
ROOT
ATOM      2  O   UNL     1       0.091   3.037  26.573  0.00  0.00    -0.226 OA
ATOM      6  N   UNL     1      -0.678   2.501  24.427  0.00  0.00    -0.251 N 
ATOM     17  C   UNL     1      -0.563   3.276  25.565  0.00  0.00    +0.405 C 
ATOM     26  H   UNL     1      -1.273   2.872  23.690  0.00  0.00    +0.158 HD
ENDROOT
BRANCH   6  18
ATOM     18  C   UNL     1      -0.069   1.254  24.159  0.00  0.00    +0.043 A 
ATOM     19  C   UNL     1       1.051   1.207  23.345  0.00  0.00    +0.069 A 
ATOM     20  C   UNL     1      -0.603   0.103  24.716  0.00  0.00    +0.069 A 
ATOM     21  C   UNL     1      -0.002  -1.127  24.451  0.00  0.00    +0.125 A 
ATOM     22  C   UNL     1       1.653  -0.023  23.081  0.00  0.00    +0.125 A 
ATOM     23  C   UNL     1       1.127  -1.190  23.633  0.00  0.00    +0.091 A 
BRANCH  21   3
ATOM      3  O   UNL     1      -0.517  -2.266  24.990  0.00  0.00    -0.495 OA
ATOM     24  C   UNL     1      -1.743  -2.747  24.441  0.00  0.00    +0.277 C 
ENDBRANCH  21   3
BRANCH  22   4
ATOM      4  O   UNL     1       2.754  -0.086  22.282  0.00  0.00    -0.495 OA
ATOM     25  C   UNL     1       3.875   0.710  22.660  0.00  0.00    +0.277 C 
ENDBRANCH  22   4
ENDBRANCH   6  18
BRANCH  17   1
ATOM      1  O   UNL     1      -1.320   4.418  25.418  0.00  0.00    -0.449 OA
BRANCH   1  15
ATOM     15  C   UNL     1      -2.170   4.476  24.289  0.00  0.00    +0.252 C 
BRANCH  15  10
ATOM      5  N   UNL     1      -3.661   3.468  26.037  0.00  0.00    -0.296 NA
ATOM      7  C   UNL     1      -5.283   2.398  24.308  0.00  0.00    -0.004 C 
ATOM      8  C   UNL     1      -4.338   1.333  24.911  0.00  0.00    +0.006 C 
ATOM      9  C   UNL     1      -4.446   3.517  23.663  0.00  0.00    +0.026 C 
ATOM     10  C   UNL     1      -3.606   4.219  24.753  0.00  0.00    +0.094 C 
ATOM     11  C   UNL     1      -3.307   2.046  25.816  0.00  0.00    +0.088 C 
ATOM     12  C   UNL     1      -6.056   3.026  25.483  0.00  0.00    +0.019 C 
ATOM     13  C   UNL     1      -5.056   3.526  26.539  0.00  0.00    +0.085 C 
BRANCH   8  14
ATOM     14  C   UNL     1      -3.655   0.466  23.855  0.00  0.00    +0.002 C 
ATOM     16  C   UNL     1      -4.230  -0.936  23.835  0.00  0.00    +0.004 C 
ENDBRANCH   8  14
ENDBRANCH  15  10
ENDBRANCH   1  15
ENDBRANCH  17   1
TORSDOF 7
ENDMDL
MODEL 3
REMARK VINA RESULT:      -3.1      1.043      2.128
REMARK  Name = 11943194
REMARK  10 active torsions:
REMARK  status: ('A' for Active; 'I' for Inactive)
REMARK    1  A    between atoms: O_1  and  C_15
REMARK    2  A    between atoms: O_1  and  C_17
REMARK    3  A    between atoms: O_3  and  C_21
REMARK    4  A    between atoms: O_3  and  C_24
REMARK    5  A    between atoms: O_4  and  C_22
REMARK    6  A    between atoms: O_4  and  C_25
REMARK    7  A    between atoms: N_6  and  C_18
REMARK    8  A    between atoms: C_8  and  C_14
REMARK    9  A    between atoms: C_10  and  C_15
REMARK   10  A    between atoms: C_14  and  C_16
REMARK                            x       y       z     vdW  Elec       q    Type
REMARK                         _______ _______ _______ _____ _____    ______ ____
ROOT
ATOM      2  O   UNL     1       0.524   2.747  26.649  0.00  0.00    -0.226 OA
ATOM      6  N   UNL     1      -0.024   2.721  24.373  0.00  0.00    -0.251 N 
ATOM     17  C   UNL     1      -0.001   3.234  25.655  0.00  0.00    +0.405 C 
ATOM     26  H   UNL     1      -0.516   3.276  23.677  0.00  0.00    +0.158 HD
ENDROOT
BRANCH   6  18
ATOM     18  C   UNL     1       0.554   1.518  23.907  0.00  0.00    +0.043 A 
ATOM     19  C   UNL     1      -0.149   0.332  24.041  0.00  0.00    +0.069 A 
ATOM     20  C   UNL     1       1.811   1.549  23.324  0.00  0.00    +0.069 A 
ATOM     21  C   UNL     1       2.381   0.362  22.865  0.00  0.00    +0.125 A 
ATOM     22  C   UNL     1       0.421  -0.856  23.581  0.00  0.00    +0.125 A 
ATOM     23  C   UNL     1       1.685  -0.841  22.993  0.00  0.00    +0.091 A 
BRANCH  21   3
ATOM      3  O   UNL     1       3.615   0.377  22.292  0.00  0.00    -0.495 OA
ATOM     24  C   UNL     1       4.739   0.380  23.171  0.00  0.00    +0.277 C 
ENDBRANCH  21   3
BRANCH  22   4
ATOM      4  O   UNL     1      -0.257  -2.030  23.706  0.00  0.00    -0.495 OA
ATOM     25  C   UNL     1      -1.348  -2.054  24.623  0.00  0.00    +0.277 C 
ENDBRANCH  22   4
ENDBRANCH   6  18
BRANCH  17   1
ATOM      1  O   UNL     1      -0.684   4.431  25.681  0.00  0.00    -0.449 OA
BRANCH   1  15
ATOM     15  C   UNL     1      -2.066   4.379  25.382  0.00  0.00    +0.252 C 
BRANCH  15  10
ATOM      5  N   UNL     1      -3.165   3.176  23.475  0.00  0.00    -0.296 NA
ATOM      7  C   UNL     1      -4.202   1.332  24.987  0.00  0.00    -0.004 C 
ATOM      8  C   UNL     1      -5.270   2.370  24.572  0.00  0.00    +0.006 C 
ATOM      9  C   UNL     1      -3.045   2.050  25.704  0.00  0.00    +0.026 C 
ATOM     10  C   UNL     1      -2.367   3.032  24.722  0.00  0.00    +0.094 C 
ATOM     11  C   UNL     1      -4.572   3.513  23.801  0.00  0.00    +0.088 C 
ATOM     12  C   UNL     1      -3.632   0.732  23.688  0.00  0.00    +0.019 C 
ATOM     13  C   UNL     1      -3.153   1.871  22.771  0.00  0.00    +0.085 C 
BRANCH   8  14
ATOM     14  C   UNL     1      -6.085   2.901  25.750  0.00  0.00    +0.002 C 
ATOM     16  C   UNL     1      -6.505   1.781  26.681  0.00  0.00    +0.004 C 
ENDBRANCH   8  14
ENDBRANCH  15  10
ENDBRANCH   1  15
ENDBRANCH  17   1
TORSDOF 7
ENDMDL
MODEL 4
REMARK VINA RESULT:      -3.0      1.045      3.286
REMARK  Name = 11943194
REMARK  10 active torsions:
REMARK  status: ('A' for Active; 'I' for Inactive)
REMARK    1  A    between atoms: O_1  and  C_15
REMARK    2  A    between atoms: O_1  and  C_17
REMARK    3  A    between atoms: O_3  and  C_21
REMARK    4  A    between atoms: O_3  and  C_24
REMARK    5  A    between atoms: O_4  and  C_22
REMARK    6  A    between atoms: O_4  and  C_25
REMARK    7  A    between atoms: N_6  and  C_18
REMARK    8  A    between atoms: C_8  and  C_14
REMARK    9  A    between atoms: C_10  and  C_15
REMARK   10  A    between atoms: C_14  and  C_16
REMARK                            x       y       z     vdW  Elec       q    Type
REMARK                         _______ _______ _______ _____ _____    ______ ____
ROOT
ATOM      2  O   UNL     1       0.530   2.747  26.649  0.00  0.00    -0.226 OA
ATOM      6  N   UNL     1      -0.021   2.724  24.373  0.00  0.00    -0.251 N 
ATOM     17  C   UNL     1       0.005   3.236  25.656  0.00  0.00    +0.405 C 
ATOM     26  H   UNL     1      -0.511   3.282  23.678  0.00  0.00    +0.158 HD
ENDROOT
BRANCH   6  18
ATOM     18  C   UNL     1       0.552   1.520  23.905  0.00  0.00    +0.043 A 
ATOM     19  C   UNL     1       1.810   1.548  23.324  0.00  0.00    +0.069 A 
ATOM     20  C   UNL     1      -0.154   0.335  24.037  0.00  0.00    +0.069 A 
ATOM     21  C   UNL     1       0.412  -0.853  23.576  0.00  0.00    +0.125 A 
ATOM     22  C   UNL     1       2.376   0.359  22.863  0.00  0.00    +0.125 A 
ATOM     23  C   UNL     1       1.678  -0.841  22.988  0.00  0.00    +0.091 A 
BRANCH  21   3
ATOM      3  O   UNL     1      -0.270  -2.025  23.697  0.00  0.00    -0.495 OA
ATOM     24  C   UNL     1      -1.351  -2.053  24.628  0.00  0.00    +0.277 C 
ENDBRANCH  21   3
BRANCH  22   4
ATOM      4  O   UNL     1       3.611   0.371  22.289  0.00  0.00    -0.495 OA
ATOM     25  C   UNL     1       4.734   0.396  23.168  0.00  0.00    +0.277 C 
ENDBRANCH  22   4
ENDBRANCH   6  18
BRANCH  17   1
ATOM      1  O   UNL     1      -0.674   4.435  25.683  0.00  0.00    -0.449 OA
BRANCH   1  15
ATOM     15  C   UNL     1      -2.056   4.388  25.386  0.00  0.00    +0.252 C 
BRANCH  15  10
ATOM      5  N   UNL     1      -3.169   3.198  23.479  0.00  0.00    -0.296 NA
ATOM      7  C   UNL     1      -4.193   1.342  24.986  0.00  0.00    -0.004 C 
ATOM      8  C   UNL     1      -5.265   2.382  24.586  0.00  0.00    +0.006 C 
ATOM      9  C   UNL     1      -3.031   2.056  25.699  0.00  0.00    +0.026 C 
ATOM     10  C   UNL     1      -2.361   3.045  24.719  0.00  0.00    +0.094 C 
ATOM     11  C   UNL     1      -4.573   3.531  23.818  0.00  0.00    +0.088 C 
ATOM     12  C   UNL     1      -3.633   0.752  23.678  0.00  0.00    +0.019 C 
ATOM     13  C   UNL     1      -3.161   1.897  22.766  0.00  0.00    +0.085 C 
BRANCH   8  14
ATOM     14  C   UNL     1      -6.071   2.904  25.774  0.00  0.00    +0.002 C 
ATOM     16  C   UNL     1      -6.512   1.774  26.682  0.00  0.00    +0.004 C 
ENDBRANCH   8  14
ENDBRANCH  15  10
ENDBRANCH   1  15
ENDBRANCH  17   1
TORSDOF 7
ENDMDL
MODEL 5
REMARK VINA RESULT:      -1.1      2.258      4.063
REMARK  Name = 11943194
REMARK  10 active torsions:
REMARK  status: ('A' for Active; 'I' for Inactive)
REMARK    1  A    between atoms: O_1  and  C_15
REMARK    2  A    between atoms: O_1  and  C_17
REMARK    3  A    between atoms: O_3  and  C_21
REMARK    4  A    between atoms: O_3  and  C_24
REMARK    5  A    between atoms: O_4  and  C_22
REMARK    6  A    between atoms: O_4  and  C_25
REMARK    7  A    between atoms: N_6  and  C_18
REMARK    8  A    between atoms: C_8  and  C_14
REMARK    9  A    between atoms: C_10  and  C_15
REMARK   10  A    between atoms: C_14  and  C_16
REMARK                            x       y       z     vdW  Elec       q    Type
REMARK                         _______ _______ _______ _____ _____    ______ ____
ROOT
ATOM      2  O   UNL     1      -6.206   0.499  24.252  0.00  0.00    -0.226 OA
ATOM      6  N   UNL     1      -4.066   0.977  25.074  0.00  0.00    -0.251 N 
ATOM     17  C   UNL     1      -5.390   1.242  24.785  0.00  0.00    +0.405 C 
ATOM     26  H   UNL     1      -3.546   1.727  25.522  0.00  0.00    +0.158 HD
ENDROOT
BRANCH   6  18
ATOM     18  C   UNL     1      -3.343  -0.212  24.825  0.00  0.00    +0.043 A 
ATOM     19  C   UNL     1      -4.033  -1.397  24.627  0.00  0.00    +0.069 A 
ATOM     20  C   UNL     1      -1.958  -0.169  24.785  0.00  0.00    +0.069 A 
ATOM     21  C   UNL     1      -1.245  -1.342  24.539  0.00  0.00    +0.125 A 
ATOM     22  C   UNL     1      -3.319  -2.570  24.381  0.00  0.00    +0.125 A 
ATOM     23  C   UNL     1      -1.925  -2.543  24.337  0.00  0.00    +0.091 A 
BRANCH  21   3
ATOM      3  O   UNL     1       0.115  -1.316  24.498  0.00  0.00    -0.495 OA
ATOM     24  C   UNL     1       0.719  -0.435  23.551  0.00  0.00    +0.277 C 
ENDBRANCH  21   3
BRANCH  22   4
ATOM      4  O   UNL     1      -3.982  -3.743  24.184  0.00  0.00    -0.495 OA
ATOM     25  C   UNL     1      -4.972  -3.764  23.158  0.00  0.00    +0.277 C 
ENDBRANCH  22   4
ENDBRANCH   6  18
BRANCH  17   1
ATOM      1  O   UNL     1      -5.700   2.521  25.192  0.00  0.00    -0.449 OA
BRANCH   1  15
ATOM     15  C   UNL     1      -4.930   3.054  26.253  0.00  0.00    +0.252 C 
BRANCH  15  10
ATOM      5  N   UNL     1      -3.756   4.047  24.271  0.00  0.00    -0.296 NA
ATOM      7  C   UNL     1      -1.635   4.712  25.622  0.00  0.00    -0.004 C 
ATOM      8  C   UNL     1      -1.376   3.443  24.777  0.00  0.00    +0.006 C 
ATOM      9  C   UNL     1      -2.833   4.467  26.557  0.00  0.00    +0.026 C 
ATOM     10  C   UNL     1      -4.100   4.219  25.709  0.00  0.00    +0.094 C 
ATOM     11  C   UNL     1      -2.704   3.014  24.114  0.00  0.00    +0.088 C 
ATOM     12  C   UNL     1      -2.043   5.828  24.640  0.00  0.00    +0.019 C 
ATOM     13  C   UNL     1      -3.216   5.337  23.774  0.00  0.00    +0.085 C 
BRANCH   8  14
ATOM     14  C   UNL     1      -0.752   2.303  25.579  0.00  0.00    +0.002 C 
ATOM     16  C   UNL     1       0.398   2.793  26.435  0.00  0.00    +0.004 C 
ENDBRANCH   8  14
ENDBRANCH  15  10
ENDBRANCH   1  15
ENDBRANCH  17   1
TORSDOF 7
ENDMDL
MODEL 6
REMARK VINA RESULT:      -1.1      2.266      4.709
REMARK  Name = 11943194
REMARK  10 active torsions:
REMARK  status: ('A' for Active; 'I' for Inactive)
REMARK    1  A    between atoms: O_1  and  C_15
REMARK    2  A    between atoms: O_1  and  C_17
REMARK    3  A    between atoms: O_3  and  C_21
REMARK    4  A    between atoms: O_3  and  C_24
REMARK    5  A    between atoms: O_4  and  C_22
REMARK    6  A    between atoms: O_4  and  C_25
REMARK    7  A    between atoms: N_6  and  C_18
REMARK    8  A    between atoms: C_8  and  C_14
REMARK    9  A    between atoms: C_10  and  C_15
REMARK   10  A    between atoms: C_14  and  C_16
REMARK                            x       y       z     vdW  Elec       q    Type
REMARK                         _______ _______ _______ _____ _____    ______ ____
ROOT
ATOM      2  O   UNL     1      -6.248   0.463  24.306  0.00  0.00    -0.226 OA
ATOM      6  N   UNL     1      -4.089   0.976  25.051  0.00  0.00    -0.251 N 
ATOM     17  C   UNL     1      -5.423   1.224  24.797  0.00  0.00    +0.405 C 
ATOM     26  H   UNL     1      -3.561   1.740  25.466  0.00  0.00    +0.158 HD
ENDROOT
BRANCH   6  18
ATOM     18  C   UNL     1      -3.364  -0.213  24.808  0.00  0.00    +0.043 A 
ATOM     19  C   UNL     1      -1.979  -0.172  24.793  0.00  0.00    +0.069 A 
ATOM     20  C   UNL     1      -4.051  -1.396  24.590  0.00  0.00    +0.069 A 
ATOM     21  C   UNL     1      -3.336  -2.569  24.350  0.00  0.00    +0.125 A 
ATOM     22  C   UNL     1      -1.263  -1.345  24.554  0.00  0.00    +0.125 A 
ATOM     23  C   UNL     1      -1.940  -2.544  24.332  0.00  0.00    +0.091 A 
BRANCH  21   3
ATOM      3  O   UNL     1      -3.997  -3.738  24.133  0.00  0.00    -0.495 OA
ATOM     24  C   UNL     1      -5.070  -3.712  23.192  0.00  0.00    +0.277 C 
ENDBRANCH  21   3
BRANCH  22   4
ATOM      4  O   UNL     1       0.099  -1.321  24.535  0.00  0.00    -0.495 OA
ATOM     25  C   UNL     1       0.719  -0.419  23.621  0.00  0.00    +0.277 C 
ENDBRANCH  22   4
ENDBRANCH   6  18
BRANCH  17   1
ATOM      1  O   UNL     1      -5.730   2.510  25.184  0.00  0.00    -0.449 OA
BRANCH   1  15
ATOM     15  C   UNL     1      -4.968   3.054  26.245  0.00  0.00    +0.252 C 
BRANCH  15  10
ATOM      5  N   UNL     1      -3.775   4.026  24.263  0.00  0.00    -0.296 NA
ATOM      7  C   UNL     1      -1.671   4.714  25.628  0.00  0.00    -0.004 C 
ATOM      8  C   UNL     1      -1.399   3.435  24.802  0.00  0.00    +0.006 C 
ATOM      9  C   UNL     1      -2.878   4.477  26.553  0.00  0.00    +0.026 C 
ATOM     10  C   UNL     1      -4.136   4.214  25.695  0.00  0.00    +0.094 C 
ATOM     11  C   UNL     1      -2.719   2.994  24.130  0.00  0.00    +0.088 C 
ATOM     12  C   UNL     1      -2.072   5.815  24.628  0.00  0.00    +0.019 C 
ATOM     13  C   UNL     1      -3.234   5.310  23.756  0.00  0.00    +0.085 C 
BRANCH   8  14
ATOM     14  C   UNL     1      -0.781   2.306  25.625  0.00  0.00    +0.002 C 
ATOM     16  C   UNL     1       0.418   2.790  26.415  0.00  0.00    +0.004 C 
ENDBRANCH   8  14
ENDBRANCH  15  10
ENDBRANCH   1  15
ENDBRANCH  17   1
TORSDOF 7
ENDMDL
MODEL 7
REMARK VINA RESULT:      -0.6      1.973      5.893
REMARK  Name = 11943194
REMARK  10 active torsions:
REMARK  status: ('A' for Active; 'I' for Inactive)
REMARK    1  A    between atoms: O_1  and  C_15
REMARK    2  A    between atoms: O_1  and  C_17
REMARK    3  A    between atoms: O_3  and  C_21
REMARK    4  A    between atoms: O_3  and  C_24
REMARK    5  A    between atoms: O_4  and  C_22
REMARK    6  A    between atoms: O_4  and  C_25
REMARK    7  A    between atoms: N_6  and  C_18
REMARK    8  A    between atoms: C_8  and  C_14
REMARK    9  A    between atoms: C_10  and  C_15
REMARK   10  A    between atoms: C_14  and  C_16
REMARK                            x       y       z     vdW  Elec       q    Type
REMARK                         _______ _______ _______ _____ _____    ______ ____
ROOT
ATOM      2  O   UNL     1       0.483   0.887  23.446  0.00  0.00    -0.226 OA
ATOM      6  N   UNL     1      -0.867   1.047  25.352  0.00  0.00    -0.251 N 
ATOM     17  C   UNL     1      -0.045   0.411  24.444  0.00  0.00    +0.405 C 
ATOM     26  H   UNL     1      -1.210   0.478  26.122  0.00  0.00    +0.158 HD
ENDROOT
BRANCH   6  18
ATOM     18  C   UNL     1      -1.290   2.396  25.346  0.00  0.00    +0.043 A 
ATOM     19  C   UNL     1      -0.465   3.364  24.796  0.00  0.00    +0.069 A 
ATOM     20  C   UNL     1      -2.522   2.724  25.889  0.00  0.00    +0.069 A 
ATOM     21  C   UNL     1      -2.940   4.055  25.883  0.00  0.00    +0.125 A 
ATOM     22  C   UNL     1      -0.883   4.695  24.789  0.00  0.00    +0.125 A 
ATOM     23  C   UNL     1      -2.120   5.041  25.332  0.00  0.00    +0.091 A 
BRANCH  21   3
ATOM      3  O   UNL     1      -4.146   4.392  26.414  0.00  0.00    -0.495 OA
ATOM     24  C   UNL     1      -5.308   4.045  25.661  0.00  0.00    +0.277 C 
ENDBRANCH  21   3
BRANCH  22   4
ATOM      4  O   UNL     1      -0.083   5.657  24.252  0.00  0.00    -0.495 OA
ATOM     25  C   UNL     1       0.419   5.425  22.938  0.00  0.00    +0.277 C 
ENDBRANCH  22   4
ENDBRANCH   6  18
BRANCH  17   1
ATOM      1  O   UNL     1       0.118  -0.905  24.818  0.00  0.00    -0.449 OA
BRANCH   1  15
ATOM     15  C   UNL     1      -0.624  -1.342  25.941  0.00  0.00    +0.252 C 
BRANCH  15  10
ATOM      5  N   UNL     1      -1.821  -2.315  23.963  0.00  0.00    -0.296 NA
ATOM      7  C   UNL     1      -4.191  -1.851  24.929  0.00  0.00    -0.004 C 
ATOM      8  C   UNL     1      -3.827  -0.817  23.838  0.00  0.00    +0.006 C 
ATOM      9  C   UNL     1      -3.124  -1.819  26.038  0.00  0.00    +0.026 C 
ATOM     10  C   UNL     1      -1.760  -2.241  25.448  0.00  0.00    +0.094 C 
ATOM     11  C   UNL     1      -2.362  -1.053  23.406  0.00  0.00    +0.088 C 
ATOM     12  C   UNL     1      -4.120  -3.242  24.269  0.00  0.00    +0.019 C 
ATOM     13  C   UNL     1      -2.746  -3.416  23.599  0.00  0.00    +0.085 C 
BRANCH   8  14
ATOM     14  C   UNL     1      -4.061   0.627  24.274  0.00  0.00    +0.002 C 
ATOM     16  C   UNL     1      -5.411   0.791  24.944  0.00  0.00    +0.004 C 
ENDBRANCH   8  14
ENDBRANCH  15  10
ENDBRANCH   1  15
ENDBRANCH  17   1
TORSDOF 7
ENDMDL
MODEL 8
REMARK VINA RESULT:      -0.6      2.061      5.327
REMARK  Name = 11943194
REMARK  10 active torsions:
REMARK  status: ('A' for Active; 'I' for Inactive)
REMARK    1  A    between atoms: O_1  and  C_15
REMARK    2  A    between atoms: O_1  and  C_17
REMARK    3  A    between atoms: O_3  and  C_21
REMARK    4  A    between atoms: O_3  and  C_24
REMARK    5  A    between atoms: O_4  and  C_22
REMARK    6  A    between atoms: O_4  and  C_25
REMARK    7  A    between atoms: N_6  and  C_18
REMARK    8  A    between atoms: C_8  and  C_14
REMARK    9  A    between atoms: C_10  and  C_15
REMARK   10  A    between atoms: C_14  and  C_16
REMARK                            x       y       z     vdW  Elec       q    Type
REMARK                         _______ _______ _______ _____ _____    ______ ____
ROOT
ATOM      2  O   UNL     1       0.348   0.842  23.846  0.00  0.00    -0.226 OA
ATOM      6  N   UNL     1      -1.154   1.132  25.619  0.00  0.00    -0.251 N 
ATOM     17  C   UNL     1      -0.268   0.433  24.824  0.00  0.00    +0.405 C 
ATOM     26  H   UNL     1      -1.569   0.616  26.391  0.00  0.00    +0.158 HD
ENDROOT
BRANCH   6  18
ATOM     18  C   UNL     1      -1.556   2.482  25.494  0.00  0.00    +0.043 A 
ATOM     19  C   UNL     1      -2.855   2.836  25.824  0.00  0.00    +0.069 A 
ATOM     20  C   UNL     1      -0.645   3.424  25.045  0.00  0.00    +0.069 A 
ATOM     21  C   UNL     1      -1.042   4.755  24.922  0.00  0.00    +0.125 A 
ATOM     22  C   UNL     1      -3.252   4.168  25.701  0.00  0.00    +0.125 A 
ATOM     23  C   UNL     1      -2.346   5.127  25.250  0.00  0.00    +0.091 A 
BRANCH  21   3
ATOM      3  O   UNL     1      -0.158   5.691  24.481  0.00  0.00    -0.495 OA
ATOM     24  C   UNL     1       0.445   5.466  23.207  0.00  0.00    +0.277 C 
ENDBRANCH  21   3
BRANCH  22   4
ATOM      4  O   UNL     1      -4.525   4.532  26.020  0.00  0.00    -0.495 OA
ATOM     25  C   UNL     1      -5.553   3.574  25.778  0.00  0.00    +0.277 C 
ENDBRANCH  22   4
ENDBRANCH   6  18
BRANCH  17   1
ATOM      1  O   UNL     1      -0.156  -0.859  25.291  0.00  0.00    -0.449 OA
BRANCH   1  15
ATOM     15  C   UNL     1      -1.061  -1.247  26.307  0.00  0.00    +0.252 C 
BRANCH  15  10
ATOM      5  N   UNL     1      -1.924  -2.370  24.236  0.00  0.00    -0.296 NA
ATOM      7  C   UNL     1      -4.322  -1.393  24.477  0.00  0.00    -0.004 C 
ATOM      8  C   UNL     1      -3.525  -0.637  23.389  0.00  0.00    +0.006 C 
ATOM      9  C   UNL     1      -3.559  -1.321  25.811  0.00  0.00    +0.026 C 
ATOM     10  C   UNL     1      -2.199  -2.040  25.661  0.00  0.00    +0.094 C 
ATOM     11  C   UNL     1      -2.071  -1.161  23.391  0.00  0.00    +0.088 C 
ATOM     12  C   UNL     1      -4.364  -2.874  24.054  0.00  0.00    +0.019 C 
ATOM     13  C   UNL     1      -2.929  -3.368  23.796  0.00  0.00    +0.085 C 
BRANCH   8  14
ATOM     14  C   UNL     1      -3.578   0.881  23.548  0.00  0.00    +0.002 C 
ATOM     16  C   UNL     1      -2.836   1.580  22.426  0.00  0.00    +0.004 C 
ENDBRANCH   8  14
ENDBRANCH  15  10
ENDBRANCH   1  15
ENDBRANCH  17   1
TORSDOF 7
ENDMDL
MODEL 9
REMARK VINA RESULT:      -0.5      1.642      3.992
REMARK  Name = 11943194
REMARK  10 active torsions:
REMARK  status: ('A' for Active; 'I' for Inactive)
REMARK    1  A    between atoms: O_1  and  C_15
REMARK    2  A    between atoms: O_1  and  C_17
REMARK    3  A    between atoms: O_3  and  C_21
REMARK    4  A    between atoms: O_3  and  C_24
REMARK    5  A    between atoms: O_4  and  C_22
REMARK    6  A    between atoms: O_4  and  C_25
REMARK    7  A    between atoms: N_6  and  C_18
REMARK    8  A    between atoms: C_8  and  C_14
REMARK    9  A    between atoms: C_10  and  C_15
REMARK   10  A    between atoms: C_14  and  C_16
REMARK                            x       y       z     vdW  Elec       q    Type
REMARK                         _______ _______ _______ _____ _____    ______ ____
ROOT
ATOM      2  O   UNL     1      -1.686  -2.434  25.386  0.00  0.00    -0.226 OA
ATOM      6  N   UNL     1      -2.124  -0.490  24.156  0.00  0.00    -0.251 N 
ATOM     17  C   UNL     1      -2.437  -1.686  24.772  0.00  0.00    +0.405 C 
ATOM     26  H   UNL     1      -2.891  -0.010  23.692  0.00  0.00    +0.158 HD
ENDROOT
BRANCH   6  18
ATOM     18  C   UNL     1      -0.866   0.152  24.093  0.00  0.00    +0.043 A 
ATOM     19  C   UNL     1       0.068  -0.276  23.163  0.00  0.00    +0.069 A 
ATOM     20  C   UNL     1      -0.591   1.196  24.962  0.00  0.00    +0.069 A 
ATOM     21  C   UNL     1       0.650   1.829  24.900  0.00  0.00    +0.125 A 
ATOM     22  C   UNL     1       1.309   0.358  23.100  0.00  0.00    +0.125 A 
ATOM     23  C   UNL     1       1.601   1.410  23.968  0.00  0.00    +0.091 A 
BRANCH  21   3
ATOM      3  O   UNL     1       0.934   2.855  25.748  0.00  0.00    -0.495 OA
ATOM     24  C   UNL     1       0.489   2.725  27.097  0.00  0.00    +0.277 C 
ENDBRANCH  21   3
BRANCH  22   4
ATOM      4  O   UNL     1       2.238  -0.051  22.192  0.00  0.00    -0.495 OA
ATOM     25  C   UNL     1       3.575   0.410  22.379  0.00  0.00    +0.277 C 
ENDBRANCH  22   4
ENDBRANCH   6  18
BRANCH  17   1
ATOM      1  O   UNL     1      -3.778  -1.952  24.597  0.00  0.00    -0.449 OA
BRANCH   1  15
ATOM     15  C   UNL     1      -4.537  -0.970  23.917  0.00  0.00    +0.252 C 
BRANCH  15  10
ATOM      5  N   UNL     1      -5.915   1.083  24.341  0.00  0.00    -0.296 NA
ATOM      7  C   UNL     1      -4.057   2.277  25.714  0.00  0.00    -0.004 C 
ATOM      8  C   UNL     1      -4.148   2.860  24.285  0.00  0.00    +0.006 C 
ATOM      9  C   UNL     1      -3.798   0.762  25.631  0.00  0.00    +0.026 C 
ATOM     10  C   UNL     1      -4.994   0.076  24.935  0.00  0.00    +0.094 C 
ATOM     11  C   UNL     1      -5.161   2.021  23.475  0.00  0.00    +0.088 C 
ATOM     12  C   UNL     1      -5.441   2.468  26.365  0.00  0.00    +0.019 C 
ATOM     13  C   UNL     1      -6.519   1.860  25.450  0.00  0.00    +0.085 C 
BRANCH   8  14
ATOM     14  C   UNL     1      -2.795   2.945  23.581  0.00  0.00    +0.002 C 
ATOM     16  C   UNL     1      -2.863   2.364  22.183  0.00  0.00    +0.004 C 
ENDBRANCH   8  14
ENDBRANCH  15  10
ENDBRANCH   1  15
ENDBRANCH  17   1
TORSDOF 7
ENDMDL
MODEL 10
REMARK VINA RESULT:       0.6      1.794      2.961
REMARK  Name = 11943194
REMARK  10 active torsions:
REMARK  status: ('A' for Active; 'I' for Inactive)
REMARK    1  A    between atoms: O_1  and  C_15
REMARK    2  A    between atoms: O_1  and  C_17
REMARK    3  A    between atoms: O_3  and  C_21
REMARK    4  A    between atoms: O_3  and  C_24
REMARK    5  A    between atoms: O_4  and  C_22
REMARK    6  A    between atoms: O_4  and  C_25
REMARK    7  A    between atoms: N_6  and  C_18
REMARK    8  A    between atoms: C_8  and  C_14
REMARK    9  A    between atoms: C_10  and  C_15
REMARK   10  A    between atoms: C_14  and  C_16
REMARK                            x       y       z     vdW  Elec       q    Type
REMARK                         _______ _______ _______ _____ _____    ______ ____
ROOT
ATOM      2  O   UNL     1       0.051   3.966  23.640  0.00  0.00    -0.226 OA
ATOM      6  N   UNL     1       0.608   1.999  24.780  0.00  0.00    -0.251 N 
ATOM     17  C   UNL     1       0.033   3.246  24.630  0.00  0.00    +0.405 C 
ATOM     26  H   UNL     1       0.483   1.554  25.686  0.00  0.00    +0.158 HD
ENDROOT
BRANCH   6  18
ATOM     18  C   UNL     1       1.349   1.262  23.828  0.00  0.00    +0.043 A 
ATOM     19  C   UNL     1       0.682   0.412  22.960  0.00  0.00    +0.069 A 
ATOM     20  C   UNL     1       2.726   1.405  23.780  0.00  0.00    +0.069 A 
ATOM     21  C   UNL     1       3.457   0.678  22.841  0.00  0.00    +0.125 A 
ATOM     22  C   UNL     1       1.413  -0.314  22.020  0.00  0.00    +0.125 A 
ATOM     23  C   UNL     1       2.800  -0.182  21.960  0.00  0.00    +0.091 A 
BRANCH  21   3
ATOM      3  O   UNL     1       4.811   0.807  22.783  0.00  0.00    -0.495 OA
ATOM     24  C   UNL     1       5.580  -0.045  23.631  0.00  0.00    +0.277 C 
ENDBRANCH  21   3
BRANCH  22   4
ATOM      4  O   UNL     1       0.773  -1.154  21.160  0.00  0.00    -0.495 OA
ATOM     25  C   UNL     1       0.077  -0.557  20.067  0.00  0.00    +0.277 C 
ENDBRANCH  22   4
ENDBRANCH   6  18
BRANCH  17   1
ATOM      1  O   UNL     1      -0.599   3.601  25.802  0.00  0.00    -0.449 OA
BRANCH   1  15
ATOM     15  C   UNL     1      -1.906   3.096  25.997  0.00  0.00    +0.252 C 
BRANCH  15  10
ATOM      5  N   UNL     1      -2.887   2.519  23.761  0.00  0.00    -0.296 NA
ATOM      7  C   UNL     1      -4.000   0.325  24.603  0.00  0.00    -0.004 C 
ATOM      8  C   UNL     1      -5.048   1.452  24.452  0.00  0.00    +0.006 C 
ATOM      9  C   UNL     1      -2.890   0.786  25.563  0.00  0.00    +0.026 C 
ATOM     10  C   UNL     1      -2.161   2.005  24.954  0.00  0.00    +0.094 C 
ATOM     11  C   UNL     1      -4.311   2.762  24.091  0.00  0.00    +0.088 C 
ATOM     12  C   UNL     1      -3.353   0.126  23.219  0.00  0.00    +0.019 C 
ATOM     13  C   UNL     1      -2.827   1.478  22.706  0.00  0.00    +0.085 C 
BRANCH   8  14
ATOM     14  C   UNL     1      -5.932   1.623  25.685  0.00  0.00    +0.002 C 
ATOM     16  C   UNL     1      -5.786   3.010  26.281  0.00  0.00    +0.004 C 
ENDBRANCH   8  14
ENDBRANCH  15  10
ENDBRANCH   1  15
ENDBRANCH  17   1
TORSDOF 7
ENDMDL
