MODEL 1
REMARK VINA RESULT:       9.6      0.000      0.000
REMARK  Name = 40777123
REMARK  10 active torsions:
REMARK  status: ('A' for Active; 'I' for Inactive)
REMARK    1  A    between atoms: N_4  and  C_14
REMARK    2  A    between atoms: C_8  and  C_15
REMARK    3  A    between atoms: C_9  and  C_14
REMARK    4  A    between atoms: C_17  and  C_20
REMARK    5  A    between atoms: C_18  and  C_21
REMARK    6  A    between atoms: C_19  and  C_22
REMARK    7  A    between atoms: C_27  and  C_28
REMARK    8  A    between atoms: C_27  and  C_33
REMARK    9  A    between atoms: C_27  and  C_34
REMARK   10  A    between atoms: C_27  and  C_35
REMARK                            x       y       z     vdW  Elec       q    Type
REMARK                         _______ _______ _______ _____ _____    ______ ____
ROOT
ATOM      3  N   UNL     1      -3.167  -2.408  23.818  0.00  0.00    -0.297 NA
ATOM      7  C   UNL     1      -3.041  -1.366  26.202  0.00  0.00    +0.002 C 
ATOM      8  C   UNL     1      -4.178  -0.702  25.376  0.00  0.00    +0.055 C 
ATOM      9  C   UNL     1      -1.767  -2.017  24.128  0.00  0.00    +0.074 C 
ATOM     10  C   UNL     1      -1.705  -1.212  25.444  0.00  0.00    +0.024 C 
ATOM     11  C   UNL     1      -3.358  -2.875  26.261  0.00  0.00    +0.019 C 
ATOM     12  C   UNL     1      -4.060  -1.227  23.917  0.00  0.00    +0.094 C 
ATOM     13  C   UNL     1      -3.596  -3.400  24.834  0.00  0.00    +0.085 C 
ENDROOT
BRANCH   8  15
ATOM      5  N   UNL     1      -5.547   1.299  25.703  0.00  0.00    -0.237 NA
ATOM      6  N   UNL     1      -4.629   3.522  25.552  0.00  0.00    -0.232 NA
ATOM     15  C   UNL     1      -4.318   0.813  25.436  0.00  0.00    +0.050 A 
ATOM     16  C   UNL     1      -3.210   1.607  25.218  0.00  0.00    +0.052 A 
ATOM     17  C   UNL     1      -3.427   2.968  25.290  0.00  0.00    +0.076 A 
ATOM     19  C   UNL     1      -5.630   2.643  25.745  0.00  0.00    +0.127 A 
ATOM     22  C   UNL     1      -6.975   3.218  26.037  0.00  0.00    +0.088 C 
BRANCH  17  20
ATOM      1 BR   UNL     1      -0.500   1.682  25.217  0.00  0.00    -0.050 Br
ATOM     20  C   UNL     1      -2.350   3.906  25.079  0.00  0.00    +0.014 A 
ATOM     25  C   UNL     1      -1.017   3.501  25.022  0.00  0.00    +0.027 A 
ATOM     26  C   UNL     1      -2.677   5.254  24.931  0.00  0.00    +0.011 A 
ATOM     31  C   UNL     1      -0.010   4.443  24.817  0.00  0.00    +0.016 A 
ATOM     32  C   UNL     1      -1.670   6.197  24.726  0.00  0.00    +0.001 A 
ATOM     36  C   UNL     1      -0.337   5.792  24.670  0.00  0.00    +0.001 A 
ENDBRANCH  17  20
ENDBRANCH   8  15
BRANCH   9  14
ATOM     14  C   UNL     1      -1.102  -1.269  22.971  0.00  0.00    +0.123 C 
BRANCH  14   4
ATOM      2  O   UNL     1       0.861  -0.281  21.123  0.00  0.00    -0.270 OA
ATOM      4  N   UNL     1       0.288  -1.053  23.234  0.00  0.00    -0.310 N 
ATOM     18  C   UNL     1       1.174  -0.568  22.275  0.00  0.00    +0.244 C 
ATOM     37  H   UNL     1       0.626  -1.329  24.149  0.00  0.00    +0.149 HD
BRANCH  18  21
ATOM     21  C   UNL     1       2.590  -0.425  22.698  0.00  0.00    +0.037 A 
ATOM     23  C   UNL     1       3.307   0.724  22.361  0.00  0.00    +0.013 A 
ATOM     24  C   UNL     1       3.206  -1.439  23.432  0.00  0.00    +0.013 A 
ATOM     28  C   UNL     1       5.252  -0.156  23.491  0.00  0.00    -0.042 A 
ATOM     29  C   UNL     1       4.638   0.858  22.757  0.00  0.00    +0.005 A 
ATOM     30  C   UNL     1       4.537  -1.305  23.829  0.00  0.00    +0.005 A 
BRANCH  28  27
ATOM     27  C   UNL     1       6.675  -0.013  23.915  0.00  0.00    -0.013 C 
ATOM     33  C   UNL     1       6.970  -0.853  25.197  0.00  0.00    +0.015 C 
ATOM     34  C   UNL     1       7.023   1.473  24.235  0.00  0.00    +0.015 C 
ATOM     35  C   UNL     1       7.739  -0.472  22.864  0.00  0.00    +0.015 C 
ENDBRANCH  28  27
ENDBRANCH  18  21
ENDBRANCH  14   4
ENDBRANCH   9  14
TORSDOF 6
ENDMDL
MODEL 2
REMARK VINA RESULT:      12.3      2.400      7.603
REMARK  Name = 40777123
REMARK  10 active torsions:
REMARK  status: ('A' for Active; 'I' for Inactive)
REMARK    1  A    between atoms: N_4  and  C_14
REMARK    2  A    between atoms: C_8  and  C_15
REMARK    3  A    between atoms: C_9  and  C_14
REMARK    4  A    between atoms: C_17  and  C_20
REMARK    5  A    between atoms: C_18  and  C_21
REMARK    6  A    between atoms: C_19  and  C_22
REMARK    7  A    between atoms: C_27  and  C_28
REMARK    8  A    between atoms: C_27  and  C_33
REMARK    9  A    between atoms: C_27  and  C_34
REMARK   10  A    between atoms: C_27  and  C_35
REMARK                            x       y       z     vdW  Elec       q    Type
REMARK                         _______ _______ _______ _____ _____    ______ ____
ROOT
ATOM      3  N   UNL     1      -3.786   4.971  24.305  0.00  0.00    -0.297 NA
ATOM      7  C   UNL     1      -1.259   5.180  24.900  0.00  0.00    +0.002 C 
ATOM      8  C   UNL     1      -1.492   3.991  23.927  0.00  0.00    +0.055 C 
ATOM      9  C   UNL     1      -3.618   5.066  25.779  0.00  0.00    +0.074 C 
ATOM     10  C   UNL     1      -2.124   4.982  26.163  0.00  0.00    +0.024 C 
ATOM     11  C   UNL     1      -1.778   6.446  24.188  0.00  0.00    +0.019 C 
ATOM     12  C   UNL     1      -3.030   3.806  23.780  0.00  0.00    +0.094 C 
ATOM     13  C   UNL     1      -3.218   6.201  23.703  0.00  0.00    +0.085 C 
ENDROOT
BRANCH   8  15
ATOM      5  N   UNL     1      -1.372   1.840  25.087  0.00  0.00    -0.237 NA
ATOM      6  N   UNL     1       0.461   0.309  24.766  0.00  0.00    -0.232 NA
ATOM     15  C   UNL     1      -0.777   2.678  24.213  0.00  0.00    +0.050 A 
ATOM     16  C   UNL     1       0.421   2.405  23.584  0.00  0.00    +0.052 A 
ATOM     17  C   UNL     1       1.000   1.193  23.901  0.00  0.00    +0.076 A 
ATOM     19  C   UNL     1      -0.709   0.691  25.314  0.00  0.00    +0.127 A 
ATOM     22  C   UNL     1      -1.335  -0.261  26.276  0.00  0.00    +0.088 C 
BRANCH  17  20
ATOM      1 BR   UNL     1       0.749  -0.660  21.307  0.00  0.00    -0.050 Br
ATOM     20  C   UNL     1       2.255   0.790  23.313  0.00  0.00    +0.014 A 
ATOM     25  C   UNL     1       2.313  -0.019  22.178  0.00  0.00    +0.027 A 
ATOM     26  C   UNL     1       3.432   1.234  23.914  0.00  0.00    +0.011 A 
ATOM     31  C   UNL     1       3.548  -0.383  21.644  0.00  0.00    +0.016 A 
ATOM     32  C   UNL     1       4.668   0.869  23.381  0.00  0.00    +0.001 A 
ATOM     36  C   UNL     1       4.726   0.061  22.246  0.00  0.00    +0.001 A 
ENDBRANCH  17  20
ENDBRANCH   8  15
BRANCH   9  14
ATOM     14  C   UNL     1      -4.458   4.032  26.530  0.00  0.00    +0.123 C 
BRANCH  14   4
ATOM      2  O   UNL     1      -6.092   2.303  24.922  0.00  0.00    -0.270 OA
ATOM      4  N   UNL     1      -4.136   2.705  26.104  0.00  0.00    -0.310 N 
ATOM     18  C   UNL     1      -4.991   1.932  25.321  0.00  0.00    +0.244 C 
ATOM     37  H   UNL     1      -3.267   2.314  26.451  0.00  0.00    +0.149 HD
BRANCH  18  21
ATOM     21  C   UNL     1      -4.521   0.564  24.985  0.00  0.00    +0.037 A 
ATOM     23  C   UNL     1      -4.369  -0.390  25.992  0.00  0.00    +0.013 A 
ATOM     24  C   UNL     1      -4.230   0.231  23.661  0.00  0.00    +0.013 A 
ATOM     28  C   UNL     1      -3.636  -2.006  24.353  0.00  0.00    -0.042 A 
ATOM     29  C   UNL     1      -3.926  -1.674  25.676  0.00  0.00    +0.005 A 
ATOM     30  C   UNL     1      -3.789  -1.053  23.345  0.00  0.00    +0.005 A 
BRANCH  28  27
ATOM     27  C   UNL     1      -3.164  -3.379  24.014  0.00  0.00    -0.013 C 
ATOM     33  C   UNL     1      -4.033  -4.014  22.885  0.00  0.00    +0.015 C 
ATOM     34  C   UNL     1      -3.237  -4.324  25.253  0.00  0.00    +0.015 C 
ATOM     35  C   UNL     1      -1.687  -3.475  23.505  0.00  0.00    +0.015 C 
ENDBRANCH  28  27
ENDBRANCH  18  21
ENDBRANCH  14   4
ENDBRANCH   9  14
TORSDOF 6
ENDMDL
MODEL 3
REMARK VINA RESULT:      12.9      2.642      5.796
REMARK  Name = 40777123
REMARK  10 active torsions:
REMARK  status: ('A' for Active; 'I' for Inactive)
REMARK    1  A    between atoms: N_4  and  C_14
REMARK    2  A    between atoms: C_8  and  C_15
REMARK    3  A    between atoms: C_9  and  C_14
REMARK    4  A    between atoms: C_17  and  C_20
REMARK    5  A    between atoms: C_18  and  C_21
REMARK    6  A    between atoms: C_19  and  C_22
REMARK    7  A    between atoms: C_27  and  C_28
REMARK    8  A    between atoms: C_27  and  C_33
REMARK    9  A    between atoms: C_27  and  C_34
REMARK   10  A    between atoms: C_27  and  C_35
REMARK                            x       y       z     vdW  Elec       q    Type
REMARK                         _______ _______ _______ _____ _____    ______ ____
ROOT
ATOM      3  N   UNL     1      -4.789   3.255  25.791  0.00  0.00    -0.297 NA
ATOM      7  C   UNL     1      -5.876   1.291  24.470  0.00  0.00    +0.002 C 
ATOM      8  C   UNL     1      -4.774   0.758  25.428  0.00  0.00    +0.055 C 
ATOM      9  C   UNL     1      -4.814   3.572  24.338  0.00  0.00    +0.074 C 
ATOM     10  C   UNL     1      -5.262   2.341  23.520  0.00  0.00    +0.024 C 
ATOM     11  C   UNL     1      -6.913   2.024  25.347  0.00  0.00    +0.019 C 
ATOM     12  C   UNL     1      -4.041   1.994  26.024  0.00  0.00    +0.094 C 
ATOM     13  C   UNL     1      -6.189   3.051  26.235  0.00  0.00    +0.085 C 
ENDROOT
BRANCH   8  15
ATOM      5  N   UNL     1      -4.291  -1.534  24.722  0.00  0.00    -0.237 NA
ATOM      6  N   UNL     1      -2.111  -2.207  23.948  0.00  0.00    -0.232 NA
ATOM     15  C   UNL     1      -3.805  -0.288  24.896  0.00  0.00    +0.050 A 
ATOM     16  C   UNL     1      -2.500   0.071  24.622  0.00  0.00    +0.052 A 
ATOM     17  C   UNL     1      -1.691  -0.939  24.145  0.00  0.00    +0.076 A 
ATOM     19  C   UNL     1      -3.403  -2.430  24.252  0.00  0.00    +0.127 A 
ATOM     22  C   UNL     1      -3.904  -3.820  24.049  0.00  0.00    +0.088 C 
BRANCH  17  20
ATOM      1 BR   UNL     1       0.408  -2.828  25.647  0.00  0.00    -0.050 Br
ATOM     20  C   UNL     1      -0.305  -0.694  23.822  0.00  0.00    +0.014 A 
ATOM     25  C   UNL     1       0.729  -1.434  24.394  0.00  0.00    +0.027 A 
ATOM     26  C   UNL     1      -0.015   0.317  22.907  0.00  0.00    +0.011 A 
ATOM     31  C   UNL     1       2.054  -1.163  24.052  0.00  0.00    +0.016 A 
ATOM     32  C   UNL     1       1.309   0.590  22.565  0.00  0.00    +0.001 A 
ATOM     36  C   UNL     1       2.343  -0.150  23.138  0.00  0.00    +0.001 A 
ENDBRANCH  17  20
ENDBRANCH   8  15
BRANCH   9  14
ATOM     14  C   UNL     1      -3.480   4.132  23.841  0.00  0.00    +0.123 C 
BRANCH  14   4
ATOM      2  O   UNL     1      -1.043   2.651  23.507  0.00  0.00    -0.270 OA
ATOM      4  N   UNL     1      -2.452   3.947  24.818  0.00  0.00    -0.310 N 
ATOM     18  C   UNL     1      -1.296   3.210  24.571  0.00  0.00    +0.244 C 
ATOM     37  H   UNL     1      -2.627   4.330  25.741  0.00  0.00    +0.149 HD
BRANCH  18  21
ATOM     21  C   UNL     1      -0.337   3.089  25.698  0.00  0.00    +0.037 A 
ATOM     23  C   UNL     1      -0.517   2.100  26.666  0.00  0.00    +0.013 A 
ATOM     24  C   UNL     1       0.744   3.967  25.792  0.00  0.00    +0.013 A 
ATOM     28  C   UNL     1       1.464   2.865  27.818  0.00  0.00    -0.042 A 
ATOM     29  C   UNL     1       0.383   1.988  27.725  0.00  0.00    +0.005 A 
ATOM     30  C   UNL     1       1.645   3.854  26.851  0.00  0.00    +0.005 A 
BRANCH  28  27
ATOM     27  C   UNL     1       2.427   2.745  28.950  0.00  0.00    -0.013 C 
ATOM     33  C   UNL     1       1.800   1.965  30.147  0.00  0.00    +0.015 C 
ATOM     34  C   UNL     1       2.857   4.149  29.477  0.00  0.00    +0.015 C 
ATOM     35  C   UNL     1       3.761   1.998  28.621  0.00  0.00    +0.015 C 
ENDBRANCH  28  27
ENDBRANCH  18  21
ENDBRANCH  14   4
ENDBRANCH   9  14
TORSDOF 6
ENDMDL
MODEL 4
REMARK VINA RESULT:      13.4      2.611      6.080
REMARK  Name = 40777123
REMARK  10 active torsions:
REMARK  status: ('A' for Active; 'I' for Inactive)
REMARK    1  A    between atoms: N_4  and  C_14
REMARK    2  A    between atoms: C_8  and  C_15
REMARK    3  A    between atoms: C_9  and  C_14
REMARK    4  A    between atoms: C_17  and  C_20
REMARK    5  A    between atoms: C_18  and  C_21
REMARK    6  A    between atoms: C_19  and  C_22
REMARK    7  A    between atoms: C_27  and  C_28
REMARK    8  A    between atoms: C_27  and  C_33
REMARK    9  A    between atoms: C_27  and  C_34
REMARK   10  A    between atoms: C_27  and  C_35
REMARK                            x       y       z     vdW  Elec       q    Type
REMARK                         _______ _______ _______ _____ _____    ______ ____
ROOT
ATOM      3  N   UNL     1      -5.233   3.843  26.831  0.00  0.00    -0.297 NA
ATOM      7  C   UNL     1      -4.871   4.372  24.307  0.00  0.00    +0.002 C 
ATOM      8  C   UNL     1      -4.927   2.837  24.539  0.00  0.00    +0.055 C 
ATOM      9  C   UNL     1      -4.116   4.812  26.671  0.00  0.00    +0.074 C 
ATOM     10  C   UNL     1      -3.751   4.979  25.180  0.00  0.00    +0.024 C 
ATOM     11  C   UNL     1      -6.207   4.949  24.819  0.00  0.00    +0.019 C 
ATOM     12  C   UNL     1      -4.941   2.600  26.076  0.00  0.00    +0.094 C 
ATOM     13  C   UNL     1      -6.454   4.459  26.256  0.00  0.00    +0.085 C 
ENDROOT
BRANCH   8  15
ATOM      5  N   UNL     1      -3.465   2.396  22.628  0.00  0.00    -0.237 NA
ATOM      6  N   UNL     1      -2.061   0.441  22.508  0.00  0.00    -0.232 NA
ATOM     15  C   UNL     1      -3.900   1.965  23.829  0.00  0.00    +0.050 A 
ATOM     16  C   UNL     1      -3.469   0.798  24.427  0.00  0.00    +0.052 A 
ATOM     17  C   UNL     1      -2.539   0.070  23.714  0.00  0.00    +0.076 A 
ATOM     19  C   UNL     1      -2.559   1.598  22.031  0.00  0.00    +0.127 A 
ATOM     22  C   UNL     1      -2.055   2.041  20.700  0.00  0.00    +0.088 C 
BRANCH  17  20
ATOM      1 BR   UNL     1      -4.567  -2.403  23.647  0.00  0.00    -0.050 Br
ATOM     20  C   UNL     1      -2.010  -1.171  24.229  0.00  0.00    +0.014 A 
ATOM     25  C   UNL     1      -2.770  -2.339  24.267  0.00  0.00    +0.027 A 
ATOM     26  C   UNL     1      -0.697  -1.177  24.698  0.00  0.00    +0.011 A 
ATOM     31  C   UNL     1      -2.218  -3.515  24.774  0.00  0.00    +0.016 A 
ATOM     32  C   UNL     1      -0.143  -2.353  25.205  0.00  0.00    +0.001 A 
ATOM     36  C   UNL     1      -0.904  -3.521  25.243  0.00  0.00    +0.001 A 
ENDBRANCH  17  20
ENDBRANCH   8  15
BRANCH   9  14
ATOM     14  C   UNL     1      -2.898   4.442  27.518  0.00  0.00    +0.123 C 
BRANCH  14   4
ATOM      2  O   UNL     1      -1.310   5.298  25.285  0.00  0.00    -0.270 OA
ATOM      4  N   UNL     1      -1.978   3.644  26.769  0.00  0.00    -0.310 N 
ATOM     18  C   UNL     1      -1.244   4.141  25.694  0.00  0.00    +0.244 C 
ATOM     37  H   UNL     1      -1.921   2.662  27.015  0.00  0.00    +0.149 HD
BRANCH  18  21
ATOM     21  C   UNL     1      -0.350   3.178  25.003  0.00  0.00    +0.037 A 
ATOM     23  C   UNL     1      -0.015   1.970  25.618  0.00  0.00    +0.013 A 
ATOM     24  C   UNL     1       0.158   3.479  23.739  0.00  0.00    +0.013 A 
ATOM     28  C   UNL     1       1.332   1.368  23.705  0.00  0.00    -0.042 A 
ATOM     29  C   UNL     1       0.825   1.066  24.969  0.00  0.00    +0.005 A 
ATOM     30  C   UNL     1       0.997   2.575  23.089  0.00  0.00    +0.005 A 
BRANCH  28  27
ATOM     27  C   UNL     1       2.230   0.402  23.011  0.00  0.00    -0.013 C 
ATOM     33  C   UNL     1       3.520   1.105  22.487  0.00  0.00    +0.015 C 
ATOM     34  C   UNL     1       1.519  -0.251  21.785  0.00  0.00    +0.015 C 
ATOM     35  C   UNL     1       2.734  -0.794  23.885  0.00  0.00    +0.015 C 
ENDBRANCH  28  27
ENDBRANCH  18  21
ENDBRANCH  14   4
ENDBRANCH   9  14
TORSDOF 6
ENDMDL
MODEL 5
REMARK VINA RESULT:      13.6      2.753      5.207
REMARK  Name = 40777123
REMARK  10 active torsions:
REMARK  status: ('A' for Active; 'I' for Inactive)
REMARK    1  A    between atoms: N_4  and  C_14
REMARK    2  A    between atoms: C_8  and  C_15
REMARK    3  A    between atoms: C_9  and  C_14
REMARK    4  A    between atoms: C_17  and  C_20
REMARK    5  A    between atoms: C_18  and  C_21
REMARK    6  A    between atoms: C_19  and  C_22
REMARK    7  A    between atoms: C_27  and  C_28
REMARK    8  A    between atoms: C_27  and  C_33
REMARK    9  A    between atoms: C_27  and  C_34
REMARK   10  A    between atoms: C_27  and  C_35
REMARK                            x       y       z     vdW  Elec       q    Type
REMARK                         _______ _______ _______ _____ _____    ______ ____
ROOT
ATOM      3  N   UNL     1      -5.676   2.215  24.373  0.00  0.00    -0.297 NA
ATOM      7  C   UNL     1      -4.679   3.800  26.183  0.00  0.00    +0.002 C 
ATOM      8  C   UNL     1      -3.793   3.807  24.906  0.00  0.00    +0.055 C 
ATOM      9  C   UNL     1      -5.584   1.504  25.676  0.00  0.00    +0.074 C 
ATOM     10  C   UNL     1      -4.808   2.353  26.706  0.00  0.00    +0.024 C 
ATOM     11  C   UNL     1      -6.089   4.253  25.749  0.00  0.00    +0.019 C 
ATOM     12  C   UNL     1      -4.334   2.696  23.960  0.00  0.00    +0.094 C 
ATOM     13  C   UNL     1      -6.554   3.394  24.560  0.00  0.00    +0.085 C 
ENDROOT
BRANCH   8  15
ATOM      5  N   UNL     1      -1.533   4.009  23.993  0.00  0.00    -0.237 NA
ATOM      6  N   UNL     1       0.433   3.614  25.330  0.00  0.00    -0.232 NA
ATOM     15  C   UNL     1      -2.282   3.733  25.079  0.00  0.00    +0.050 A 
ATOM     16  C   UNL     1      -1.755   3.394  26.309  0.00  0.00    +0.052 A 
ATOM     17  C   UNL     1      -0.377   3.350  26.376  0.00  0.00    +0.076 A 
ATOM     19  C   UNL     1      -0.202   3.932  24.186  0.00  0.00    +0.127 A 
ATOM     22  C   UNL     1       0.660   4.229  23.006  0.00  0.00    +0.088 C 
BRANCH  17  20
ATOM      1 BR   UNL     1      -2.162   3.590  29.020  0.00  0.00    -0.050 Br
ATOM     20  C   UNL     1       0.298   3.007  27.605  0.00  0.00    +0.014 A 
ATOM     25  C   UNL     1      -0.344   3.060  28.842  0.00  0.00    +0.027 A 
ATOM     26  C   UNL     1       1.633   2.612  27.529  0.00  0.00    +0.011 A 
ATOM     31  C   UNL     1       0.349   2.719  30.003  0.00  0.00    +0.016 A 
ATOM     32  C   UNL     1       2.327   2.271  28.690  0.00  0.00    +0.001 A 
ATOM     36  C   UNL     1       1.685   2.325  29.927  0.00  0.00    +0.001 A 
ENDBRANCH  17  20
ENDBRANCH   8  15
BRANCH   9  14
ATOM     14  C   UNL     1      -4.993   0.100  25.534  0.00  0.00    +0.123 C 
BRANCH  14   4
ATOM      2  O   UNL     1      -3.028  -1.991  25.619  0.00  0.00    -0.270 OA
ATOM      4  N   UNL     1      -3.663   0.156  25.012  0.00  0.00    -0.310 N 
ATOM     18  C   UNL     1      -2.770  -0.910  25.096  0.00  0.00    +0.244 C 
ATOM     37  H   UNL     1      -3.363   1.044  24.622  0.00  0.00    +0.149 HD
BRANCH  18  21
ATOM     21  C   UNL     1      -1.416  -0.683  24.530  0.00  0.00    +0.037 A 
ATOM     23  C   UNL     1      -0.414  -1.638  24.712  0.00  0.00    +0.013 A 
ATOM     24  C   UNL     1      -1.144   0.484  23.817  0.00  0.00    +0.013 A 
ATOM     28  C   UNL     1       1.129  -0.256  23.467  0.00  0.00    -0.042 A 
ATOM     29  C   UNL     1       0.858  -1.424  24.181  0.00  0.00    +0.005 A 
ATOM     30  C   UNL     1       0.127   0.698  23.284  0.00  0.00    +0.005 A 
BRANCH  28  27
ATOM     27  C   UNL     1       2.488  -0.028  22.899  0.00  0.00    -0.013 C 
ATOM     33  C   UNL     1       2.972   1.432  23.159  0.00  0.00    +0.015 C 
ATOM     34  C   UNL     1       2.502  -0.261  21.356  0.00  0.00    +0.015 C 
ATOM     35  C   UNL     1       3.618  -0.948  23.469  0.00  0.00    +0.015 C 
ENDBRANCH  28  27
ENDBRANCH  18  21
ENDBRANCH  14   4
ENDBRANCH   9  14
TORSDOF 6
ENDMDL
