MODEL 1
REMARK VINA RESULT:      -0.7      0.000      0.000
REMARK  Name = 11941204
REMARK  10 active torsions:
REMARK  status: ('A' for Active; 'I' for Inactive)
REMARK    1  A    between atoms: S_1  and  N_7
REMARK    2  A    between atoms: S_1  and  C_18
REMARK    3  A    between atoms: O_6  and  C_24
REMARK    4  A    between atoms: O_6  and  C_31
REMARK    5  A    between atoms: N_8  and  C_21
REMARK    6  A    between atoms: C_9  and  C_14
REMARK    7  A    between atoms: C_10  and  C_15
REMARK    8  A    between atoms: C_14  and  C_16
REMARK    9  A    between atoms: C_15  and  C_17
REMARK   10  A    between atoms: C_21  and  C_25
REMARK                            x       y       z     vdW  Elec       q    Type
REMARK                         _______ _______ _______ _____ _____    ______ ____
ROOT
ATOM      7  N   UNL     1      -4.615   2.630  25.282  0.00  0.00    -0.176 NA
ATOM      9  C   UNL     1      -3.351   4.097  23.724  0.00  0.00    +0.008 C 
ATOM     10  C   UNL     1      -3.039   5.047  24.906  0.00  0.00    +0.003 C 
ATOM     11  C   UNL     1      -3.082   4.303  26.251  0.00  0.00    +0.021 C 
ATOM     12  C   UNL     1      -4.676   3.360  23.981  0.00  0.00    +0.113 C 
ATOM     13  C   UNL     1      -4.398   3.554  26.433  0.00  0.00    +0.110 C 
ENDROOT
BRANCH   7   1
ATOM      1  S   UNL     1      -5.832   1.445  25.514  0.00  0.00    +0.061 S 
ATOM      3  O   UNL     1      -6.794   1.541  24.439  0.00  0.00    -0.153 OA
ATOM      4  O   UNL     1      -6.252   1.470  26.898  0.00  0.00    -0.153 OA
BRANCH   1  18
ATOM     18  C   UNL     1      -4.883  -0.022  25.260  0.00  0.00    +0.106 A 
ATOM     19  C   UNL     1      -4.151  -0.570  26.314  0.00  0.00    +0.032 A 
ATOM     20  C   UNL     1      -4.866  -0.634  24.007  0.00  0.00    +0.032 A 
ATOM     22  C   UNL     1      -3.403  -1.730  26.115  0.00  0.00    +0.047 A 
ATOM     23  C   UNL     1      -4.116  -1.794  23.807  0.00  0.00    +0.047 A 
ATOM     24  C   UNL     1      -3.386  -2.342  24.861  0.00  0.00    +0.120 A 
BRANCH  24   6
ATOM      6  O   UNL     1      -2.654  -3.473  24.667  0.00  0.00    -0.495 OA
ATOM     31  C   UNL     1      -2.542  -3.953  23.328  0.00  0.00    +0.277 C 
ENDBRANCH  24   6
ENDBRANCH   1  18
ENDBRANCH   7   1
BRANCH   9  14
ATOM     14  C   UNL     1      -2.230   3.098  23.413  0.00  0.00    +0.002 C 
ATOM     16  C   UNL     1      -2.727   1.983  22.517  0.00  0.00    +0.004 C 
ENDBRANCH   9  14
BRANCH  10  15
ATOM     15  C   UNL     1      -1.716   5.794  24.746  0.00  0.00    +0.099 C 
BRANCH  15  17
ATOM      5  O   UNL     1       0.315   4.850  23.831  0.00  0.00    -0.276 OA
ATOM      8  N   UNL     1      -0.530   4.019  25.831  0.00  0.00    -0.311 N 
ATOM     17  C   UNL     1      -0.529   4.856  24.724  0.00  0.00    +0.214 C 
ATOM     32  H   UNL     1      -1.279   4.093  26.512  0.00  0.00    +0.149 HD
BRANCH   8  21
ATOM     21  C   UNL     1       0.485   3.019  26.066  0.00  0.00    +0.139 C 
BRANCH  21  25
ATOM      2  F   UNL     1      -0.485  -1.699  23.150  0.00  0.00    -0.205 F 
ATOM     25  C   UNL     1       0.227   1.761  25.288  0.00  0.00    -0.030 A 
ATOM     26  C   UNL     1      -0.664   0.807  25.781  0.00  0.00    +0.008 A 
ATOM     27  C   UNL     1       0.876   1.546  24.073  0.00  0.00    +0.008 A 
ATOM     28  C   UNL     1      -0.904  -0.361  25.059  0.00  0.00    +0.038 A 
ATOM     29  C   UNL     1       0.636   0.378  23.350  0.00  0.00    +0.038 A 
ATOM     30  C   UNL     1      -0.255  -0.576  23.843  0.00  0.00    +0.123 A 
ENDBRANCH  21  25
ENDBRANCH   8  21
ENDBRANCH  15  17
ENDBRANCH  10  15
TORSDOF 8
ENDMDL
MODEL 2
REMARK VINA RESULT:      -0.5      2.446      5.249
REMARK  Name = 11941204
REMARK  10 active torsions:
REMARK  status: ('A' for Active; 'I' for Inactive)
REMARK    1  A    between atoms: S_1  and  N_7
REMARK    2  A    between atoms: S_1  and  C_18
REMARK    3  A    between atoms: O_6  and  C_24
REMARK    4  A    between atoms: O_6  and  C_31
REMARK    5  A    between atoms: N_8  and  C_21
REMARK    6  A    between atoms: C_9  and  C_14
REMARK    7  A    between atoms: C_10  and  C_15
REMARK    8  A    between atoms: C_14  and  C_16
REMARK    9  A    between atoms: C_15  and  C_17
REMARK   10  A    between atoms: C_21  and  C_25
REMARK                            x       y       z     vdW  Elec       q    Type
REMARK                         _______ _______ _______ _____ _____    ______ ____
ROOT
ATOM      7  N   UNL     1      -2.777  -0.727  24.695  0.00  0.00    -0.176 NA
ATOM      9  C   UNL     1      -4.383   0.792  23.560  0.00  0.00    +0.008 C 
ATOM     10  C   UNL     1      -5.303   0.714  24.804  0.00  0.00    +0.003 C 
ATOM     11  C   UNL     1      -4.503   0.374  26.072  0.00  0.00    +0.021 C 
ATOM     12  C   UNL     1      -3.554  -0.497  23.441  0.00  0.00    +0.113 C 
ATOM     13  C   UNL     1      -3.665  -0.886  25.883  0.00  0.00    +0.110 C 
ENDROOT
BRANCH   7   1
ATOM      1  S   UNL     1      -1.509  -1.874  24.571  0.00  0.00    +0.061 S 
ATOM      3  O   UNL     1      -1.798  -2.779  23.481  0.00  0.00    -0.153 OA
ATOM      4  O   UNL     1      -1.196  -2.371  25.893  0.00  0.00    -0.153 OA
BRANCH   1  18
ATOM     18  C   UNL     1      -0.190  -0.817  24.060  0.00  0.00    +0.106 A 
ATOM     19  C   UNL     1      -0.040   0.442  24.642  0.00  0.00    +0.032 A 
ATOM     20  C   UNL     1       0.703  -1.242  23.077  0.00  0.00    +0.032 A 
ATOM     22  C   UNL     1       1.003   1.276  24.241  0.00  0.00    +0.047 A 
ATOM     23  C   UNL     1       1.745  -0.407  22.674  0.00  0.00    +0.047 A 
ATOM     24  C   UNL     1       1.896   0.852  23.257  0.00  0.00    +0.120 A 
BRANCH  24   6
ATOM      6  O   UNL     1       2.913   1.666  22.864  0.00  0.00    -0.495 OA
ATOM     31  C   UNL     1       4.205   1.076  22.729  0.00  0.00    +0.277 C 
ENDBRANCH  24   6
ENDBRANCH   1  18
ENDBRANCH   7   1
BRANCH   9  14
ATOM     14  C   UNL     1      -3.470   2.024  23.534  0.00  0.00    +0.002 C 
ATOM     16  C   UNL     1      -2.552   1.997  22.331  0.00  0.00    +0.004 C 
ENDBRANCH   9  14
BRANCH  10  15
ATOM     15  C   UNL     1      -6.138   1.976  25.016  0.00  0.00    +0.099 C 
BRANCH  15  17
ATOM      5  O   UNL     1      -5.174   4.143  24.540  0.00  0.00    -0.276 OA
ATOM      8  N   UNL     1      -4.639   3.069  26.531  0.00  0.00    -0.311 N 
ATOM     17  C   UNL     1      -5.279   3.188  25.305  0.00  0.00    +0.214 C 
ATOM     32  H   UNL     1      -4.782   2.233  27.090  0.00  0.00    +0.149 HD
BRANCH   8  21
ATOM     21  C   UNL     1      -3.753   4.079  27.061  0.00  0.00    +0.139 C 
BRANCH  21  25
ATOM      2  F   UNL     1       0.590   5.086  23.621  0.00  0.00    -0.205 F 
ATOM     25  C   UNL     1      -2.594   4.347  26.143  0.00  0.00    -0.030 A 
ATOM     26  C   UNL     1      -1.613   3.374  25.955  0.00  0.00    +0.008 A 
ATOM     27  C   UNL     1      -2.499   5.570  25.479  0.00  0.00    +0.008 A 
ATOM     28  C   UNL     1      -0.538   3.623  25.103  0.00  0.00    +0.038 A 
ATOM     29  C   UNL     1      -1.424   5.820  24.628  0.00  0.00    +0.038 A 
ATOM     30  C   UNL     1      -0.443   4.846  24.439  0.00  0.00    +0.123 A 
ENDBRANCH  21  25
ENDBRANCH   8  21
ENDBRANCH  15  17
ENDBRANCH  10  15
TORSDOF 8
ENDMDL
MODEL 3
REMARK VINA RESULT:      -0.3      3.266      6.179
REMARK  Name = 11941204
REMARK  10 active torsions:
REMARK  status: ('A' for Active; 'I' for Inactive)
REMARK    1  A    between atoms: S_1  and  N_7
REMARK    2  A    between atoms: S_1  and  C_18
REMARK    3  A    between atoms: O_6  and  C_24
REMARK    4  A    between atoms: O_6  and  C_31
REMARK    5  A    between atoms: N_8  and  C_21
REMARK    6  A    between atoms: C_9  and  C_14
REMARK    7  A    between atoms: C_10  and  C_15
REMARK    8  A    between atoms: C_14  and  C_16
REMARK    9  A    between atoms: C_15  and  C_17
REMARK   10  A    between atoms: C_21  and  C_25
REMARK                            x       y       z     vdW  Elec       q    Type
REMARK                         _______ _______ _______ _____ _____    ______ ____
ROOT
ATOM      7  N   UNL     1      -0.039   0.827  23.519  0.00  0.00    -0.176 NA
ATOM      9  C   UNL     1       0.229   2.740  25.083  0.00  0.00    +0.008 C 
ATOM     10  C   UNL     1      -0.855   3.511  24.291  0.00  0.00    +0.003 C 
ATOM     11  C   UNL     1      -1.804   2.551  23.557  0.00  0.00    +0.021 C 
ATOM     12  C   UNL     1       0.949   1.749  24.154  0.00  0.00    +0.113 C 
ATOM     13  C   UNL     1      -1.035   1.562  22.687  0.00  0.00    +0.110 C 
ENDROOT
BRANCH   7   1
ATOM      1  S   UNL     1       0.628  -0.576  22.794  0.00  0.00    +0.061 S 
ATOM      3  O   UNL     1       0.369  -0.539  21.372  0.00  0.00    -0.153 OA
ATOM      4  O   UNL     1       0.271  -1.729  23.590  0.00  0.00    -0.153 OA
BRANCH   1  18
ATOM     18  C   UNL     1       2.348  -0.258  23.038  0.00  0.00    +0.106 A 
ATOM     19  C   UNL     1       3.151  -1.211  23.664  0.00  0.00    +0.032 A 
ATOM     20  C   UNL     1       2.904   0.946  22.603  0.00  0.00    +0.032 A 
ATOM     22  C   UNL     1       4.510  -0.962  23.854  0.00  0.00    +0.047 A 
ATOM     23  C   UNL     1       4.262   1.196  22.795  0.00  0.00    +0.047 A 
ATOM     24  C   UNL     1       5.066   0.242  23.420  0.00  0.00    +0.120 A 
BRANCH  24   6
ATOM      6  O   UNL     1       6.391   0.486  23.608  0.00  0.00    -0.495 OA
ATOM     31  C   UNL     1       7.309  -0.470  23.081  0.00  0.00    +0.277 C 
ENDBRANCH  24   6
ENDBRANCH   1  18
ENDBRANCH   7   1
BRANCH   9  14
ATOM     14  C   UNL     1      -0.300   2.022  26.330  0.00  0.00    +0.002 C 
ATOM     16  C   UNL     1       0.514   2.383  27.554  0.00  0.00    +0.004 C 
ENDBRANCH   9  14
BRANCH  10  15
ATOM     15  C   UNL     1      -1.644   4.496  25.153  0.00  0.00    +0.099 C 
BRANCH  15  17
ATOM      5  O   UNL     1      -3.413   4.284  26.789  0.00  0.00    -0.276 OA
ATOM      8  N   UNL     1      -3.271   2.741  25.057  0.00  0.00    -0.311 N 
ATOM     17  C   UNL     1      -2.866   3.857  25.776  0.00  0.00    +0.214 C 
ATOM     32  H   UNL     1      -2.747   2.459  24.234  0.00  0.00    +0.149 HD
BRANCH   8  21
ATOM     21  C   UNL     1      -4.411   1.934  25.427  0.00  0.00    +0.139 C 
BRANCH  21  25
ATOM      2  F   UNL     1      -3.502  -3.545  24.498  0.00  0.00    -0.205 F 
ATOM     25  C   UNL     1      -4.168   0.473  25.179  0.00  0.00    -0.030 A 
ATOM     26  C   UNL     1      -4.621  -0.119  24.000  0.00  0.00    +0.008 A 
ATOM     27  C   UNL     1      -3.491  -0.293  26.128  0.00  0.00    +0.008 A 
ATOM     28  C   UNL     1      -4.395  -1.476  23.770  0.00  0.00    +0.038 A 
ATOM     29  C   UNL     1      -3.266  -1.650  25.899  0.00  0.00    +0.038 A 
ATOM     30  C   UNL     1      -3.718  -2.241  24.719  0.00  0.00    +0.123 A 
ENDBRANCH  21  25
ENDBRANCH   8  21
ENDBRANCH  15  17
ENDBRANCH  10  15
TORSDOF 8
ENDMDL
MODEL 4
REMARK VINA RESULT:       2.3      2.669      5.409
REMARK  Name = 11941204
REMARK  10 active torsions:
REMARK  status: ('A' for Active; 'I' for Inactive)
REMARK    1  A    between atoms: S_1  and  N_7
REMARK    2  A    between atoms: S_1  and  C_18
REMARK    3  A    between atoms: O_6  and  C_24
REMARK    4  A    between atoms: O_6  and  C_31
REMARK    5  A    between atoms: N_8  and  C_21
REMARK    6  A    between atoms: C_9  and  C_14
REMARK    7  A    between atoms: C_10  and  C_15
REMARK    8  A    between atoms: C_14  and  C_16
REMARK    9  A    between atoms: C_15  and  C_17
REMARK   10  A    between atoms: C_21  and  C_25
REMARK                            x       y       z     vdW  Elec       q    Type
REMARK                         _______ _______ _______ _____ _____    ______ ____
ROOT
ATOM      7  N   UNL     1      -2.319  -0.851  24.347  0.00  0.00    -0.176 NA
ATOM      9  C   UNL     1      -0.069  -1.899  24.471  0.00  0.00    +0.008 C 
ATOM     10  C   UNL     1       0.390  -1.000  23.298  0.00  0.00    +0.003 C 
ATOM     11  C   UNL     1      -0.445   0.288  23.217  0.00  0.00    +0.021 C 
ATOM     12  C   UNL     1      -1.583  -2.150  24.376  0.00  0.00    +0.113 C 
ATOM     13  C   UNL     1      -1.939  -0.017  23.170  0.00  0.00    +0.110 C 
ENDROOT
BRANCH   7   1
ATOM      1  S   UNL     1      -4.002  -0.956  24.656  0.00  0.00    +0.061 S 
ATOM      3  O   UNL     1      -4.204  -1.473  25.992  0.00  0.00    -0.153 OA
ATOM      4  O   UNL     1      -4.651  -1.562  23.514  0.00  0.00    -0.153 OA
BRANCH   1  18
ATOM     18  C   UNL     1      -4.418   0.759  24.672  0.00  0.00    +0.106 A 
ATOM     19  C   UNL     1      -5.352   1.242  25.590  0.00  0.00    +0.032 A 
ATOM     20  C   UNL     1      -3.813   1.633  23.769  0.00  0.00    +0.032 A 
ATOM     22  C   UNL     1      -5.680   2.597  25.605  0.00  0.00    +0.047 A 
ATOM     23  C   UNL     1      -4.142   2.988  23.783  0.00  0.00    +0.047 A 
ATOM     24  C   UNL     1      -5.074   3.471  24.701  0.00  0.00    +0.120 A 
BRANCH  24   6
ATOM      6  O   UNL     1      -5.395   4.793  24.714  0.00  0.00    -0.495 OA
ATOM     31  C   UNL     1      -6.317   5.229  25.713  0.00  0.00    +0.277 C 
ENDBRANCH  24   6
ENDBRANCH   1  18
ENDBRANCH   7   1
BRANCH   9  14
ATOM     14  C   UNL     1       0.301  -1.356  25.857  0.00  0.00    +0.002 C 
ATOM     16  C   UNL     1      -0.935  -0.954  26.633  0.00  0.00    +0.004 C 
ENDBRANCH   9  14
BRANCH  10  15
ATOM     15  C   UNL     1       1.882  -0.672  23.339  0.00  0.00    +0.099 C 
BRANCH  15  17
ATOM      5  O   UNL     1       3.165   1.327  22.881  0.00  0.00    -0.276 OA
ATOM      8  N   UNL     1       1.078   1.516  23.886  0.00  0.00    -0.311 N 
ATOM     17  C   UNL     1       2.141   0.819  23.328  0.00  0.00    +0.214 C 
ATOM     32  H   UNL     1       0.275   1.005  24.238  0.00  0.00    +0.149 HD
BRANCH   8  21
ATOM     21  C   UNL     1       1.055   2.955  24.008  0.00  0.00    +0.139 C 
BRANCH  21  25
ATOM      2  F   UNL     1      -3.370   4.745  26.994  0.00  0.00    -0.205 F 
ATOM     25  C   UNL     1      -0.125   3.433  24.805  0.00  0.00    -0.030 A 
ATOM     26  C   UNL     1      -0.655   4.702  24.573  0.00  0.00    +0.008 A 
ATOM     27  C   UNL     1      -0.692   2.607  25.776  0.00  0.00    +0.008 A 
ATOM     28  C   UNL     1      -1.752   5.145  25.313  0.00  0.00    +0.038 A 
ATOM     29  C   UNL     1      -1.787   3.050  26.516  0.00  0.00    +0.038 A 
ATOM     30  C   UNL     1      -2.318   4.319  26.284  0.00  0.00    +0.123 A 
ENDBRANCH  21  25
ENDBRANCH   8  21
ENDBRANCH  15  17
ENDBRANCH  10  15
TORSDOF 8
ENDMDL
MODEL 5
REMARK VINA RESULT:       2.6      2.427      4.750
REMARK  Name = 11941204
REMARK  10 active torsions:
REMARK  status: ('A' for Active; 'I' for Inactive)
REMARK    1  A    between atoms: S_1  and  N_7
REMARK    2  A    between atoms: S_1  and  C_18
REMARK    3  A    between atoms: O_6  and  C_24
REMARK    4  A    between atoms: O_6  and  C_31
REMARK    5  A    between atoms: N_8  and  C_21
REMARK    6  A    between atoms: C_9  and  C_14
REMARK    7  A    between atoms: C_10  and  C_15
REMARK    8  A    between atoms: C_14  and  C_16
REMARK    9  A    between atoms: C_15  and  C_17
REMARK   10  A    between atoms: C_21  and  C_25
REMARK                            x       y       z     vdW  Elec       q    Type
REMARK                         _______ _______ _______ _____ _____    ______ ____
ROOT
ATOM      7  N   UNL     1      -1.504   3.271  25.381  0.00  0.00    -0.176 NA
ATOM      9  C   UNL     1      -0.308   2.598  23.309  0.00  0.00    +0.008 C 
ATOM     10  C   UNL     1       0.878   2.112  24.178  0.00  0.00    +0.003 C 
ATOM     11  C   UNL     1       0.419   1.741  25.597  0.00  0.00    +0.021 C 
ATOM     12  C   UNL     1      -1.057   3.730  24.033  0.00  0.00    +0.113 C 
ATOM     13  C   UNL     1      -0.356   2.881  26.250  0.00  0.00    +0.110 C 
ENDROOT
BRANCH   7   1
ATOM      1  S   UNL     1      -2.690   4.255  26.133  0.00  0.00    +0.061 S 
ATOM      3  O   UNL     1      -2.717   5.543  25.478  0.00  0.00    -0.153 OA
ATOM      4  O   UNL     1      -2.543   4.149  27.569  0.00  0.00    -0.153 OA
BRANCH   1  18
ATOM     18  C   UNL     1      -4.152   3.381  25.670  0.00  0.00    +0.106 A 
ATOM     19  C   UNL     1      -4.352   3.014  24.339  0.00  0.00    +0.032 A 
ATOM     20  C   UNL     1      -5.106   3.056  26.634  0.00  0.00    +0.032 A 
ATOM     22  C   UNL     1      -5.506   2.322  23.972  0.00  0.00    +0.047 A 
ATOM     23  C   UNL     1      -6.261   2.365  26.267  0.00  0.00    +0.047 A 
ATOM     24  C   UNL     1      -6.461   1.997  24.937  0.00  0.00    +0.120 A 
BRANCH  24   6
ATOM      6  O   UNL     1      -7.587   1.324  24.578  0.00  0.00    -0.495 OA
ATOM     31  C   UNL     1      -8.062   1.512  23.246  0.00  0.00    +0.277 C 
ENDBRANCH  24   6
ENDBRANCH   1  18
ENDBRANCH   7   1
BRANCH   9  14
ATOM     14  C   UNL     1      -1.280   1.485  22.900  0.00  0.00    +0.002 C 
ATOM     16  C   UNL     1      -2.382   2.022  22.011  0.00  0.00    +0.004 C 
ENDBRANCH   9  14
BRANCH  10  15
ATOM     15  C   UNL     1       1.656   0.959  23.544  0.00  0.00    +0.099 C 
BRANCH  15  17
ATOM      5  O   UNL     1       0.544  -0.909  22.484  0.00  0.00    -0.276 OA
ATOM      8  N   UNL     1       0.526  -0.737  24.801  0.00  0.00    -0.311 N 
ATOM     17  C   UNL     1       0.855  -0.324  23.518  0.00  0.00    +0.214 C 
ATOM     32  H   UNL     1       0.822  -0.179  25.597  0.00  0.00    +0.149 HD
BRANCH   8  21
ATOM     21  C   UNL     1      -0.239  -1.932  25.075  0.00  0.00    +0.139 C 
BRANCH  21  25
ATOM      2  F   UNL     1      -5.747  -1.153  24.204  0.00  0.00    -0.205 F 
ATOM     25  C   UNL     1      -1.708  -1.724  24.843  0.00  0.00    -0.030 A 
ATOM     26  C   UNL     1      -2.434  -2.653  24.098  0.00  0.00    +0.008 A 
ATOM     27  C   UNL     1      -2.346  -0.602  25.372  0.00  0.00    +0.008 A 
ATOM     28  C   UNL     1      -3.798  -2.460  23.883  0.00  0.00    +0.038 A 
ATOM     29  C   UNL     1      -3.710  -0.409  25.156  0.00  0.00    +0.038 A 
ATOM     30  C   UNL     1      -4.437  -1.339  24.412  0.00  0.00    +0.123 A 
ENDBRANCH  21  25
ENDBRANCH   8  21
ENDBRANCH  15  17
ENDBRANCH  10  15
TORSDOF 8
ENDMDL
