MODEL 1
REMARK VINA RESULT:      -5.1      0.000      0.000
REMARK  Name = 51137442
REMARK  5 active torsions:
REMARK  status: ('A' for Active; 'I' for Inactive)
REMARK    1  A    between atoms: N_3  and  C_10
REMARK    2  A    between atoms: C_6  and  C_11
REMARK    3  A    between atoms: C_10  and  C_12
REMARK    4  A    between atoms: C_14  and  C_17
REMARK    5  A    between atoms: C_26  and  C_27
REMARK                            x       y       z     vdW  Elec       q    Type
REMARK                         _______ _______ _______ _____ _____    ______ ____
ROOT
ATOM      3  N   UNL     1      -9.715  -9.511  10.388  0.00  0.00    -0.294 NA
ATOM      6  C   UNL     1      -7.611  -9.297   9.375  0.00  0.00    +0.092 C 
ATOM      7  C   UNL     1      -8.383 -10.453   8.717  0.00  0.00    +0.029 C 
ATOM      8  C   UNL     1      -8.368  -9.016  10.680  0.00  0.00    +0.097 C 
ATOM      9  C   UNL     1      -9.507 -10.781   9.691  0.00  0.00    +0.085 C 
ENDROOT
BRANCH   6  11
ATOM      1  O   UNL     1      -5.727  -9.719  10.880  0.00  0.00    -0.420 OA
ATOM      4  N   UNL     1      -5.169  -9.658   8.714  0.00  0.00    -0.112 NA
ATOM      5  N   UNL     1      -4.020  -9.903   9.445  0.00  0.00    -0.107 NA
ATOM     11  C   UNL     1      -6.139  -9.558   9.593  0.00  0.00    +0.222 A 
ATOM     14  C   UNL     1      -4.393  -9.929  10.702  0.00  0.00    +0.248 A 
BRANCH  14  17
ATOM     17  C   UNL     1      -3.628 -10.144  11.897  0.00  0.00    +0.038 A 
ATOM     22  C   UNL     1      -2.238 -10.033  11.863  0.00  0.00    +0.013 A 
ATOM     23  C   UNL     1      -4.274 -10.461  13.092  0.00  0.00    +0.013 A 
ATOM     24  C   UNL     1      -1.494 -10.240  13.024  0.00  0.00    +0.004 A 
ATOM     25  C   UNL     1      -3.530 -10.668  14.253  0.00  0.00    +0.004 A 
ATOM     26  C   UNL     1      -2.139 -10.557  14.219  0.00  0.00    -0.050 A 
ATOM     27  C   UNL     1      -1.344 -10.780  15.461  0.00  0.00    +0.044 C 
ENDBRANCH  14  17
ENDBRANCH   6  11
BRANCH   3  10
ATOM     10  C   UNL     1     -10.523  -9.662  11.589  0.00  0.00    +0.158 C 
BRANCH  10  12
ATOM      2  O   UNL     1     -10.100  -8.975  13.884  0.00  0.00    -0.458 OA
ATOM     12  C   UNL     1      -9.676  -9.723  12.832  0.00  0.00    +0.120 A 
ATOM     13  C   UNL     1      -8.519 -10.397  13.148  0.00  0.00    +0.054 A 
ATOM     15  C   UNL     1      -8.203 -10.044  14.486  0.00  0.00    +0.020 A 
ATOM     16  C   UNL     1      -9.205  -9.168  14.894  0.00  0.00    +0.135 A 
ATOM     18  C   UNL     1      -7.183 -10.367  15.398  0.00  0.00    +0.011 A 
ATOM     19  C   UNL     1      -9.265  -8.584  16.156  0.00  0.00    +0.047 A 
ATOM     20  C   UNL     1      -7.217  -9.794  16.676  0.00  0.00    +0.001 A 
ATOM     21  C   UNL     1      -8.241  -8.919  17.046  0.00  0.00    +0.004 A 
ENDBRANCH  10  12
ENDBRANCH   3  10
TORSDOF 4
ENDMDL
MODEL 2
REMARK VINA RESULT:      -2.7      2.515      3.270
REMARK  Name = 51137442
REMARK  5 active torsions:
REMARK  status: ('A' for Active; 'I' for Inactive)
REMARK    1  A    between atoms: N_3  and  C_10
REMARK    2  A    between atoms: C_6  and  C_11
REMARK    3  A    between atoms: C_10  and  C_12
REMARK    4  A    between atoms: C_14  and  C_17
REMARK    5  A    between atoms: C_26  and  C_27
REMARK                            x       y       z     vdW  Elec       q    Type
REMARK                         _______ _______ _______ _____ _____    ______ ____
ROOT
ATOM      3  N   UNL     1      -7.405  -9.454  10.999  0.00  0.00    -0.294 NA
ATOM      6  C   UNL     1      -5.114  -9.144  10.607  0.00  0.00    +0.092 C 
ATOM      7  C   UNL     1      -5.724  -9.965   9.458  0.00  0.00    +0.029 C 
ATOM      8  C   UNL     1      -6.160  -9.204  11.728  0.00  0.00    +0.097 C 
ATOM      9  C   UNL     1      -7.059 -10.464   9.997  0.00  0.00    +0.085 C 
ENDROOT
BRANCH   6  11
ATOM      1  O   UNL     1      -2.748  -8.673  11.031  0.00  0.00    -0.420 OA
ATOM      4  N   UNL     1      -3.353 -10.781  11.476  0.00  0.00    -0.112 NA
ATOM      5  N   UNL     1      -2.005 -10.654  11.758  0.00  0.00    -0.107 NA
ATOM     11  C   UNL     1      -3.744  -9.601  11.055  0.00  0.00    +0.222 A 
ATOM     14  C   UNL     1      -1.696  -9.409  11.483  0.00  0.00    +0.248 A 
BRANCH  14  17
ATOM     17  C   UNL     1      -0.444  -8.715  11.586  0.00  0.00    +0.038 A 
ATOM     22  C   UNL     1       0.626  -9.085  10.771  0.00  0.00    +0.013 A 
ATOM     23  C   UNL     1      -0.298  -7.670  12.498  0.00  0.00    +0.013 A 
ATOM     24  C   UNL     1       1.843  -8.411  10.870  0.00  0.00    +0.004 A 
ATOM     25  C   UNL     1       0.919  -6.996  12.597  0.00  0.00    +0.004 A 
ATOM     26  C   UNL     1       1.989  -7.366  11.782  0.00  0.00    -0.050 A 
ATOM     27  C   UNL     1       3.290  -6.645  11.888  0.00  0.00    +0.044 C 
ENDBRANCH  14  17
ENDBRANCH   6  11
BRANCH   3  10
ATOM     10  C   UNL     1      -8.484  -9.886  11.873  0.00  0.00    +0.158 C 
BRANCH  10  12
ATOM      2  O   UNL     1      -8.747  -9.285  14.216  0.00  0.00    -0.458 OA
ATOM     12  C   UNL     1      -8.035  -9.999  13.305  0.00  0.00    +0.120 A 
ATOM     13  C   UNL     1      -7.019 -10.694  13.919  0.00  0.00    +0.054 A 
ATOM     15  C   UNL     1      -7.106 -10.393  15.304  0.00  0.00    +0.020 A 
ATOM     16  C   UNL     1      -8.184  -9.523  15.435  0.00  0.00    +0.135 A 
ATOM     18  C   UNL     1      -6.394 -10.758  16.460  0.00  0.00    +0.011 A 
ATOM     19  C   UNL     1      -8.611  -8.984  16.646  0.00  0.00    +0.047 A 
ATOM     20  C   UNL     1      -6.800 -10.231  17.694  0.00  0.00    +0.001 A 
ATOM     21  C   UNL     1      -7.889  -9.361  17.782  0.00  0.00    +0.004 A 
ENDBRANCH  10  12
ENDBRANCH   3  10
TORSDOF 4
ENDMDL
MODEL 3
REMARK VINA RESULT:      -2.2      2.873      4.393
REMARK  Name = 51137442
REMARK  5 active torsions:
REMARK  status: ('A' for Active; 'I' for Inactive)
REMARK    1  A    between atoms: N_3  and  C_10
REMARK    2  A    between atoms: C_6  and  C_11
REMARK    3  A    between atoms: C_10  and  C_12
REMARK    4  A    between atoms: C_14  and  C_17
REMARK    5  A    between atoms: C_26  and  C_27
REMARK                            x       y       z     vdW  Elec       q    Type
REMARK                         _______ _______ _______ _____ _____    ______ ____
ROOT
ATOM      3  N   UNL     1      -6.670 -10.133  14.226  0.00  0.00    -0.294 NA
ATOM      6  C   UNL     1      -4.801 -10.781  12.966  0.00  0.00    +0.092 C 
ATOM      7  C   UNL     1      -4.397 -10.625  14.442  0.00  0.00    +0.029 C 
ATOM      8  C   UNL     1      -6.156 -10.068  12.856  0.00  0.00    +0.097 C 
ATOM      9  C   UNL     1      -5.521  -9.815  15.075  0.00  0.00    +0.085 C 
ENDROOT
BRANCH   6  11
ATOM      1  O   UNL     1      -2.673  -9.671  12.481  0.00  0.00    -0.420 OA
ATOM      4  N   UNL     1      -3.803 -10.313  10.660  0.00  0.00    -0.112 NA
ATOM      5  N   UNL     1      -2.632  -9.706  10.244  0.00  0.00    -0.107 NA
ATOM     11  C   UNL     1      -3.784 -10.269  11.972  0.00  0.00    +0.222 A 
ATOM     14  C   UNL     1      -2.005  -9.348  11.340  0.00  0.00    +0.248 A 
BRANCH  14  17
ATOM     17  C   UNL     1      -0.747  -8.681  11.517  0.00  0.00    +0.038 A 
ATOM     22  C   UNL     1      -0.581  -7.772  12.562  0.00  0.00    +0.013 A 
ATOM     23  C   UNL     1       0.311  -8.945  10.647  0.00  0.00    +0.013 A 
ATOM     24  C   UNL     1       0.642  -7.125  12.735  0.00  0.00    +0.004 A 
ATOM     25  C   UNL     1       1.534  -8.298  10.820  0.00  0.00    +0.004 A 
ATOM     26  C   UNL     1       1.700  -7.388  11.866  0.00  0.00    -0.050 A 
ATOM     27  C   UNL     1       3.008  -6.696  12.050  0.00  0.00    +0.044 C 
ENDBRANCH  14  17
ENDBRANCH   6  11
BRANCH   3  10
ATOM     10  C   UNL     1      -7.788  -9.227  14.442  0.00  0.00    +0.158 C 
BRANCH  10  12
ATOM      2  O   UNL     1      -7.699 -10.058  16.728  0.00  0.00    -0.458 OA
ATOM     12  C   UNL     1      -8.460  -9.472  15.767  0.00  0.00    +0.120 A 
ATOM     13  C   UNL     1      -9.730  -9.224  16.236  0.00  0.00    +0.054 A 
ATOM     15  C   UNL     1      -9.758  -9.686  17.578  0.00  0.00    +0.020 A 
ATOM     16  C   UNL     1      -8.486 -10.189  17.833  0.00  0.00    +0.135 A 
ATOM     18  C   UNL     1     -10.717  -9.734  18.605  0.00  0.00    +0.011 A 
ATOM     19  C   UNL     1      -8.094 -10.744  19.048  0.00  0.00    +0.047 A 
ATOM     20  C   UNL     1     -10.352 -10.287  19.841  0.00  0.00    +0.001 A 
ATOM     21  C   UNL     1      -9.063 -10.781  20.055  0.00  0.00    +0.004 A 
ENDBRANCH  10  12
ENDBRANCH   3  10
TORSDOF 4
ENDMDL
MODEL 4
REMARK VINA RESULT:      -1.8      2.827      4.103
REMARK  Name = 51137442
REMARK  5 active torsions:
REMARK  status: ('A' for Active; 'I' for Inactive)
REMARK    1  A    between atoms: N_3  and  C_10
REMARK    2  A    between atoms: C_6  and  C_11
REMARK    3  A    between atoms: C_10  and  C_12
REMARK    4  A    between atoms: C_14  and  C_17
REMARK    5  A    between atoms: C_26  and  C_27
REMARK                            x       y       z     vdW  Elec       q    Type
REMARK                         _______ _______ _______ _____ _____    ______ ____
ROOT
ATOM      3  N   UNL     1      -6.185  -9.171   8.809  0.00  0.00    -0.294 NA
ATOM      6  C   UNL     1      -3.893  -9.430   9.234  0.00  0.00    +0.092 C 
ATOM      7  C   UNL     1      -4.492 -10.781   8.808  0.00  0.00    +0.029 C 
ATOM      8  C   UNL     1      -5.107  -8.561   9.590  0.00  0.00    +0.097 C 
ATOM      9  C   UNL     1      -5.997 -10.614   8.971  0.00  0.00    +0.085 C 
ENDROOT
BRANCH   6  11
ATOM      1  O   UNL     1      -1.778  -8.715  10.240  0.00  0.00    -0.420 OA
ATOM      4  N   UNL     1      -2.890 -10.240  11.441  0.00  0.00    -0.112 NA
ATOM      5  N   UNL     1      -1.726  -9.928  12.119  0.00  0.00    -0.107 NA
ATOM     11  C   UNL     1      -2.878  -9.509  10.351  0.00  0.00    +0.222 A 
ATOM     14  C   UNL     1      -1.109  -9.036  11.381  0.00  0.00    +0.248 A 
BRANCH  14  17
ATOM     17  C   UNL     1       0.138  -8.357  11.589  0.00  0.00    +0.038 A 
ATOM     22  C   UNL     1       1.260  -8.719  10.844  0.00  0.00    +0.013 A 
ATOM     23  C   UNL     1       0.227  -7.334  12.533  0.00  0.00    +0.013 A 
ATOM     24  C   UNL     1       2.472  -8.058  11.045  0.00  0.00    +0.004 A 
ATOM     25  C   UNL     1       1.438  -6.673  12.734  0.00  0.00    +0.004 A 
ATOM     26  C   UNL     1       2.562  -7.036  11.989  0.00  0.00    -0.050 A 
ATOM     27  C   UNL     1       3.857  -6.330  12.204  0.00  0.00    +0.044 C 
ENDBRANCH  14  17
ENDBRANCH   6  11
BRANCH   3  10
ATOM     10  C   UNL     1      -7.503  -8.731   9.242  0.00  0.00    +0.158 C 
BRANCH  10  12
ATOM      2  O   UNL     1      -6.854  -9.190  11.541  0.00  0.00    -0.458 OA
ATOM     12  C   UNL     1      -7.845  -9.249  10.613  0.00  0.00    +0.120 A 
ATOM     13  C   UNL     1      -8.988  -9.792  11.154  0.00  0.00    +0.054 A 
ATOM     15  C   UNL     1      -8.687 -10.089  12.510  0.00  0.00    +0.020 A 
ATOM     16  C   UNL     1      -7.364  -9.701  12.698  0.00  0.00    +0.135 A 
ATOM     18  C   UNL     1      -9.385 -10.643  13.597  0.00  0.00    +0.011 A 
ATOM     19  C   UNL     1      -6.678  -9.825  13.903  0.00  0.00    +0.047 A 
ATOM     20  C   UNL     1      -8.720 -10.781  14.823  0.00  0.00    +0.001 A 
ATOM     21  C   UNL     1      -7.391 -10.378  14.971  0.00  0.00    +0.004 A 
ENDBRANCH  10  12
ENDBRANCH   3  10
TORSDOF 4
ENDMDL
