MODEL 1
REMARK VINA RESULT:      -1.5      0.000      0.000
REMARK  Name = 40776909
REMARK  10 active torsions:
REMARK  status: ('A' for Active; 'I' for Inactive)
REMARK    1  A    between atoms: O_2  and  C_22
REMARK    2  A    between atoms: O_2  and  C_29
REMARK    3  A    between atoms: O_3  and  C_24
REMARK    4  A    between atoms: O_3  and  C_30
REMARK    5  A    between atoms: N_5  and  C_15
REMARK    6  A    between atoms: C_9  and  C_16
REMARK    7  A    between atoms: C_10  and  C_15
REMARK    8  A    between atoms: C_18  and  C_21
REMARK    9  A    between atoms: C_19  and  C_22
REMARK   10  A    between atoms: C_20  and  C_23
REMARK                            x       y       z     vdW  Elec       q    Type
REMARK                         _______ _______ _______ _____ _____    ______ ____
ROOT
ATOM      4  N   UNL     1       0.192   3.578  25.454  0.00  0.00    -0.297 NA
ATOM      8  C   UNL     1      -1.920   4.171  24.050  0.00  0.00    +0.002 C 
ATOM      9  C   UNL     1      -2.329   3.502  25.391  0.00  0.00    +0.055 C 
ATOM     10  C   UNL     1       0.346   3.071  24.065  0.00  0.00    +0.074 C 
ATOM     11  C   UNL     1      -0.973   3.229  23.278  0.00  0.00    +0.024 C 
ATOM     12  C   UNL     1      -1.108   5.433  24.412  0.00  0.00    +0.019 C 
ATOM     13  C   UNL     1      -1.026   2.998  26.074  0.00  0.00    +0.094 C 
ATOM     14  C   UNL     1       0.020   5.049  25.385  0.00  0.00    +0.085 C 
ENDROOT
BRANCH   9  16
ATOM      6  N   UNL     1      -4.656   2.823  25.719  0.00  0.00    -0.237 NA
ATOM      7  N   UNL     1      -5.402   0.565  25.326  0.00  0.00    -0.232 NA
ATOM     16  C   UNL     1      -3.415   2.435  25.360  0.00  0.00    +0.050 A 
ATOM     17  C   UNL     1      -3.093   1.150  24.976  0.00  0.00    +0.052 A 
ATOM     18  C   UNL     1      -4.136   0.247  24.978  0.00  0.00    +0.078 A 
ATOM     20  C   UNL     1      -5.587   1.851  25.680  0.00  0.00    +0.127 A 
ATOM     23  C   UNL     1      -6.973   2.240  26.072  0.00  0.00    +0.088 C 
BRANCH  18  21
ATOM     21  C   UNL     1      -3.932  -1.131  24.599  0.00  0.00    +0.042 A 
ATOM     24  C   UNL     1      -2.795  -1.825  25.013  0.00  0.00    +0.129 A 
ATOM     25  C   UNL     1      -4.890  -1.767  23.811  0.00  0.00    +0.013 A 
ATOM     26  C   UNL     1      -2.616  -3.156  24.636  0.00  0.00    +0.046 A 
ATOM     27  C   UNL     1      -4.711  -3.098  23.433  0.00  0.00    +0.001 A 
ATOM     28  C   UNL     1      -3.574  -3.793  23.847  0.00  0.00    +0.004 A 
BRANCH  24   3
ATOM      3  O   UNL     1      -1.842  -1.228  25.784  0.00  0.00    -0.494 OA
ATOM     30  C   UNL     1      -0.483  -1.444  25.412  0.00  0.00    +0.277 C 
ENDBRANCH  24   3
ENDBRANCH  18  21
ENDBRANCH   9  16
BRANCH  10  15
ATOM     15  C   UNL     1       0.866   1.632  24.023  0.00  0.00    +0.123 C 
BRANCH  15   5
ATOM      1  O   UNL     1       2.107  -0.379  22.356  0.00  0.00    -0.273 OA
ATOM      5  N   UNL     1       2.227   1.594  23.586  0.00  0.00    -0.312 N 
ATOM     19  C   UNL     1       2.744   0.582  22.779  0.00  0.00    +0.239 C 
ATOM     31  H   UNL     1       2.843   2.344  23.885  0.00  0.00    +0.149 HD
BRANCH  19  22
ATOM     22  C   UNL     1       4.211   0.792  22.468  0.00  0.00    +0.255 C 
BRANCH  22   2
ATOM      2  O   UNL     1       4.974   0.811  23.656  0.00  0.00    -0.374 OA
ATOM     29  C   UNL     1       5.402  -0.495  24.032  0.00  0.00    +0.194 C 
ENDBRANCH  22   2
ENDBRANCH  19  22
ENDBRANCH  15   5
ENDBRANCH  10  15
TORSDOF 7
ENDMDL
MODEL 2
REMARK VINA RESULT:      -1.1      1.606      5.198
REMARK  Name = 40776909
REMARK  10 active torsions:
REMARK  status: ('A' for Active; 'I' for Inactive)
REMARK    1  A    between atoms: O_2  and  C_22
REMARK    2  A    between atoms: O_2  and  C_29
REMARK    3  A    between atoms: O_3  and  C_24
REMARK    4  A    between atoms: O_3  and  C_30
REMARK    5  A    between atoms: N_5  and  C_15
REMARK    6  A    between atoms: C_9  and  C_16
REMARK    7  A    between atoms: C_10  and  C_15
REMARK    8  A    between atoms: C_18  and  C_21
REMARK    9  A    between atoms: C_19  and  C_22
REMARK   10  A    between atoms: C_20  and  C_23
REMARK                            x       y       z     vdW  Elec       q    Type
REMARK                         _______ _______ _______ _____ _____    ______ ____
ROOT
ATOM      4  N   UNL     1      -2.783  -2.307  23.660  0.00  0.00    -0.297 NA
ATOM      8  C   UNL     1      -2.866  -1.343  26.078  0.00  0.00    +0.002 C 
ATOM      9  C   UNL     1      -3.984  -0.712  25.202  0.00  0.00    +0.055 C 
ATOM     10  C   UNL     1      -1.429  -1.850  24.073  0.00  0.00    +0.074 C 
ATOM     11  C   UNL     1      -1.496  -1.091  25.415  0.00  0.00    +0.024 C 
ATOM     12  C   UNL     1      -3.100  -2.868  26.069  0.00  0.00    +0.019 C 
ATOM     13  C   UNL     1      -3.745  -1.179  23.738  0.00  0.00    +0.094 C 
ATOM     14  C   UNL     1      -3.220  -3.355  24.614  0.00  0.00    +0.085 C 
ENDROOT
BRANCH   9  16
ATOM      6  N   UNL     1      -5.465   1.195  25.589  0.00  0.00    -0.237 NA
ATOM      7  N   UNL     1      -4.680   3.472  25.484  0.00  0.00    -0.232 NA
ATOM     16  C   UNL     1      -4.212   0.790  25.300  0.00  0.00    +0.050 A 
ATOM     17  C   UNL     1      -3.154   1.652  25.092  0.00  0.00    +0.052 A 
ATOM     18  C   UNL     1      -3.450   2.996  25.198  0.00  0.00    +0.078 A 
ATOM     20  C   UNL     1      -5.626   2.530  25.665  0.00  0.00    +0.127 A 
ATOM     23  C   UNL     1      -7.000   3.019  25.982  0.00  0.00    +0.088 C 
BRANCH  18  21
ATOM     21  C   UNL     1      -2.434   4.001  25.002  0.00  0.00    +0.042 A 
ATOM     24  C   UNL     1      -1.088   3.648  24.904  0.00  0.00    +0.129 A 
ATOM     25  C   UNL     1      -2.812   5.340  24.909  0.00  0.00    +0.013 A 
ATOM     26  C   UNL     1      -0.120   4.634  24.715  0.00  0.00    +0.046 A 
ATOM     27  C   UNL     1      -1.844   6.327  24.720  0.00  0.00    +0.001 A 
ATOM     28  C   UNL     1      -0.498   5.974  24.622  0.00  0.00    +0.004 A 
BRANCH  24   3
ATOM      3  O   UNL     1      -0.689   2.347  24.992  0.00  0.00    -0.494 OA
ATOM     30  C   UNL     1       0.133   1.997  26.102  0.00  0.00    +0.277 C 
ENDBRANCH  24   3
ENDBRANCH  18  21
ENDBRANCH   9  16
BRANCH  10  15
ATOM     15  C   UNL     1      -0.735  -1.028  22.985  0.00  0.00    +0.123 C 
BRANCH  15   5
ATOM      1  O   UNL     1       1.621  -0.324  21.461  0.00  0.00    -0.273 OA
ATOM      5  N   UNL     1       0.471  -0.439  23.482  0.00  0.00    -0.312 N 
ATOM     19  C   UNL     1       1.563  -0.131  22.672  0.00  0.00    +0.239 C 
ATOM     31  H   UNL     1       0.527  -0.242  24.476  0.00  0.00    +0.149 HD
BRANCH  19  22
ATOM     22  C   UNL     1       2.702   0.483  23.459  0.00  0.00    +0.255 C 
BRANCH  22   2
ATOM      2  O   UNL     1       3.803   0.748  22.616  0.00  0.00    -0.374 OA
ATOM     29  C   UNL     1       5.031   0.314  23.195  0.00  0.00    +0.194 C 
ENDBRANCH  22   2
ENDBRANCH  19  22
ENDBRANCH  15   5
ENDBRANCH  10  15
TORSDOF 7
ENDMDL
MODEL 3
REMARK VINA RESULT:       0.2      2.463      7.254
REMARK  Name = 40776909
REMARK  10 active torsions:
REMARK  status: ('A' for Active; 'I' for Inactive)
REMARK    1  A    between atoms: O_2  and  C_22
REMARK    2  A    between atoms: O_2  and  C_29
REMARK    3  A    between atoms: O_3  and  C_24
REMARK    4  A    between atoms: O_3  and  C_30
REMARK    5  A    between atoms: N_5  and  C_15
REMARK    6  A    between atoms: C_9  and  C_16
REMARK    7  A    between atoms: C_10  and  C_15
REMARK    8  A    between atoms: C_18  and  C_21
REMARK    9  A    between atoms: C_19  and  C_22
REMARK   10  A    between atoms: C_20  and  C_23
REMARK                            x       y       z     vdW  Elec       q    Type
REMARK                         _______ _______ _______ _____ _____    ______ ____
ROOT
ATOM      4  N   UNL     1      -3.504  -1.725  26.019  0.00  0.00    -0.297 NA
ATOM      8  C   UNL     1      -2.340  -1.947  23.700  0.00  0.00    +0.002 C 
ATOM      9  C   UNL     1      -1.347  -1.386  24.755  0.00  0.00    +0.055 C 
ATOM     10  C   UNL     1      -4.342  -1.092  24.966  0.00  0.00    +0.074 C 
ATOM     11  C   UNL     1      -3.579  -1.030  23.626  0.00  0.00    +0.024 C 
ATOM     12  C   UNL     1      -2.820  -3.317  24.225  0.00  0.00    +0.019 C 
ATOM     13  C   UNL     1      -2.161  -1.093  26.047  0.00  0.00    +0.094 C 
ATOM     14  C   UNL     1      -3.334  -3.155  25.666  0.00  0.00    +0.085 C 
ENDROOT
BRANCH   9  16
ATOM      6  N   UNL     1       0.734  -0.522  23.802  0.00  0.00    -0.237 NA
ATOM      7  N   UNL     1       1.179   1.840  23.619  0.00  0.00    -0.232 NA
ATOM     16  C   UNL     1      -0.458  -0.216  24.354  0.00  0.00    +0.050 A 
ATOM     17  C   UNL     1      -0.897   1.075  24.567  0.00  0.00    +0.052 A 
ATOM     18  C   UNL     1      -0.028   2.073  24.177  0.00  0.00    +0.078 A 
ATOM     20  C   UNL     1       1.491   0.539  23.463  0.00  0.00    +0.127 A 
ATOM     23  C   UNL     1       2.819   0.242  22.851  0.00  0.00    +0.088 C 
BRANCH  18  21
ATOM     21  C   UNL     1      -0.367   3.465  24.346  0.00  0.00    +0.042 A 
ATOM     24  C   UNL     1      -1.269   3.867  25.332  0.00  0.00    +0.129 A 
ATOM     25  C   UNL     1       0.221   4.414  23.511  0.00  0.00    +0.013 A 
ATOM     26  C   UNL     1      -1.583   5.218  25.480  0.00  0.00    +0.046 A 
ATOM     27  C   UNL     1      -0.094   5.765  23.659  0.00  0.00    +0.001 A 
ATOM     28  C   UNL     1      -0.996   6.167  24.644  0.00  0.00    +0.004 A 
BRANCH  24   3
ATOM      3  O   UNL     1      -1.859   2.961  26.163  0.00  0.00    -0.494 OA
ATOM     30  C   UNL     1      -2.880   3.450  27.030  0.00  0.00    +0.277 C 
ENDBRANCH  24   3
ENDBRANCH  18  21
ENDBRANCH   9  16
BRANCH  10  15
ATOM     15  C   UNL     1      -4.867   0.282  25.387  0.00  0.00    +0.123 C 
BRANCH  15   5
ATOM      1  O   UNL     1      -5.858   2.978  25.044  0.00  0.00    -0.273 OA
ATOM      5  N   UNL     1      -4.293   1.317  24.584  0.00  0.00    -0.312 N 
ATOM     19  C   UNL     1      -4.839   2.595  24.476  0.00  0.00    +0.239 C 
ATOM     31  H   UNL     1      -3.446   1.101  24.067  0.00  0.00    +0.149 HD
BRANCH  19  22
ATOM     22  C   UNL     1      -4.026   3.488  23.561  0.00  0.00    +0.255 C 
BRANCH  22   2
ATOM      2  O   UNL     1      -4.011   2.972  22.247  0.00  0.00    -0.374 OA
ATOM     29  C   UNL     1      -2.764   2.360  21.931  0.00  0.00    +0.194 C 
ENDBRANCH  22   2
ENDBRANCH  19  22
ENDBRANCH  15   5
ENDBRANCH  10  15
TORSDOF 7
ENDMDL
MODEL 4
REMARK VINA RESULT:       1.5      2.115      5.694
REMARK  Name = 40776909
REMARK  10 active torsions:
REMARK  status: ('A' for Active; 'I' for Inactive)
REMARK    1  A    between atoms: O_2  and  C_22
REMARK    2  A    between atoms: O_2  and  C_29
REMARK    3  A    between atoms: O_3  and  C_24
REMARK    4  A    between atoms: O_3  and  C_30
REMARK    5  A    between atoms: N_5  and  C_15
REMARK    6  A    between atoms: C_9  and  C_16
REMARK    7  A    between atoms: C_10  and  C_15
REMARK    8  A    between atoms: C_18  and  C_21
REMARK    9  A    between atoms: C_19  and  C_22
REMARK   10  A    between atoms: C_20  and  C_23
REMARK                            x       y       z     vdW  Elec       q    Type
REMARK                         _______ _______ _______ _____ _____    ______ ____
ROOT
ATOM      4  N   UNL     1      -2.066  -2.271  23.718  0.00  0.00    -0.297 NA
ATOM      8  C   UNL     1      -3.792  -2.042  25.656  0.00  0.00    +0.002 C 
ATOM      9  C   UNL     1      -4.055  -0.969  24.563  0.00  0.00    +0.055 C 
ATOM     10  C   UNL     1      -1.361  -2.244  25.027  0.00  0.00    +0.074 C 
ATOM     11  C   UNL     1      -2.343  -1.904  26.168  0.00  0.00    +0.024 C 
ATOM     12  C   UNL     1      -3.897  -3.418  24.963  0.00  0.00    +0.019 C 
ATOM     13  C   UNL     1      -2.875  -1.038  23.553  0.00  0.00    +0.094 C 
ATOM     14  C   UNL     1      -2.988  -3.432  23.722  0.00  0.00    +0.085 C 
ENDROOT
BRANCH   9  16
ATOM      6  N   UNL     1      -5.523   0.662  25.644  0.00  0.00    -0.237 NA
ATOM      7  N   UNL     1      -4.933   2.991  25.838  0.00  0.00    -0.232 NA
ATOM     16  C   UNL     1      -4.350   0.456  25.012  0.00  0.00    +0.050 A 
ATOM     17  C   UNL     1      -3.428   1.451  24.760  0.00  0.00    +0.052 A 
ATOM     18  C   UNL     1      -3.777   2.712  25.200  0.00  0.00    +0.078 A 
ATOM     20  C   UNL     1      -5.748   1.934  26.024  0.00  0.00    +0.127 A 
ATOM     23  C   UNL     1      -7.037   2.203  26.724  0.00  0.00    +0.088 C 
BRANCH  18  21
ATOM     21  C   UNL     1      -2.901   3.841  24.997  0.00  0.00    +0.042 A 
ATOM     24  C   UNL     1      -1.626   3.868  25.561  0.00  0.00    +0.129 A 
ATOM     25  C   UNL     1      -3.345   4.914  24.224  0.00  0.00    +0.013 A 
ATOM     26  C   UNL     1      -0.794   4.968  25.353  0.00  0.00    +0.046 A 
ATOM     27  C   UNL     1      -2.513   6.015  24.016  0.00  0.00    +0.001 A 
ATOM     28  C   UNL     1      -1.237   6.042  24.581  0.00  0.00    +0.004 A 
BRANCH  24   3
ATOM      3  O   UNL     1      -1.166   2.833  26.321  0.00  0.00    -0.494 OA
ATOM     30  C   UNL     1       0.243   2.619  26.335  0.00  0.00    +0.277 C 
ENDBRANCH  24   3
ENDBRANCH  18  21
ENDBRANCH   9  16
BRANCH  10  15
ATOM     15  C   UNL     1      -0.150  -1.310  25.018  0.00  0.00    +0.123 C 
BRANCH  15   5
ATOM      1  O   UNL     1       1.177  -0.020  22.795  0.00  0.00    -0.273 OA
ATOM      5  N   UNL     1      -0.481  -0.050  24.428  0.00  0.00    -0.312 N 
ATOM     19  C   UNL     1       0.215   0.500  23.353  0.00  0.00    +0.239 C 
ATOM     31  H   UNL     1      -1.263   0.467  24.820  0.00  0.00    +0.149 HD
BRANCH  19  22
ATOM     22  C   UNL     1      -0.350   1.840  22.931  0.00  0.00    +0.255 C 
BRANCH  22   2
ATOM      2  O   UNL     1      -1.758   1.783  22.851  0.00  0.00    -0.374 OA
ATOM     29  C   UNL     1      -2.239   2.266  21.600  0.00  0.00    +0.194 C 
ENDBRANCH  22   2
ENDBRANCH  19  22
ENDBRANCH  15   5
ENDBRANCH  10  15
TORSDOF 7
ENDMDL
MODEL 5
REMARK VINA RESULT:       1.9      1.967      5.894
REMARK  Name = 40776909
REMARK  10 active torsions:
REMARK  status: ('A' for Active; 'I' for Inactive)
REMARK    1  A    between atoms: O_2  and  C_22
REMARK    2  A    between atoms: O_2  and  C_29
REMARK    3  A    between atoms: O_3  and  C_24
REMARK    4  A    between atoms: O_3  and  C_30
REMARK    5  A    between atoms: N_5  and  C_15
REMARK    6  A    between atoms: C_9  and  C_16
REMARK    7  A    between atoms: C_10  and  C_15
REMARK    8  A    between atoms: C_18  and  C_21
REMARK    9  A    between atoms: C_19  and  C_22
REMARK   10  A    between atoms: C_20  and  C_23
REMARK                            x       y       z     vdW  Elec       q    Type
REMARK                         _______ _______ _______ _____ _____    ______ ____
ROOT
ATOM      4  N   UNL     1      -4.855   3.068  23.782  0.00  0.00    -0.297 NA
ATOM      8  C   UNL     1      -3.847   3.514  26.142  0.00  0.00    +0.002 C 
ATOM      9  C   UNL     1      -2.750   3.642  25.049  0.00  0.00    +0.055 C 
ATOM     10  C   UNL     1      -5.244   1.978  24.716  0.00  0.00    +0.074 C 
ATOM     11  C   UNL     1      -4.492   2.115  26.057  0.00  0.00    +0.024 C 
ATOM     12  C   UNL     1      -4.946   4.541  25.792  0.00  0.00    +0.019 C 
ATOM     13  C   UNL     1      -3.376   3.167  23.707  0.00  0.00    +0.094 C 
ATOM     14  C   UNL     1      -5.377   4.343  24.328  0.00  0.00    +0.085 C 
ENDROOT
BRANCH   9  16
ATOM      6  N   UNL     1      -0.921   3.084  26.573  0.00  0.00    -0.237 NA
ATOM      7  N   UNL     1       1.032   1.873  25.847  0.00  0.00    -0.232 NA
ATOM     16  C   UNL     1      -1.395   3.001  25.314  0.00  0.00    +0.050 A 
ATOM     17  C   UNL     1      -0.725   2.378  24.281  0.00  0.00    +0.052 A 
ATOM     18  C   UNL     1       0.497   1.827  24.609  0.00  0.00    +0.078 A 
ATOM     20  C   UNL     1       0.281   2.508  26.767  0.00  0.00    +0.127 A 
ATOM     23  C   UNL     1       0.840   2.580  28.148  0.00  0.00    +0.088 C 
BRANCH  18  21
ATOM     21  C   UNL     1       1.299   1.149  23.619  0.00  0.00    +0.042 A 
ATOM     24  C   UNL     1       0.774   0.091  22.876  0.00  0.00    +0.129 A 
ATOM     25  C   UNL     1       2.613   1.564  23.409  0.00  0.00    +0.013 A 
ATOM     26  C   UNL     1       1.566  -0.551  21.923  0.00  0.00    +0.046 A 
ATOM     27  C   UNL     1       3.405   0.921  22.457  0.00  0.00    +0.001 A 
ATOM     28  C   UNL     1       2.881  -0.137  21.714  0.00  0.00    +0.004 A 
BRANCH  24   3
ATOM      3  O   UNL     1      -0.507  -0.336  23.060  0.00  0.00    -0.494 OA
ATOM     30  C   UNL     1      -0.681  -1.677  23.512  0.00  0.00    +0.277 C 
ENDBRANCH  24   3
ENDBRANCH  18  21
ENDBRANCH   9  16
BRANCH  10  15
ATOM     15  C   UNL     1      -5.064   0.589  24.100  0.00  0.00    +0.123 C 
BRANCH  15   5
ATOM      1  O   UNL     1      -4.354  -2.178  23.648  0.00  0.00    -0.273 OA
ATOM      5  N   UNL     1      -4.306  -0.259  24.966  0.00  0.00    -0.312 N 
ATOM     19  C   UNL     1      -4.008  -1.588  24.668  0.00  0.00    +0.239 C 
ATOM     31  H   UNL     1      -3.974   0.132  25.842  0.00  0.00    +0.149 HD
BRANCH  19  22
ATOM     22  C   UNL     1      -3.192  -2.250  25.759  0.00  0.00    +0.255 C 
BRANCH  22   2
ATOM      2  O   UNL     1      -2.749  -1.293  26.698  0.00  0.00    -0.374 OA
ATOM     29  C   UNL     1      -1.452  -0.798  26.380  0.00  0.00    +0.194 C 
ENDBRANCH  22   2
ENDBRANCH  19  22
ENDBRANCH  15   5
ENDBRANCH  10  15
TORSDOF 7
ENDMDL
MODEL 6
REMARK VINA RESULT:       2.1      2.048      5.707
REMARK  Name = 40776909
REMARK  10 active torsions:
REMARK  status: ('A' for Active; 'I' for Inactive)
REMARK    1  A    between atoms: O_2  and  C_22
REMARK    2  A    between atoms: O_2  and  C_29
REMARK    3  A    between atoms: O_3  and  C_24
REMARK    4  A    between atoms: O_3  and  C_30
REMARK    5  A    between atoms: N_5  and  C_15
REMARK    6  A    between atoms: C_9  and  C_16
REMARK    7  A    between atoms: C_10  and  C_15
REMARK    8  A    between atoms: C_18  and  C_21
REMARK    9  A    between atoms: C_19  and  C_22
REMARK   10  A    between atoms: C_20  and  C_23
REMARK                            x       y       z     vdW  Elec       q    Type
REMARK                         _______ _______ _______ _____ _____    ______ ____
ROOT
ATOM      4  N   UNL     1      -1.766  -2.408  23.802  0.00  0.00    -0.297 NA
ATOM      8  C   UNL     1      -3.803  -2.112  25.398  0.00  0.00    +0.002 C 
ATOM      9  C   UNL     1      -3.792  -0.995  24.319  0.00  0.00    +0.055 C 
ATOM     10  C   UNL     1      -1.315  -2.464  25.218  0.00  0.00    +0.074 C 
ATOM     11  C   UNL     1      -2.468  -2.088  26.172  0.00  0.00    +0.024 C 
ATOM     12  C   UNL     1      -3.865  -3.458  24.645  0.00  0.00    +0.019 C 
ATOM     13  C   UNL     1      -2.452  -1.118  23.539  0.00  0.00    +0.094 C 
ATOM     14  C   UNL     1      -2.744  -3.502  23.591  0.00  0.00    +0.085 C 
ENDROOT
BRANCH   9  16
ATOM      6  N   UNL     1      -5.303   0.682  25.260  0.00  0.00    -0.237 NA
ATOM      7  N   UNL     1      -4.640   2.979  25.568  0.00  0.00    -0.232 NA
ATOM     16  C   UNL     1      -4.075   0.434  24.761  0.00  0.00    +0.050 A 
ATOM     17  C   UNL     1      -3.088   1.391  24.636  0.00  0.00    +0.052 A 
ATOM     18  C   UNL     1      -3.431   2.660  25.060  0.00  0.00    +0.078 A 
ATOM     20  C   UNL     1      -5.514   1.957  25.638  0.00  0.00    +0.127 A 
ATOM     23  C   UNL     1      -6.863   2.273  26.193  0.00  0.00    +0.088 C 
BRANCH  18  21
ATOM     21  C   UNL     1      -2.490   3.751  24.981  0.00  0.00    +0.042 A 
ATOM     24  C   UNL     1      -2.893   5.012  24.541  0.00  0.00    +0.129 A 
ATOM     25  C   UNL     1      -1.165   3.533  25.353  0.00  0.00    +0.013 A 
ATOM     26  C   UNL     1      -1.969   6.055  24.473  0.00  0.00    +0.046 A 
ATOM     27  C   UNL     1      -0.239   4.576  25.284  0.00  0.00    +0.001 A 
ATOM     28  C   UNL     1      -0.642   5.837  24.845  0.00  0.00    +0.004 A 
BRANCH  24   3
ATOM      3  O   UNL     1      -4.183   5.254  24.171  0.00  0.00    -0.494 OA
ATOM     30  C   UNL     1      -4.382   5.950  22.942  0.00  0.00    +0.277 C 
ENDBRANCH  24   3
ENDBRANCH  18  21
ENDBRANCH   9  16
BRANCH  10  15
ATOM     15  C   UNL     1      -0.067  -1.615  25.466  0.00  0.00    +0.123 C 
BRANCH  15   5
ATOM      1  O   UNL     1       0.332   0.979  24.251  0.00  0.00    -0.273 OA
ATOM      5  N   UNL     1       0.611  -1.332  24.239  0.00  0.00    -0.312 N 
ATOM     19  C   UNL     1       0.759  -0.045  23.725  0.00  0.00    +0.239 C 
ATOM     31  H   UNL     1       0.999  -2.114  23.721  0.00  0.00    +0.149 HD
BRANCH  19  22
ATOM     22  C   UNL     1       1.518  -0.037  22.414  0.00  0.00    +0.255 C 
BRANCH  22   2
ATOM      2  O   UNL     1       2.883  -0.325  22.629  0.00  0.00    -0.374 OA
ATOM     29  C   UNL     1       3.679   0.856  22.646  0.00  0.00    +0.194 C 
ENDBRANCH  22   2
ENDBRANCH  19  22
ENDBRANCH  15   5
ENDBRANCH  10  15
TORSDOF 7
ENDMDL
MODEL 7
REMARK VINA RESULT:       2.3      2.154      7.142
REMARK  Name = 40776909
REMARK  10 active torsions:
REMARK  status: ('A' for Active; 'I' for Inactive)
REMARK    1  A    between atoms: O_2  and  C_22
REMARK    2  A    between atoms: O_2  and  C_29
REMARK    3  A    between atoms: O_3  and  C_24
REMARK    4  A    between atoms: O_3  and  C_30
REMARK    5  A    between atoms: N_5  and  C_15
REMARK    6  A    between atoms: C_9  and  C_16
REMARK    7  A    between atoms: C_10  and  C_15
REMARK    8  A    between atoms: C_18  and  C_21
REMARK    9  A    between atoms: C_19  and  C_22
REMARK   10  A    between atoms: C_20  and  C_23
REMARK                            x       y       z     vdW  Elec       q    Type
REMARK                         _______ _______ _______ _____ _____    ______ ____
ROOT
ATOM      4  N   UNL     1      -3.724  -1.424  26.042  0.00  0.00    -0.297 NA
ATOM      8  C   UNL     1      -2.461  -1.652  23.776  0.00  0.00    +0.002 C 
ATOM      9  C   UNL     1      -1.488  -1.194  24.897  0.00  0.00    +0.055 C 
ATOM     10  C   UNL     1      -4.463  -0.701  24.972  0.00  0.00    +0.074 C 
ATOM     11  C   UNL     1      -3.630  -0.650  23.674  0.00  0.00    +0.024 C 
ATOM     12  C   UNL     1      -3.059  -3.001  24.229  0.00  0.00    +0.019 C 
ATOM     13  C   UNL     1      -2.345  -0.887  26.158  0.00  0.00    +0.094 C 
ATOM     14  C   UNL     1      -3.634  -2.850  25.648  0.00  0.00    +0.085 C 
ENDROOT
BRANCH   9  16
ATOM      6  N   UNL     1      -0.936   1.185  24.775  0.00  0.00    -0.237 NA
ATOM      7  N   UNL     1       1.218   1.968  24.029  0.00  0.00    -0.232 NA
ATOM     16  C   UNL     1      -0.503  -0.077  24.581  0.00  0.00    +0.050 A 
ATOM     17  C   UNL     1       0.759  -0.394  24.121  0.00  0.00    +0.052 A 
ATOM     18  C   UNL     1       1.585   0.680  23.858  0.00  0.00    +0.078 A 
ATOM     20  C   UNL     1      -0.037   2.145  24.483  0.00  0.00    +0.127 A 
ATOM     23  C   UNL     1      -0.480   3.555  24.682  0.00  0.00    +0.088 C 
BRANCH  18  21
ATOM     21  C   UNL     1       2.929   0.485  23.371  0.00  0.00    +0.042 A 
ATOM     24  C   UNL     1       3.170   0.224  22.021  0.00  0.00    +0.129 A 
ATOM     25  C   UNL     1       3.994   0.562  24.267  0.00  0.00    +0.013 A 
ATOM     26  C   UNL     1       4.476   0.038  21.570  0.00  0.00    +0.046 A 
ATOM     27  C   UNL     1       5.302   0.376  23.815  0.00  0.00    +0.001 A 
ATOM     28  C   UNL     1       5.542   0.114  22.466  0.00  0.00    +0.004 A 
BRANCH  24   3
ATOM      3  O   UNL     1       2.147   0.143  21.123  0.00  0.00    -0.494 OA
ATOM     30  C   UNL     1       1.257  -0.962  21.257  0.00  0.00    +0.277 C 
ENDBRANCH  24   3
ENDBRANCH  18  21
ENDBRANCH   9  16
BRANCH  10  15
ATOM     15  C   UNL     1      -4.915   0.692  25.415  0.00  0.00    +0.123 C 
BRANCH  15   5
ATOM      1  O   UNL     1      -5.251   3.554  25.667  0.00  0.00    -0.273 OA
ATOM      5  N   UNL     1      -4.316   1.706  24.604  0.00  0.00    -0.312 N 
ATOM     19  C   UNL     1      -4.533   3.069  24.796  0.00  0.00    +0.239 C 
ATOM     31  H   UNL     1      -3.704   1.410  23.849  0.00  0.00    +0.149 HD
BRANCH  19  22
ATOM     22  C   UNL     1      -3.773   3.916  23.796  0.00  0.00    +0.255 C 
BRANCH  22   2
ATOM      2  O   UNL     1      -3.910   3.389  22.493  0.00  0.00    -0.374 OA
ATOM     29  C   UNL     1      -2.793   2.585  22.125  0.00  0.00    +0.194 C 
ENDBRANCH  22   2
ENDBRANCH  19  22
ENDBRANCH  15   5
ENDBRANCH  10  15
TORSDOF 7
ENDMDL
