MODEL 1
REMARK VINA RESULT:       0.4      0.000      0.000
REMARK  Name = 45360760
REMARK  13 active torsions:
REMARK  status: ('A' for Active; 'I' for Inactive)
REMARK    1  A    between atoms: N_5  and  C_9
REMARK    2  A    between atoms: N_5  and  C_17
REMARK    3  A    between atoms: N_6  and  C_22
REMARK    4  A    between atoms: N_6  and  C_23
REMARK    5  A    between atoms: N_7  and  C_26
REMARK    6  A    between atoms: N_7  and  C_29
REMARK    7  A    between atoms: N_7  and  C_30
REMARK    8  A    between atoms: C_10  and  C_15
REMARK    9  A    between atoms: C_15  and  C_16
REMARK   10  A    between atoms: C_16  and  C_18
REMARK   11  A    between atoms: C_17  and  C_19
REMARK   12  A    between atoms: C_22  and  C_27
REMARK   13  A    between atoms: C_23  and  C_28
REMARK                            x       y       z     vdW  Elec       q    Type
REMARK                         _______ _______ _______ _____ _____    ______ ____
ROOT
ATOM      1  O   UNL     1      -0.680   5.355  25.057  0.00  0.00    -0.274 OA
ATOM      3  N   UNL     1      -2.524   2.205  25.018  0.00  0.00    -0.286 NA
ATOM      4  N   UNL     1      -2.863   4.953  24.563  0.00  0.00    -0.313 N 
ATOM      8  C   UNL     1      -1.431   3.103  25.412  0.00  0.00    +0.145 C 
ATOM      9  C   UNL     1      -0.695   1.285  23.980  0.00  0.00    +0.070 C 
ATOM     10  C   UNL     1      -3.855   2.787  25.148  0.00  0.00    +0.075 C 
ATOM     11  C   UNL     1      -0.179   2.496  24.758  0.00  0.00    +0.048 C 
ATOM     12  C   UNL     1      -2.159   1.621  23.730  0.00  0.00    +0.104 C 
ATOM     13  C   UNL     1      -3.972   4.060  24.322  0.00  0.00    +0.123 C 
ATOM     14  C   UNL     1      -1.615   4.554  24.977  0.00  0.00    +0.230 C 
ATOM     31  H   UNL     1      -2.978   5.927  24.295  0.00  0.00    +0.149 HD
ENDROOT
BRANCH   9   5
ATOM      5  N   UNL     1       0.057   1.026  22.763  0.00  0.00    -0.308 NA
ATOM     32  H   UNL     1      -0.578   1.070  21.964  0.00  0.00    +0.123 HD
BRANCH   5  17
ATOM     17  C   UNL     1       0.679  -0.291  22.802  0.00  0.00    +0.116 C 
BRANCH  17  19
ATOM     19  C   UNL     1       2.174  -0.201  22.962  0.00  0.00    -0.033 A 
ATOM     20  C   UNL     1       2.885  -1.276  23.493  0.00  0.00    +0.007 A 
ATOM     21  C   UNL     1       2.847   0.959  22.579  0.00  0.00    +0.007 A 
ATOM     24  C   UNL     1       4.269  -1.192  23.641  0.00  0.00    +0.023 A 
ATOM     25  C   UNL     1       4.231   1.044  22.727  0.00  0.00    +0.023 A 
ATOM     26  C   UNL     1       4.942  -0.032  23.258  0.00  0.00    +0.029 A 
BRANCH  26   7
ATOM      7  N   UNL     1       6.342   0.054  23.408  0.00  0.00    -0.336 N 
ATOM     29  C   UNL     1       7.210  -0.902  22.749  0.00  0.00    +0.129 C 
ATOM     30  C   UNL     1       6.931   1.102  24.216  0.00  0.00    +0.129 C 
ENDBRANCH  26   7
ENDBRANCH  17  19
ENDBRANCH   5  17
ENDBRANCH   9   5
BRANCH  10  15
ATOM     15  C   UNL     1      -4.970   1.801  24.798  0.00  0.00    +0.029 C 
BRANCH  15  16
ATOM     16  C   UNL     1      -4.812   0.494  25.567  0.00  0.00    +0.097 C 
BRANCH  16  18
ATOM      2  O   UNL     1      -4.789  -0.913  23.626  0.00  0.00    -0.276 OA
ATOM      6  N   UNL     1      -3.111  -1.273  25.187  0.00  0.00    -0.302 N 
ATOM     18  C   UNL     1      -4.249  -0.622  24.697  0.00  0.00    +0.216 C 
BRANCH   6  22
ATOM     22  C   UNL     1      -2.518  -2.359  24.417  0.00  0.00    +0.104 C 
ATOM     27  C   UNL     1      -3.444  -3.556  24.343  0.00  0.00    +0.024 C 
ENDBRANCH   6  22
BRANCH   6  23
ATOM     23  C   UNL     1      -2.438  -0.963  26.446  0.00  0.00    +0.104 C 
ATOM     28  C   UNL     1      -0.935  -0.902  26.271  0.00  0.00    +0.024 C 
ENDBRANCH   6  23
ENDBRANCH  16  18
ENDBRANCH  15  16
ENDBRANCH  10  15
TORSDOF 9
ENDMDL
MODEL 2
REMARK VINA RESULT:       1.8      1.846      7.251
REMARK  Name = 45360760
REMARK  13 active torsions:
REMARK  status: ('A' for Active; 'I' for Inactive)
REMARK    1  A    between atoms: N_5  and  C_9
REMARK    2  A    between atoms: N_5  and  C_17
REMARK    3  A    between atoms: N_6  and  C_22
REMARK    4  A    between atoms: N_6  and  C_23
REMARK    5  A    between atoms: N_7  and  C_26
REMARK    6  A    between atoms: N_7  and  C_29
REMARK    7  A    between atoms: N_7  and  C_30
REMARK    8  A    between atoms: C_10  and  C_15
REMARK    9  A    between atoms: C_15  and  C_16
REMARK   10  A    between atoms: C_16  and  C_18
REMARK   11  A    between atoms: C_17  and  C_19
REMARK   12  A    between atoms: C_22  and  C_27
REMARK   13  A    between atoms: C_23  and  C_28
REMARK                            x       y       z     vdW  Elec       q    Type
REMARK                         _______ _______ _______ _____ _____    ______ ____
ROOT
ATOM      1  O   UNL     1      -3.592  -3.884  24.609  0.00  0.00    -0.274 OA
ATOM      3  N   UNL     1      -2.475  -0.542  25.559  0.00  0.00    -0.286 NA
ATOM      4  N   UNL     1      -1.759  -2.717  23.938  0.00  0.00    -0.313 N 
ATOM      8  C   UNL     1      -3.217  -1.797  25.733  0.00  0.00    +0.145 C 
ATOM      9  C   UNL     1      -4.664   0.117  25.360  0.00  0.00    +0.070 C 
ATOM     10  C   UNL     1      -1.076  -0.719  25.186  0.00  0.00    +0.075 C 
ATOM     11  C   UNL     1      -4.695  -1.386  25.636  0.00  0.00    +0.048 C 
ATOM     12  C   UNL     1      -3.296   0.334  24.727  0.00  0.00    +0.104 C 
ATOM     13  C   UNL     1      -0.957  -1.517  23.896  0.00  0.00    +0.123 C 
ATOM     14  C   UNL     1      -2.889  -2.873  24.702  0.00  0.00    +0.230 C 
ATOM     31  H   UNL     1      -1.540  -3.451  23.270  0.00  0.00    +0.149 HD
ENDROOT
BRANCH   9   5
ATOM      5  N   UNL     1      -5.767   0.567  24.525  0.00  0.00    -0.308 NA
ATOM     32  H   UNL     1      -5.498   0.480  23.544  0.00  0.00    +0.123 HD
BRANCH   5  17
ATOM     17  C   UNL     1      -6.100   1.958  24.803  0.00  0.00    +0.116 C 
BRANCH  17  19
ATOM     19  C   UNL     1      -4.873   2.829  24.854  0.00  0.00    -0.033 A 
ATOM     20  C   UNL     1      -4.452   3.373  26.067  0.00  0.00    +0.007 A 
ATOM     21  C   UNL     1      -4.155   3.091  23.687  0.00  0.00    +0.007 A 
ATOM     24  C   UNL     1      -3.316   4.180  26.114  0.00  0.00    +0.023 A 
ATOM     25  C   UNL     1      -3.018   3.899  23.733  0.00  0.00    +0.023 A 
ATOM     26  C   UNL     1      -2.599   4.442  24.946  0.00  0.00    +0.029 A 
BRANCH  26   7
ATOM      7  N   UNL     1      -1.449   5.258  24.993  0.00  0.00    -0.336 N 
ATOM     29  C   UNL     1      -1.575   6.703  24.990  0.00  0.00    +0.129 C 
ATOM     30  C   UNL     1      -0.129   4.665  25.052  0.00  0.00    +0.129 C 
ENDBRANCH  26   7
ENDBRANCH  17  19
ENDBRANCH   5  17
ENDBRANCH   9   5
BRANCH  10  15
ATOM     15  C   UNL     1      -0.316   0.605  25.085  0.00  0.00    +0.029 C 
BRANCH  15  16
ATOM     16  C   UNL     1       0.083   0.902  23.643  0.00  0.00    +0.097 C 
BRANCH  16  18
ATOM      2  O   UNL     1       1.714   2.629  23.970  0.00  0.00    -0.276 OA
ATOM      6  N   UNL     1       2.455   0.683  22.949  0.00  0.00    -0.302 N 
ATOM     18  C   UNL     1       1.483   1.495  23.543  0.00  0.00    +0.216 C 
BRANCH   6  22
ATOM     22  C   UNL     1       3.818   1.182  22.808  0.00  0.00    +0.104 C 
ATOM     27  C   UNL     1       4.836   0.135  23.206  0.00  0.00    +0.024 C 
ENDBRANCH   6  22
BRANCH   6  23
ATOM     23  C   UNL     1       2.230  -0.664  22.430  0.00  0.00    +0.104 C 
ATOM     28  C   UNL     1       1.345  -0.644  21.201  0.00  0.00    +0.024 C 
ENDBRANCH   6  23
ENDBRANCH  16  18
ENDBRANCH  15  16
ENDBRANCH  10  15
TORSDOF 9
ENDMDL
MODEL 3
REMARK VINA RESULT:       2.2      2.101      7.877
REMARK  Name = 45360760
REMARK  13 active torsions:
REMARK  status: ('A' for Active; 'I' for Inactive)
REMARK    1  A    between atoms: N_5  and  C_9
REMARK    2  A    between atoms: N_5  and  C_17
REMARK    3  A    between atoms: N_6  and  C_22
REMARK    4  A    between atoms: N_6  and  C_23
REMARK    5  A    between atoms: N_7  and  C_26
REMARK    6  A    between atoms: N_7  and  C_29
REMARK    7  A    between atoms: N_7  and  C_30
REMARK    8  A    between atoms: C_10  and  C_15
REMARK    9  A    between atoms: C_15  and  C_16
REMARK   10  A    between atoms: C_16  and  C_18
REMARK   11  A    between atoms: C_17  and  C_19
REMARK   12  A    between atoms: C_22  and  C_27
REMARK   13  A    between atoms: C_23  and  C_28
REMARK                            x       y       z     vdW  Elec       q    Type
REMARK                         _______ _______ _______ _____ _____    ______ ____
ROOT
ATOM      1  O   UNL     1      -2.776  -0.050  26.122  0.00  0.00    -0.274 OA
ATOM      3  N   UNL     1       0.333   0.836  24.426  0.00  0.00    -0.286 NA
ATOM      4  N   UNL     1      -2.161  -0.361  23.956  0.00  0.00    -0.313 N 
ATOM      8  C   UNL     1      -0.507   0.526  25.590  0.00  0.00    +0.145 C 
ATOM      9  C   UNL     1       0.234   2.837  25.545  0.00  0.00    +0.070 C 
ATOM     10  C   UNL     1       0.194  -0.103  23.319  0.00  0.00    +0.075 C 
ATOM     11  C   UNL     1      -0.569   1.841  26.382  0.00  0.00    +0.048 C 
ATOM     12  C   UNL     1       0.163   2.258  24.139  0.00  0.00    +0.104 C 
ATOM     13  C   UNL     1      -1.251  -0.176  22.849  0.00  0.00    +0.123 C 
ATOM     14  C   UNL     1      -1.912   0.039  25.246  0.00  0.00    +0.230 C 
ATOM     31  H   UNL     1      -3.094  -0.703  23.743  0.00  0.00    +0.149 HD
ENDROOT
BRANCH   9   5
ATOM      5  N   UNL     1      -0.271   4.198  25.638  0.00  0.00    -0.308 NA
ATOM     32  H   UNL     1      -0.746   4.316  26.534  0.00  0.00    +0.123 HD
BRANCH   5  17
ATOM     17  C   UNL     1      -1.212   4.481  24.562  0.00  0.00    +0.116 C 
BRANCH  17  19
ATOM     19  C   UNL     1      -2.548   3.827  24.799  0.00  0.00    -0.033 A 
ATOM     20  C   UNL     1      -3.120   3.030  23.809  0.00  0.00    +0.007 A 
ATOM     21  C   UNL     1      -3.213   4.020  26.010  0.00  0.00    +0.007 A 
ATOM     24  C   UNL     1      -4.357   2.425  24.029  0.00  0.00    +0.023 A 
ATOM     25  C   UNL     1      -4.450   3.415  26.230  0.00  0.00    +0.023 A 
ATOM     26  C   UNL     1      -5.022   2.617  25.240  0.00  0.00    +0.029 A 
BRANCH  26   7
ATOM      7  N   UNL     1      -6.273   2.006  25.462  0.00  0.00    -0.336 N 
ATOM     29  C   UNL     1      -6.717   1.713  26.811  0.00  0.00    +0.129 C 
ATOM     30  C   UNL     1      -7.134   1.668  24.347  0.00  0.00    +0.129 C 
ENDBRANCH  26   7
ENDBRANCH  17  19
ENDBRANCH   5  17
ENDBRANCH   9   5
BRANCH  10  15
ATOM     15  C   UNL     1       1.135   0.209  22.154  0.00  0.00    +0.029 C 
BRANCH  15  16
ATOM     16  C   UNL     1       2.488  -0.469  22.342  0.00  0.00    +0.097 C 
BRANCH  16  18
ATOM      2  O   UNL     1       3.369   1.708  22.819  0.00  0.00    -0.276 OA
ATOM      6  N   UNL     1       4.691  -0.100  23.423  0.00  0.00    -0.302 N 
ATOM     18  C   UNL     1       3.544   0.489  22.878  0.00  0.00    +0.216 C 
BRANCH   6  22
ATOM     22  C   UNL     1       5.753   0.750  23.948  0.00  0.00    +0.104 C 
ATOM     27  C   UNL     1       7.122   0.181  23.640  0.00  0.00    +0.024 C 
ENDBRANCH   6  22
BRANCH   6  23
ATOM     23  C   UNL     1       4.942  -1.536  23.514  0.00  0.00    +0.104 C 
ATOM     28  C   UNL     1       3.816  -2.251  24.231  0.00  0.00    +0.024 C 
ENDBRANCH   6  23
ENDBRANCH  16  18
ENDBRANCH  15  16
ENDBRANCH  10  15
TORSDOF 9
ENDMDL
MODEL 4
REMARK VINA RESULT:       2.3      1.962      6.948
REMARK  Name = 45360760
REMARK  13 active torsions:
REMARK  status: ('A' for Active; 'I' for Inactive)
REMARK    1  A    between atoms: N_5  and  C_9
REMARK    2  A    between atoms: N_5  and  C_17
REMARK    3  A    between atoms: N_6  and  C_22
REMARK    4  A    between atoms: N_6  and  C_23
REMARK    5  A    between atoms: N_7  and  C_26
REMARK    6  A    between atoms: N_7  and  C_29
REMARK    7  A    between atoms: N_7  and  C_30
REMARK    8  A    between atoms: C_10  and  C_15
REMARK    9  A    between atoms: C_15  and  C_16
REMARK   10  A    between atoms: C_16  and  C_18
REMARK   11  A    between atoms: C_17  and  C_19
REMARK   12  A    between atoms: C_22  and  C_27
REMARK   13  A    between atoms: C_23  and  C_28
REMARK                            x       y       z     vdW  Elec       q    Type
REMARK                         _______ _______ _______ _____ _____    ______ ____
ROOT
ATOM      1  O   UNL     1      -0.444   2.391  27.908  0.00  0.00    -0.274 OA
ATOM      3  N   UNL     1      -0.137   2.479  24.272  0.00  0.00    -0.286 NA
ATOM      4  N   UNL     1      -0.233   0.681  26.424  0.00  0.00    -0.313 N 
ATOM      8  C   UNL     1      -0.049   3.033  25.629  0.00  0.00    +0.145 C 
ATOM      9  C   UNL     1      -1.784   4.078  24.291  0.00  0.00    +0.070 C 
ATOM     10  C   UNL     1       0.465   1.159  24.121  0.00  0.00    +0.075 C 
ATOM     11  C   UNL     1      -1.121   4.133  25.667  0.00  0.00    +0.048 C 
ATOM     12  C   UNL     1      -1.517   2.653  23.824  0.00  0.00    +0.104 C 
ATOM     13  C   UNL     1      -0.172   0.162  25.077  0.00  0.00    +0.123 C 
ATOM     14  C   UNL     1      -0.281   2.016  26.743  0.00  0.00    +0.230 C 
ATOM     31  H   UNL     1      -0.369   0.013  27.178  0.00  0.00    +0.149 HD
ENDROOT
BRANCH   9   5
ATOM      5  N   UNL     1      -3.197   4.423  24.324  0.00  0.00    -0.308 NA
ATOM     32  H   UNL     1      -3.556   4.261  25.265  0.00  0.00    +0.123 HD
BRANCH   5  17
ATOM     17  C   UNL     1      -3.955   3.611  23.381  0.00  0.00    +0.116 C 
BRANCH  17  19
ATOM     19  C   UNL     1      -3.905   2.148  23.735  0.00  0.00    -0.033 A 
ATOM     20  C   UNL     1      -3.316   1.237  22.860  0.00  0.00    +0.007 A 
ATOM     21  C   UNL     1      -4.449   1.704  24.941  0.00  0.00    +0.007 A 
ATOM     24  C   UNL     1      -3.270  -0.117  23.188  0.00  0.00    +0.023 A 
ATOM     25  C   UNL     1      -4.404   0.348  25.269  0.00  0.00    +0.023 A 
ATOM     26  C   UNL     1      -3.814  -0.561  24.393  0.00  0.00    +0.029 A 
BRANCH  26   7
ATOM      7  N   UNL     1      -3.769  -1.932  24.725  0.00  0.00    -0.336 N 
ATOM     29  C   UNL     1      -4.314  -2.924  23.821  0.00  0.00    +0.129 C 
ATOM     30  C   UNL     1      -3.170  -2.366  25.971  0.00  0.00    +0.129 C 
ENDBRANCH  26   7
ENDBRANCH  17  19
ENDBRANCH   5  17
ENDBRANCH   9   5
BRANCH  10  15
ATOM     15  C   UNL     1       0.418   0.647  22.681  0.00  0.00    +0.029 C 
BRANCH  15  16
ATOM     16  C   UNL     1       1.532  -0.362  22.418  0.00  0.00    +0.097 C 
BRANCH  16  18
ATOM      2  O   UNL     1       3.098   1.344  21.796  0.00  0.00    -0.276 OA
ATOM      6  N   UNL     1       3.911  -0.375  23.125  0.00  0.00    -0.302 N 
ATOM     18  C   UNL     1       2.909   0.290  22.409  0.00  0.00    +0.216 C 
BRANCH   6  22
ATOM     22  C   UNL     1       5.258   0.180  23.156  0.00  0.00    +0.104 C 
ATOM     27  C   UNL     1       5.662   0.577  24.561  0.00  0.00    +0.024 C 
ENDBRANCH   6  22
BRANCH   6  23
ATOM     23  C   UNL     1       3.734  -1.622  23.865  0.00  0.00    +0.104 C 
ATOM     28  C   UNL     1       5.006  -2.444  23.878  0.00  0.00    +0.024 C 
ENDBRANCH   6  23
ENDBRANCH  16  18
ENDBRANCH  15  16
ENDBRANCH  10  15
TORSDOF 9
ENDMDL
MODEL 5
REMARK VINA RESULT:       2.3      1.794      2.737
REMARK  Name = 45360760
REMARK  13 active torsions:
REMARK  status: ('A' for Active; 'I' for Inactive)
REMARK    1  A    between atoms: N_5  and  C_9
REMARK    2  A    between atoms: N_5  and  C_17
REMARK    3  A    between atoms: N_6  and  C_22
REMARK    4  A    between atoms: N_6  and  C_23
REMARK    5  A    between atoms: N_7  and  C_26
REMARK    6  A    between atoms: N_7  and  C_29
REMARK    7  A    between atoms: N_7  and  C_30
REMARK    8  A    between atoms: C_10  and  C_15
REMARK    9  A    between atoms: C_15  and  C_16
REMARK   10  A    between atoms: C_16  and  C_18
REMARK   11  A    between atoms: C_17  and  C_19
REMARK   12  A    between atoms: C_22  and  C_27
REMARK   13  A    between atoms: C_23  and  C_28
REMARK                            x       y       z     vdW  Elec       q    Type
REMARK                         _______ _______ _______ _____ _____    ______ ____
ROOT
ATOM      1  O   UNL     1       0.863   2.451  27.131  0.00  0.00    -0.274 OA
ATOM      3  N   UNL     1      -1.884   1.987  24.772  0.00  0.00    -0.286 NA
ATOM      4  N   UNL     1       0.067   3.856  25.530  0.00  0.00    -0.313 N 
ATOM      8  C   UNL     1      -1.127   1.724  26.003  0.00  0.00    +0.145 C 
ATOM      9  C   UNL     1      -1.090  -0.143  24.451  0.00  0.00    +0.070 C 
ATOM     10  C   UNL     1      -2.111   3.402  24.498  0.00  0.00    +0.075 C 
ATOM     11  C   UNL     1      -0.606   0.288  25.835  0.00  0.00    +0.048 C 
ATOM     12  C   UNL     1      -1.283   1.177  23.715  0.00  0.00    +0.104 C 
ATOM     13  C   UNL     1      -0.792   4.155  24.409  0.00  0.00    +0.123 C 
ATOM     14  C   UNL     1       0.027   2.690  26.255  0.00  0.00    +0.230 C 
ATOM     31  H   UNL     1       0.829   4.501  25.721  0.00  0.00    +0.149 HD
ENDROOT
BRANCH   9   5
ATOM      5  N   UNL     1      -0.172  -1.051  23.782  0.00  0.00    -0.308 NA
ATOM     32  H   UNL     1       0.540  -1.353  24.448  0.00  0.00    +0.123 HD
BRANCH   5  17
ATOM     17  C   UNL     1       0.479  -0.399  22.653  0.00  0.00    +0.116 C 
BRANCH  17  19
ATOM     19  C   UNL     1       1.961  -0.249  22.872  0.00  0.00    -0.033 A 
ATOM     20  C   UNL     1       2.693  -1.293  23.436  0.00  0.00    +0.007 A 
ATOM     21  C   UNL     1       2.603   0.936  22.510  0.00  0.00    +0.007 A 
ATOM     24  C   UNL     1       4.065  -1.154  23.639  0.00  0.00    +0.023 A 
ATOM     25  C   UNL     1       3.976   1.075  22.713  0.00  0.00    +0.023 A 
ATOM     26  C   UNL     1       4.707   0.031  23.277  0.00  0.00    +0.029 A 
BRANCH  26   7
ATOM      7  N   UNL     1       6.095   0.172  23.482  0.00  0.00    -0.336 N 
ATOM     29  C   UNL     1       7.026  -0.752  22.864  0.00  0.00    +0.129 C 
ATOM     30  C   UNL     1       6.610   1.246  24.307  0.00  0.00    +0.129 C 
ENDBRANCH  26   7
ENDBRANCH  17  19
ENDBRANCH   5  17
ENDBRANCH   9   5
BRANCH  10  15
ATOM     15  C   UNL     1      -2.962   3.634  23.249  0.00  0.00    +0.029 C 
BRANCH  15  16
ATOM     16  C   UNL     1      -4.207   2.752  23.257  0.00  0.00    +0.097 C 
BRANCH  16  18
ATOM      2  O   UNL     1      -5.068   3.613  25.322  0.00  0.00    -0.276 OA
ATOM      6  N   UNL     1      -5.024   1.305  25.099  0.00  0.00    -0.302 N 
ATOM     18  C   UNL     1      -4.805   2.612  24.651  0.00  0.00    +0.216 C 
BRANCH   6  22
ATOM     22  C   UNL     1      -5.585   1.087  26.427  0.00  0.00    +0.104 C 
ATOM     27  C   UNL     1      -6.847   1.897  26.636  0.00  0.00    +0.024 C 
ENDBRANCH   6  22
BRANCH   6  23
ATOM     23  C   UNL     1      -4.729   0.091  24.342  0.00  0.00    +0.104 C 
ATOM     28  C   UNL     1      -4.043  -0.948  25.204  0.00  0.00    +0.024 C 
ENDBRANCH   6  23
ENDBRANCH  16  18
ENDBRANCH  15  16
ENDBRANCH  10  15
TORSDOF 9
ENDMDL
MODEL 6
REMARK VINA RESULT:       2.4      1.321      2.175
REMARK  Name = 45360760
REMARK  13 active torsions:
REMARK  status: ('A' for Active; 'I' for Inactive)
REMARK    1  A    between atoms: N_5  and  C_9
REMARK    2  A    between atoms: N_5  and  C_17
REMARK    3  A    between atoms: N_6  and  C_22
REMARK    4  A    between atoms: N_6  and  C_23
REMARK    5  A    between atoms: N_7  and  C_26
REMARK    6  A    between atoms: N_7  and  C_29
REMARK    7  A    between atoms: N_7  and  C_30
REMARK    8  A    between atoms: C_10  and  C_15
REMARK    9  A    between atoms: C_15  and  C_16
REMARK   10  A    between atoms: C_16  and  C_18
REMARK   11  A    between atoms: C_17  and  C_19
REMARK   12  A    between atoms: C_22  and  C_27
REMARK   13  A    between atoms: C_23  and  C_28
REMARK                            x       y       z     vdW  Elec       q    Type
REMARK                         _______ _______ _______ _____ _____    ______ ____
ROOT
ATOM      1  O   UNL     1       0.598   3.036  26.577  0.00  0.00    -0.274 OA
ATOM      3  N   UNL     1      -2.283   1.982  24.599  0.00  0.00    -0.286 NA
ATOM      4  N   UNL     1      -1.118   4.268  25.734  0.00  0.00    -0.313 N 
ATOM      8  C   UNL     1      -1.166   1.787  25.532  0.00  0.00    +0.145 C 
ATOM      9  C   UNL     1      -0.832   0.663  23.407  0.00  0.00    +0.070 C 
ATOM     10  C   UNL     1      -3.127   3.132  24.904  0.00  0.00    +0.075 C 
ATOM     11  C   UNL     1      -0.185   0.879  24.775  0.00  0.00    +0.048 C 
ATOM     12  C   UNL     1      -1.739   1.876  23.247  0.00  0.00    +0.104 C 
ATOM     13  C   UNL     1      -2.307   4.413  24.928  0.00  0.00    +0.123 C 
ATOM     14  C   UNL     1      -0.477   3.076  25.971  0.00  0.00    +0.230 C 
ATOM     31  H   UNL     1      -0.658   5.118  26.050  0.00  0.00    +0.149 HD
ENDROOT
BRANCH   9   5
ATOM      5  N   UNL     1       0.139   0.521  22.333  0.00  0.00    -0.308 NA
ATOM     32  H   UNL     1      -0.355   0.500  21.439  0.00  0.00    +0.123 HD
BRANCH   5  17
ATOM     17  C   UNL     1       0.905  -0.710  22.480  0.00  0.00    +0.116 C 
BRANCH  17  19
ATOM     19  C   UNL     1       2.357  -0.435  22.772  0.00  0.00    -0.033 A 
ATOM     20  C   UNL     1       2.929   0.776  22.384  0.00  0.00    +0.007 A 
ATOM     21  C   UNL     1       3.129  -1.392  23.430  0.00  0.00    +0.007 A 
ATOM     24  C   UNL     1       4.273   1.030  22.654  0.00  0.00    +0.023 A 
ATOM     25  C   UNL     1       4.474  -1.138  23.700  0.00  0.00    +0.023 A 
ATOM     26  C   UNL     1       5.046   0.073  23.312  0.00  0.00    +0.029 A 
BRANCH  26   7
ATOM      7  N   UNL     1       6.406   0.330  23.585  0.00  0.00    -0.336 N 
ATOM     29  C   UNL     1       6.788   1.461  24.406  0.00  0.00    +0.129 C 
ATOM     30  C   UNL     1       7.438  -0.538  23.054  0.00  0.00    +0.129 C 
ENDBRANCH  26   7
ENDBRANCH  17  19
ENDBRANCH   5  17
ENDBRANCH   9   5
BRANCH  10  15
ATOM     15  C   UNL     1      -4.320   3.261  23.955  0.00  0.00    +0.029 C 
BRANCH  15  16
ATOM     16  C   UNL     1      -5.177   1.999  23.973  0.00  0.00    +0.097 C 
BRANCH  16  18
ATOM      2  O   UNL     1      -5.255   1.599  26.335  0.00  0.00    -0.276 OA
ATOM      6  N   UNL     1      -4.371  -0.098  25.025  0.00  0.00    -0.302 N 
ATOM     18  C   UNL     1      -4.945   1.162  25.224  0.00  0.00    +0.216 C 
BRANCH   6  22
ATOM     22  C   UNL     1      -4.108  -0.956  26.174  0.00  0.00    +0.104 C 
ATOM     27  C   UNL     1      -2.639  -1.309  26.276  0.00  0.00    +0.024 C 
ENDBRANCH   6  22
BRANCH   6  23
ATOM     23  C   UNL     1      -3.988  -0.657  23.731  0.00  0.00    +0.104 C 
ATOM     28  C   UNL     1      -4.349  -2.125  23.632  0.00  0.00    +0.024 C 
ENDBRANCH   6  23
ENDBRANCH  16  18
ENDBRANCH  15  16
ENDBRANCH  10  15
TORSDOF 9
ENDMDL
MODEL 7
REMARK VINA RESULT:       2.6      2.862      6.866
REMARK  Name = 45360760
REMARK  13 active torsions:
REMARK  status: ('A' for Active; 'I' for Inactive)
REMARK    1  A    between atoms: N_5  and  C_9
REMARK    2  A    between atoms: N_5  and  C_17
REMARK    3  A    between atoms: N_6  and  C_22
REMARK    4  A    between atoms: N_6  and  C_23
REMARK    5  A    between atoms: N_7  and  C_26
REMARK    6  A    between atoms: N_7  and  C_29
REMARK    7  A    between atoms: N_7  and  C_30
REMARK    8  A    between atoms: C_10  and  C_15
REMARK    9  A    between atoms: C_15  and  C_16
REMARK   10  A    between atoms: C_16  and  C_18
REMARK   11  A    between atoms: C_17  and  C_19
REMARK   12  A    between atoms: C_22  and  C_27
REMARK   13  A    between atoms: C_23  and  C_28
REMARK                            x       y       z     vdW  Elec       q    Type
REMARK                         _______ _______ _______ _____ _____    ______ ____
ROOT
ATOM      1  O   UNL     1       1.768   0.011  21.927  0.00  0.00    -0.274 OA
ATOM      3  N   UNL     1      -0.809   0.227  24.503  0.00  0.00    -0.286 NA
ATOM      4  N   UNL     1       1.560  -1.140  23.878  0.00  0.00    -0.313 N 
ATOM      8  C   UNL     1      -0.262   0.392  23.151  0.00  0.00    +0.145 C 
ATOM      9  C   UNL     1      -0.687   2.506  24.267  0.00  0.00    +0.070 C 
ATOM     10  C   UNL     1      -0.572  -1.088  25.090  0.00  0.00    +0.075 C 
ATOM     11  C   UNL     1      -0.195   1.914  22.946  0.00  0.00    +0.048 C 
ATOM     12  C   UNL     1      -0.411   1.400  25.276  0.00  0.00    +0.104 C 
ATOM     13  C   UNL     1       0.918  -1.394  25.146  0.00  0.00    +0.123 C 
ATOM     14  C   UNL     1       1.112  -0.239  22.943  0.00  0.00    +0.230 C 
ATOM     31  H   UNL     1       2.467  -1.569  23.718  0.00  0.00    +0.149 HD
ENDROOT
BRANCH   9   5
ATOM      5  N   UNL     1      -0.045   3.768  24.600  0.00  0.00    -0.308 NA
ATOM     32  H   UNL     1       0.612   3.615  25.367  0.00  0.00    +0.123 HD
BRANCH   5  17
ATOM     17  C   UNL     1      -1.029   4.762  25.011  0.00  0.00    +0.116 C 
BRANCH  17  19
ATOM     19  C   UNL     1      -2.395   4.156  25.193  0.00  0.00    -0.033 A 
ATOM     20  C   UNL     1      -2.869   3.875  26.474  0.00  0.00    +0.007 A 
ATOM     21  C   UNL     1      -3.188   3.876  24.080  0.00  0.00    +0.007 A 
ATOM     24  C   UNL     1      -4.134   3.313  26.643  0.00  0.00    +0.023 A 
ATOM     25  C   UNL     1      -4.454   3.315  24.248  0.00  0.00    +0.023 A 
ATOM     26  C   UNL     1      -4.927   3.034  25.529  0.00  0.00    +0.029 A 
BRANCH  26   7
ATOM      7  N   UNL     1      -6.206   2.466  25.699  0.00  0.00    -0.336 N 
ATOM     29  C   UNL     1      -7.065   2.234  24.554  0.00  0.00    +0.129 C 
ATOM     30  C   UNL     1      -6.678   2.099  27.019  0.00  0.00    +0.129 C 
ENDBRANCH  26   7
ENDBRANCH  17  19
ENDBRANCH   5  17
ENDBRANCH   9   5
BRANCH  10  15
ATOM     15  C   UNL     1      -1.217  -1.248  26.467  0.00  0.00    +0.029 C 
BRANCH  15  16
ATOM     16  C   UNL     1      -2.728  -1.048  26.394  0.00  0.00    +0.097 C 
BRANCH  16  18
ATOM      2  O   UNL     1      -3.243  -3.281  25.688  0.00  0.00    -0.276 OA
ATOM      6  N   UNL     1      -4.187  -1.559  24.453  0.00  0.00    -0.302 N 
ATOM     18  C   UNL     1      -3.402  -2.073  25.491  0.00  0.00    +0.216 C 
BRANCH   6  22
ATOM     22  C   UNL     1      -4.857  -2.475  23.538  0.00  0.00    +0.104 C 
ATOM     27  C   UNL     1      -3.953  -3.624  23.144  0.00  0.00    +0.024 C 
ENDBRANCH   6  22
BRANCH   6  23
ATOM     23  C   UNL     1      -4.404  -0.140  24.181  0.00  0.00    +0.104 C 
ATOM     28  C   UNL     1      -3.546   0.342  23.029  0.00  0.00    +0.024 C 
ENDBRANCH   6  23
ENDBRANCH  16  18
ENDBRANCH  15  16
ENDBRANCH  10  15
TORSDOF 9
ENDMDL
MODEL 8
REMARK VINA RESULT:       2.7      2.323      4.267
REMARK  Name = 45360760
REMARK  13 active torsions:
REMARK  status: ('A' for Active; 'I' for Inactive)
REMARK    1  A    between atoms: N_5  and  C_9
REMARK    2  A    between atoms: N_5  and  C_17
REMARK    3  A    between atoms: N_6  and  C_22
REMARK    4  A    between atoms: N_6  and  C_23
REMARK    5  A    between atoms: N_7  and  C_26
REMARK    6  A    between atoms: N_7  and  C_29
REMARK    7  A    between atoms: N_7  and  C_30
REMARK    8  A    between atoms: C_10  and  C_15
REMARK    9  A    between atoms: C_15  and  C_16
REMARK   10  A    between atoms: C_16  and  C_18
REMARK   11  A    between atoms: C_17  and  C_19
REMARK   12  A    between atoms: C_22  and  C_27
REMARK   13  A    between atoms: C_23  and  C_28
REMARK                            x       y       z     vdW  Elec       q    Type
REMARK                         _______ _______ _______ _____ _____    ______ ____
ROOT
ATOM      1  O   UNL     1      -3.465   3.623  21.876  0.00  0.00    -0.274 OA
ATOM      3  N   UNL     1      -4.608   1.875  24.870  0.00  0.00    -0.286 NA
ATOM      4  N   UNL     1      -3.202   1.446  22.480  0.00  0.00    -0.313 N 
ATOM      8  C   UNL     1      -4.625   2.946  23.866  0.00  0.00    +0.145 C 
ATOM      9  C   UNL     1      -3.927   3.715  26.060  0.00  0.00    +0.070 C 
ATOM     10  C   UNL     1      -4.552   0.529  24.311  0.00  0.00    +0.075 C 
ATOM     11  C   UNL     1      -4.203   4.205  24.639  0.00  0.00    +0.048 C 
ATOM     12  C   UNL     1      -3.608   2.238  25.871  0.00  0.00    +0.104 C 
ATOM     13  C   UNL     1      -3.327   0.361  23.425  0.00  0.00    +0.123 C 
ATOM     14  C   UNL     1      -3.701   2.711  22.674  0.00  0.00    +0.230 C 
ATOM     31  H   UNL     1      -2.605   1.297  21.671  0.00  0.00    +0.149 HD
ENDROOT
BRANCH   9   5
ATOM      5  N   UNL     1      -2.866   4.457  26.724  0.00  0.00    -0.308 NA
ATOM     32  H   UNL     1      -3.281   5.216  27.266  0.00  0.00    +0.123 HD
BRANCH   5  17
ATOM     17  C   UNL     1      -1.936   5.021  25.754  0.00  0.00    +0.116 C 
BRANCH  17  19
ATOM     19  C   UNL     1      -1.048   3.965  25.151  0.00  0.00    -0.033 A 
ATOM     20  C   UNL     1      -0.501   2.968  25.958  0.00  0.00    +0.007 A 
ATOM     21  C   UNL     1      -0.772   3.984  23.784  0.00  0.00    +0.007 A 
ATOM     24  C   UNL     1       0.322   1.991  25.399  0.00  0.00    +0.023 A 
ATOM     25  C   UNL     1       0.052   3.007  23.224  0.00  0.00    +0.023 A 
ATOM     26  C   UNL     1       0.598   2.010  24.032  0.00  0.00    +0.029 A 
BRANCH  26   7
ATOM      7  N   UNL     1       1.430   1.022  23.466  0.00  0.00    -0.336 N 
ATOM     29  C   UNL     1       0.888  -0.270  23.096  0.00  0.00    +0.129 C 
ATOM     30  C   UNL     1       2.837   1.288  23.240  0.00  0.00    +0.129 C 
ENDBRANCH  26   7
ENDBRANCH  17  19
ENDBRANCH   5  17
ENDBRANCH   9   5
BRANCH  10  15
ATOM     15  C   UNL     1      -4.609  -0.561  25.382  0.00  0.00    +0.029 C 
BRANCH  15  16
ATOM     16  C   UNL     1      -3.426  -0.455  26.340  0.00  0.00    +0.097 C 
BRANCH  16  18
ATOM      2  O   UNL     1      -1.084  -0.396  25.831  0.00  0.00    -0.276 OA
ATOM      6  N   UNL     1      -2.259  -2.255  25.095  0.00  0.00    -0.302 N 
ATOM     18  C   UNL     1      -2.145  -1.018  25.739  0.00  0.00    +0.216 C 
BRANCH   6  22
ATOM     22  C   UNL     1      -1.079  -2.857  24.485  0.00  0.00    +0.104 C 
ATOM     27  C   UNL     1       0.112  -2.812  25.418  0.00  0.00    +0.024 C 
ENDBRANCH   6  22
BRANCH   6  23
ATOM     23  C   UNL     1      -3.491  -3.029  24.962  0.00  0.00    +0.104 C 
ATOM     28  C   UNL     1      -3.922  -3.140  23.514  0.00  0.00    +0.024 C 
ENDBRANCH   6  23
ENDBRANCH  16  18
ENDBRANCH  15  16
ENDBRANCH  10  15
TORSDOF 9
ENDMDL
MODEL 9
REMARK VINA RESULT:       3.2      1.474      4.183
REMARK  Name = 45360760
REMARK  13 active torsions:
REMARK  status: ('A' for Active; 'I' for Inactive)
REMARK    1  A    between atoms: N_5  and  C_9
REMARK    2  A    between atoms: N_5  and  C_17
REMARK    3  A    between atoms: N_6  and  C_22
REMARK    4  A    between atoms: N_6  and  C_23
REMARK    5  A    between atoms: N_7  and  C_26
REMARK    6  A    between atoms: N_7  and  C_29
REMARK    7  A    between atoms: N_7  and  C_30
REMARK    8  A    between atoms: C_10  and  C_15
REMARK    9  A    between atoms: C_15  and  C_16
REMARK   10  A    between atoms: C_16  and  C_18
REMARK   11  A    between atoms: C_17  and  C_19
REMARK   12  A    between atoms: C_22  and  C_27
REMARK   13  A    between atoms: C_23  and  C_28
REMARK                            x       y       z     vdW  Elec       q    Type
REMARK                         _______ _______ _______ _____ _____    ______ ____
ROOT
ATOM      1  O   UNL     1      -3.209  -3.255  26.034  0.00  0.00    -0.274 OA
ATOM      3  N   UNL     1      -3.225  -0.327  23.856  0.00  0.00    -0.286 NA
ATOM      4  N   UNL     1      -4.150  -1.210  26.353  0.00  0.00    -0.313 N 
ATOM      8  C   UNL     1      -3.106  -1.758  24.160  0.00  0.00    +0.145 C 
ATOM      9  C   UNL     1      -1.008  -0.764  23.450  0.00  0.00    +0.070 C 
ATOM     10  C   UNL     1      -4.389   0.320  24.450  0.00  0.00    +0.075 C 
ATOM     11  C   UNL     1      -1.635  -2.094  23.868  0.00  0.00    +0.048 C 
ATOM     12  C   UNL     1      -1.915   0.275  24.095  0.00  0.00    +0.104 C 
ATOM     13  C   UNL     1      -4.382   0.161  25.963  0.00  0.00    +0.123 C 
ATOM     14  C   UNL     1      -3.469  -2.131  25.595  0.00  0.00    +0.230 C 
ATOM     31  H   UNL     1      -4.404  -1.478  27.300  0.00  0.00    +0.149 HD
ENDROOT
BRANCH   9   5
ATOM      5  N   UNL     1       0.386  -0.641  23.844  0.00  0.00    -0.308 NA
ATOM     32  H   UNL     1       0.431  -0.391  24.833  0.00  0.00    +0.123 HD
BRANCH   5  17
ATOM     17  C   UNL     1       1.062   0.387  23.064  0.00  0.00    +0.116 C 
BRANCH  17  19
ATOM     19  C   UNL     1       2.559   0.225  23.100  0.00  0.00    -0.033 A 
ATOM     20  C   UNL     1       3.120  -0.977  23.530  0.00  0.00    +0.007 A 
ATOM     21  C   UNL     1       3.384   1.277  22.703  0.00  0.00    +0.007 A 
ATOM     24  C   UNL     1       4.506  -1.127  23.564  0.00  0.00    +0.023 A 
ATOM     25  C   UNL     1       4.771   1.128  22.737  0.00  0.00    +0.023 A 
ATOM     26  C   UNL     1       5.331  -0.074  23.167  0.00  0.00    +0.029 A 
BRANCH  26   7
ATOM      7  N   UNL     1       6.733  -0.225  23.201  0.00  0.00    -0.336 N 
ATOM     29  C   UNL     1       7.371  -1.316  22.491  0.00  0.00    +0.129 C 
ATOM     30  C   UNL     1       7.555   0.711  23.940  0.00  0.00    +0.129 C 
ENDBRANCH  26   7
ENDBRANCH  17  19
ENDBRANCH   5  17
ENDBRANCH   9   5
BRANCH  10  15
ATOM     15  C   UNL     1      -4.519   1.791  24.053  0.00  0.00    +0.029 C 
BRANCH  15  16
ATOM     16  C   UNL     1      -4.185   2.710  25.224  0.00  0.00    +0.097 C 
BRANCH  16  18
ATOM      2  O   UNL     1      -3.709   4.710  23.992  0.00  0.00    -0.276 OA
ATOM      6  N   UNL     1      -2.033   3.933  25.394  0.00  0.00    -0.302 N 
ATOM     18  C   UNL     1      -3.302   3.878  24.806  0.00  0.00    +0.216 C 
BRANCH   6  22
ATOM     22  C   UNL     1      -1.124   5.015  25.038  0.00  0.00    +0.104 C 
ATOM     27  C   UNL     1      -0.350   4.697  23.776  0.00  0.00    +0.024 C 
ENDBRANCH   6  22
BRANCH   6  23
ATOM     23  C   UNL     1      -1.508   2.972  26.361  0.00  0.00    +0.104 C 
ATOM     28  C   UNL     1      -0.056   2.641  26.082  0.00  0.00    +0.024 C 
ENDBRANCH   6  23
ENDBRANCH  16  18
ENDBRANCH  15  16
ENDBRANCH  10  15
TORSDOF 9
ENDMDL
MODEL 10
REMARK VINA RESULT:       3.8      2.619      5.938
REMARK  Name = 45360760
REMARK  13 active torsions:
REMARK  status: ('A' for Active; 'I' for Inactive)
REMARK    1  A    between atoms: N_5  and  C_9
REMARK    2  A    between atoms: N_5  and  C_17
REMARK    3  A    between atoms: N_6  and  C_22
REMARK    4  A    between atoms: N_6  and  C_23
REMARK    5  A    between atoms: N_7  and  C_26
REMARK    6  A    between atoms: N_7  and  C_29
REMARK    7  A    between atoms: N_7  and  C_30
REMARK    8  A    between atoms: C_10  and  C_15
REMARK    9  A    between atoms: C_15  and  C_16
REMARK   10  A    between atoms: C_16  and  C_18
REMARK   11  A    between atoms: C_17  and  C_19
REMARK   12  A    between atoms: C_22  and  C_27
REMARK   13  A    between atoms: C_23  and  C_28
REMARK                            x       y       z     vdW  Elec       q    Type
REMARK                         _______ _______ _______ _____ _____    ______ ____
ROOT
ATOM      1  O   UNL     1       0.476  -2.200  26.503  0.00  0.00    -0.274 OA
ATOM      3  N   UNL     1      -1.643  -1.358  23.653  0.00  0.00    -0.286 NA
ATOM      4  N   UNL     1      -1.601  -1.276  26.457  0.00  0.00    -0.313 N 
ATOM      8  C   UNL     1      -0.558  -2.069  24.341  0.00  0.00    +0.145 C 
ATOM      9  C   UNL     1       0.245  -0.527  22.646  0.00  0.00    +0.070 C 
ATOM     10  C   UNL     1      -2.907  -1.340  24.382  0.00  0.00    +0.075 C 
ATOM     11  C   UNL     1       0.725  -1.559  23.667  0.00  0.00    +0.048 C 
ATOM     12  C   UNL     1      -1.100  -0.079  23.200  0.00  0.00    +0.104 C 
ATOM     13  C   UNL     1      -2.730  -0.712  25.756  0.00  0.00    +0.123 C 
ATOM     14  C   UNL     1      -0.504  -1.836  25.848  0.00  0.00    +0.230 C 
ATOM     31  H   UNL     1      -1.561  -1.145  27.464  0.00  0.00    +0.149 HD
ENDROOT
BRANCH   9   5
ATOM      5  N   UNL     1       1.186   0.565  22.453  0.00  0.00    -0.308 NA
ATOM     32  H   UNL     1       1.998   0.218  21.942  0.00  0.00    +0.123 HD
BRANCH   5  17
ATOM     17  C   UNL     1       1.627   1.108  23.732  0.00  0.00    +0.116 C 
BRANCH  17  19
ATOM     19  C   UNL     1       0.617   2.062  24.314  0.00  0.00    -0.033 A 
ATOM     20  C   UNL     1       0.046   1.800  25.559  0.00  0.00    +0.007 A 
ATOM     21  C   UNL     1       0.252   3.208  23.606  0.00  0.00    +0.007 A 
ATOM     24  C   UNL     1      -0.889   2.683  26.097  0.00  0.00    +0.023 A 
ATOM     25  C   UNL     1      -0.684   4.091  24.145  0.00  0.00    +0.023 A 
ATOM     26  C   UNL     1      -1.254   3.829  25.390  0.00  0.00    +0.029 A 
BRANCH  26   7
ATOM      7  N   UNL     1      -2.200   4.722  25.934  0.00  0.00    -0.336 N 
ATOM     29  C   UNL     1      -3.036   4.317  27.047  0.00  0.00    +0.129 C 
ATOM     30  C   UNL     1      -2.344   6.059  25.394  0.00  0.00    +0.129 C 
ENDBRANCH  26   7
ENDBRANCH  17  19
ENDBRANCH   5  17
ENDBRANCH   9   5
BRANCH  10  15
ATOM     15  C   UNL     1      -4.030  -0.654  23.604  0.00  0.00    +0.029 C 
BRANCH  15  16
ATOM     16  C   UNL     1      -4.860   0.246  24.514  0.00  0.00    +0.097 C 
BRANCH  16  18
ATOM      2  O   UNL     1      -3.521   2.058  23.694  0.00  0.00    -0.276 OA
ATOM      6  N   UNL     1      -5.409   2.633  24.912  0.00  0.00    -0.302 N 
ATOM     18  C   UNL     1      -4.524   1.720  24.328  0.00  0.00    +0.216 C 
BRANCH   6  22
ATOM     22  C   UNL     1      -5.150   4.062  24.788  0.00  0.00    +0.104 C 
ATOM     27  C   UNL     1      -6.192   4.880  25.523  0.00  0.00    +0.024 C 
ENDBRANCH   6  22
BRANCH   6  23
ATOM     23  C   UNL     1      -6.607   2.281  25.670  0.00  0.00    +0.104 C 
ATOM     28  C   UNL     1      -6.256   1.680  27.016  0.00  0.00    +0.024 C 
ENDBRANCH   6  23
ENDBRANCH  16  18
ENDBRANCH  15  16
ENDBRANCH  10  15
TORSDOF 9
ENDMDL
