MODEL 1
REMARK VINA RESULT:      -5.0      0.000      0.000
REMARK  Name = 45784316
REMARK  4 active torsions:
REMARK  status: ('A' for Active; 'I' for Inactive)
REMARK    1  A    between atoms: N_1  and  C_6
REMARK    2  A    between atoms: C_5  and  C_6
REMARK    3  A    between atoms: C_7  and  C_16
REMARK    4  A    between atoms: C_21  and  C_23
REMARK                            x       y       z     vdW  Elec       q    Type
REMARK                         _______ _______ _______ _____ _____    ______ ____
ROOT
ATOM      1  N   UNL     1      17.402  -5.739  25.066  0.00  0.00    -0.301 NA
ATOM      7  C   UNL     1      17.213  -6.114  27.373  0.00  0.00    +0.070 C 
ATOM      8  C   UNL     1      17.000  -5.045  26.292  0.00  0.00    +0.095 C 
ATOM      9  C   UNL     1      16.812  -7.073  25.178  0.00  0.00    +0.085 C 
ATOM     12  C   UNL     1      17.105  -7.453  26.623  0.00  0.00    +0.028 C 
ENDROOT
BRANCH   7  16
ATOM      2  N   UNL     1      15.087  -6.650  28.595  0.00  0.00    -0.342 N 
ATOM      3  N   UNL     1      16.441  -5.203  29.601  0.00  0.00    -0.232 NA
ATOM     16  C   UNL     1      16.268  -5.963  28.543  0.00  0.00    +0.113 A 
ATOM     17  C   UNL     1      14.456  -6.309  29.764  0.00  0.00    +0.067 A 
ATOM     18  C   UNL     1      15.320  -5.405  30.374  0.00  0.00    +0.089 A 
ATOM     19  C   UNL     1      13.239  -6.704  30.323  0.00  0.00    +0.046 A 
ATOM     20  C   UNL     1      14.967  -4.850  31.614  0.00  0.00    +0.031 A 
ATOM     21  C   UNL     1      12.903  -6.141  31.559  0.00  0.00    +0.054 A 
ATOM     22  C   UNL     1      13.751  -5.230  32.195  0.00  0.00    +0.021 A 
ATOM     24  H   UNL     1      14.738  -7.295  27.898  0.00  0.00    +0.167 HD
BRANCH  21  23
ATOM      4  N   UNL     1      10.667  -6.804  32.687  0.00  0.00    -0.191 NA
ATOM     23  C   UNL     1      11.669  -6.507  32.181  0.00  0.00    +0.099 C 
ENDBRANCH  21  23
ENDBRANCH   7  16
BRANCH   1   6
ATOM      6  C   UNL     1      16.967  -5.041  23.866  0.00  0.00    +0.088 C 
BRANCH   6   5
ATOM      5  C   UNL     1      17.316  -3.555  23.943  0.00  0.00    +0.003 C 
ATOM     10  C   UNL     1      16.499  -2.862  25.042  0.00  0.00    +0.005 C 
ATOM     11  C   UNL     1      17.093  -2.875  22.585  0.00  0.00    +0.005 C 
ATOM     13  C   UNL     1      16.792  -1.365  25.102  0.00  0.00    +0.000 C 
ATOM     14  C   UNL     1      17.385  -1.378  22.650  0.00  0.00    +0.000 C 
ATOM     15  C   UNL     1      16.577  -0.694  23.749  0.00  0.00    +0.000 C 
ENDBRANCH   6   5
ENDBRANCH   1   6
TORSDOF 4
ENDMDL
MODEL 2
REMARK VINA RESULT:      -4.4      3.334      5.922
REMARK  Name = 45784316
REMARK  4 active torsions:
REMARK  status: ('A' for Active; 'I' for Inactive)
REMARK    1  A    between atoms: N_1  and  C_6
REMARK    2  A    between atoms: C_5  and  C_6
REMARK    3  A    between atoms: C_7  and  C_16
REMARK    4  A    between atoms: C_21  and  C_23
REMARK                            x       y       z     vdW  Elec       q    Type
REMARK                         _______ _______ _______ _____ _____    ______ ____
ROOT
ATOM      1  N   UNL     1      15.746  -5.613  30.158  0.00  0.00    -0.301 NA
ATOM      7  C   UNL     1      13.786  -6.076  31.360  0.00  0.00    +0.070 C 
ATOM      8  C   UNL     1      14.380  -6.100  29.946  0.00  0.00    +0.095 C 
ATOM      9  C   UNL     1      16.205  -6.295  31.367  0.00  0.00    +0.085 C 
ATOM     12  C   UNL     1      15.003  -6.188  32.296  0.00  0.00    +0.028 C 
ENDROOT
BRANCH   7  16
ATOM      2  N   UNL     1      11.433  -6.791  31.862  0.00  0.00    -0.342 N 
ATOM      3  N   UNL     1      12.888  -8.434  31.508  0.00  0.00    -0.232 NA
ATOM     16  C   UNL     1      12.725  -7.132  31.571  0.00  0.00    +0.113 A 
ATOM     17  C   UNL     1      10.715  -7.952  31.995  0.00  0.00    +0.067 A 
ATOM     18  C   UNL     1      11.645  -8.963  31.770  0.00  0.00    +0.089 A 
ATOM     19  C   UNL     1       9.371  -8.196  32.284  0.00  0.00    +0.046 A 
ATOM     20  C   UNL     1      11.228 -10.303  31.833  0.00  0.00    +0.031 A 
ATOM     21  C   UNL     1       8.974  -9.536  32.343  0.00  0.00    +0.054 A 
ATOM     22  C   UNL     1       9.885 -10.572  32.122  0.00  0.00    +0.021 A 
ATOM     24  H   UNL     1      11.069  -5.853  31.961  0.00  0.00    +0.167 HD
BRANCH  21  23
ATOM      4  N   UNL     1       6.502 -10.103  32.873  0.00  0.00    -0.191 NA
ATOM     23  C   UNL     1       7.610  -9.849  32.636  0.00  0.00    +0.099 C 
ENDBRANCH  21  23
ENDBRANCH   7  16
BRANCH   1   6
ATOM      6  C   UNL     1      16.610  -5.868  29.016  0.00  0.00    +0.088 C 
BRANCH   6   5
ATOM      5  C   UNL     1      16.073  -7.025  28.174  0.00  0.00    +0.003 C 
ATOM     10  C   UNL     1      16.855  -8.313  28.460  0.00  0.00    +0.005 C 
ATOM     11  C   UNL     1      16.121  -6.676  26.680  0.00  0.00    +0.005 C 
ATOM     13  C   UNL     1      16.371  -9.471  27.590  0.00  0.00    +0.000 C 
ATOM     14  C   UNL     1      15.638  -7.836  25.814  0.00  0.00    +0.000 C 
ATOM     15  C   UNL     1      16.413  -9.118  26.107  0.00  0.00    +0.000 C 
ENDBRANCH   6   5
ENDBRANCH   1   6
TORSDOF 4
ENDMDL
MODEL 3
REMARK VINA RESULT:      -2.4     16.894     18.451
REMARK  Name = 45784316
REMARK  4 active torsions:
REMARK  status: ('A' for Active; 'I' for Inactive)
REMARK    1  A    between atoms: N_1  and  C_6
REMARK    2  A    between atoms: C_5  and  C_6
REMARK    3  A    between atoms: C_7  and  C_16
REMARK    4  A    between atoms: C_21  and  C_23
REMARK                            x       y       z     vdW  Elec       q    Type
REMARK                         _______ _______ _______ _____ _____    ______ ____
ROOT
ATOM      1  N   UNL     1       1.067  -0.502  23.351  0.00  0.00    -0.301 NA
ATOM      7  C   UNL     1      -0.761  -0.240  24.797  0.00  0.00    +0.070 C 
ATOM      8  C   UNL     1       0.280   0.553  23.995  0.00  0.00    +0.095 C 
ATOM      9  C   UNL     1       0.080  -1.474  22.882  0.00  0.00    +0.085 C 
ATOM     12  C   UNL     1      -0.874  -1.588  24.064  0.00  0.00    +0.028 C 
ENDROOT
BRANCH   7  16
ATOM      2  N   UNL     1      -2.104   1.868  25.024  0.00  0.00    -0.342 N 
ATOM      3  N   UNL     1      -3.265  -0.026  25.067  0.00  0.00    -0.232 NA
ATOM     16  C   UNL     1      -2.067   0.503  24.964  0.00  0.00    +0.113 A 
ATOM     17  C   UNL     1      -3.414   2.245  25.176  0.00  0.00    +0.067 A 
ATOM     18  C   UNL     1      -4.119   1.045  25.200  0.00  0.00    +0.089 A 
ATOM     19  C   UNL     1      -4.024   3.495  25.291  0.00  0.00    +0.046 A 
ATOM     20  C   UNL     1      -5.515   1.074  25.347  0.00  0.00    +0.031 A 
ATOM     21  C   UNL     1      -5.415   3.505  25.436  0.00  0.00    +0.054 A 
ATOM     22  C   UNL     1      -6.149   2.317  25.464  0.00  0.00    +0.021 A 
ATOM     24  H   UNL     1      -1.310   2.493  24.967  0.00  0.00    +0.167 HD
BRANCH  21  23
ATOM      4  N   UNL     1      -6.650   5.772  25.661  0.00  0.00    -0.191 NA
ATOM     23  C   UNL     1      -6.096   4.756  25.559  0.00  0.00    +0.099 C 
ENDBRANCH  21  23
ENDBRANCH   7  16
BRANCH   1   6
ATOM      6  C   UNL     1       1.899   0.007  22.272  0.00  0.00    +0.088 C 
BRANCH   6   5
ATOM      5  C   UNL     1       3.379  -0.227  22.569  0.00  0.00    +0.003 C 
ATOM     10  C   UNL     1       3.554  -1.331  23.621  0.00  0.00    +0.005 C 
ATOM     11  C   UNL     1       4.054   1.074  23.024  0.00  0.00    +0.005 C 
ATOM     13  C   UNL     1       5.025  -1.546  23.972  0.00  0.00    +0.000 C 
ATOM     14  C   UNL     1       5.523   0.855  23.377  0.00  0.00    +0.000 C 
ATOM     15  C   UNL     1       5.694  -0.249  24.416  0.00  0.00    +0.000 C 
ENDBRANCH   6   5
ENDBRANCH   1   6
TORSDOF 4
ENDMDL
MODEL 4
REMARK VINA RESULT:      -2.0     16.763     19.212
REMARK  Name = 45784316
REMARK  4 active torsions:
REMARK  status: ('A' for Active; 'I' for Inactive)
REMARK    1  A    between atoms: N_1  and  C_6
REMARK    2  A    between atoms: C_5  and  C_6
REMARK    3  A    between atoms: C_7  and  C_16
REMARK    4  A    between atoms: C_21  and  C_23
REMARK                            x       y       z     vdW  Elec       q    Type
REMARK                         _______ _______ _______ _____ _____    ______ ____
ROOT
ATOM      1  N   UNL     1      -4.096   2.087  25.160  0.00  0.00    -0.301 NA
ATOM      7  C   UNL     1      -1.805   2.380  24.755  0.00  0.00    +0.070 C 
ATOM      8  C   UNL     1      -2.823   1.380  25.320  0.00  0.00    +0.095 C 
ATOM      9  C   UNL     1      -4.029   2.688  23.828  0.00  0.00    +0.085 C 
ATOM     12  C   UNL     1      -2.617   3.254  23.782  0.00  0.00    +0.028 C 
ENDROOT
BRANCH   7  16
ATOM      2  N   UNL     1       0.672   2.035  24.544  0.00  0.00    -0.342 N 
ATOM      3  N   UNL     1      -0.595   0.782  23.216  0.00  0.00    -0.232 NA
ATOM     16  C   UNL     1      -0.595   1.709  24.147  0.00  0.00    +0.113 A 
ATOM     17  C   UNL     1       1.548   1.266  23.820  0.00  0.00    +0.067 A 
ATOM     18  C   UNL     1       0.732   0.493  22.998  0.00  0.00    +0.089 A 
ATOM     19  C   UNL     1       2.941   1.184  23.815  0.00  0.00    +0.046 A 
ATOM     20  C   UNL     1       1.325  -0.421  22.112  0.00  0.00    +0.031 A 
ATOM     21  C   UNL     1       3.513   0.268  22.926  0.00  0.00    +0.054 A 
ATOM     22  C   UNL     1       2.721  -0.521  22.089  0.00  0.00    +0.021 A 
ATOM     24  H   UNL     1       0.923   2.718  25.246  0.00  0.00    +0.167 HD
BRANCH  21  23
ATOM      4  N   UNL     1       6.093   0.035  22.835  0.00  0.00    -0.191 NA
ATOM     23  C   UNL     1       4.937   0.140  22.875  0.00  0.00    +0.099 C 
ENDBRANCH  21  23
ENDBRANCH   7  16
BRANCH   1   6
ATOM      6  C   UNL     1      -5.243   1.205  25.313  0.00  0.00    +0.088 C 
BRANCH   6   5
ATOM      5  C   UNL     1      -4.828  -0.259  25.171  0.00  0.00    +0.003 C 
ATOM     10  C   UNL     1      -3.669  -0.589  26.121  0.00  0.00    +0.005 C 
ATOM     11  C   UNL     1      -4.451  -0.577  23.717  0.00  0.00    +0.005 C 
ATOM     13  C   UNL     1      -3.202  -2.033  25.959  0.00  0.00    +0.000 C 
ATOM     14  C   UNL     1      -3.981  -2.021  23.559  0.00  0.00    +0.000 C 
ATOM     15  C   UNL     1      -2.835  -2.348  24.512  0.00  0.00    +0.000 C 
ENDBRANCH   6   5
ENDBRANCH   1   6
TORSDOF 4
ENDMDL
MODEL 5
REMARK VINA RESULT:      -1.7      3.887      6.691
REMARK  Name = 45784316
REMARK  4 active torsions:
REMARK  status: ('A' for Active; 'I' for Inactive)
REMARK    1  A    between atoms: N_1  and  C_6
REMARK    2  A    between atoms: C_5  and  C_6
REMARK    3  A    between atoms: C_7  and  C_16
REMARK    4  A    between atoms: C_21  and  C_23
REMARK                            x       y       z     vdW  Elec       q    Type
REMARK                         _______ _______ _______ _____ _____    ______ ____
ROOT
ATOM      1  N   UNL     1      14.546  -6.981  30.987  0.00  0.00    -0.301 NA
ATOM      7  C   UNL     1      12.938  -7.944  32.395  0.00  0.00    +0.070 C 
ATOM      8  C   UNL     1      13.168  -6.768  31.436  0.00  0.00    +0.095 C 
ATOM      9  C   UNL     1      14.641  -8.418  30.731  0.00  0.00    +0.085 C 
ATOM     12  C   UNL     1      13.930  -9.025  31.932  0.00  0.00    +0.028 C 
ENDROOT
BRANCH   7  16
ATOM      2  N   UNL     1      10.477  -7.483  32.574  0.00  0.00    -0.342 N 
ATOM      3  N   UNL     1      11.047  -9.622  32.378  0.00  0.00    -0.232 NA
ATOM     16  C   UNL     1      11.493  -8.388  32.446  0.00  0.00    +0.113 A 
ATOM     17  C   UNL     1       9.296  -8.180  32.590  0.00  0.00    +0.067 A 
ATOM     18  C   UNL     1       9.678  -9.513  32.466  0.00  0.00    +0.089 A 
ATOM     19  C   UNL     1       7.966  -7.771  32.698  0.00  0.00    +0.046 A 
ATOM     20  C   UNL     1       8.690 -10.510  32.448  0.00  0.00    +0.031 A 
ATOM     21  C   UNL     1       6.995  -8.777  32.678  0.00  0.00    +0.054 A 
ATOM     22  C   UNL     1       7.348 -10.123  32.556  0.00  0.00    +0.021 A 
ATOM     24  H   UNL     1      10.574  -6.479  32.644  0.00  0.00    +0.167 HD
BRANCH  21  23
ATOM      4  N   UNL     1       4.494  -8.128  32.873  0.00  0.00    -0.191 NA
ATOM     23  C   UNL     1       5.614  -8.419  32.786  0.00  0.00    +0.099 C 
ENDBRANCH  21  23
ENDBRANCH   7  16
BRANCH   1   6
ATOM      6  C   UNL     1      14.876  -6.186  29.814  0.00  0.00    +0.088 C 
BRANCH   6   5
ATOM      5  C   UNL     1      15.732  -4.980  30.196  0.00  0.00    +0.003 C 
ATOM     10  C   UNL     1      14.855  -3.836  30.722  0.00  0.00    +0.005 C 
ATOM     11  C   UNL     1      16.578  -4.516  29.003  0.00  0.00    +0.005 C 
ATOM     13  C   UNL     1      15.684  -2.600  31.060  0.00  0.00    +0.000 C 
ATOM     14  C   UNL     1      17.404  -3.278  29.344  0.00  0.00    +0.000 C 
ATOM     15  C   UNL     1      16.530  -2.146  29.874  0.00  0.00    +0.000 C 
ENDBRANCH   6   5
ENDBRANCH   1   6
TORSDOF 4
ENDMDL
MODEL 6
REMARK VINA RESULT:      -1.6     16.437     18.659
REMARK  Name = 45784316
REMARK  4 active torsions:
REMARK  status: ('A' for Active; 'I' for Inactive)
REMARK    1  A    between atoms: N_1  and  C_6
REMARK    2  A    between atoms: C_5  and  C_6
REMARK    3  A    between atoms: C_7  and  C_16
REMARK    4  A    between atoms: C_21  and  C_23
REMARK                            x       y       z     vdW  Elec       q    Type
REMARK                         _______ _______ _______ _____ _____    ______ ____
ROOT
ATOM      1  N   UNL     1      -3.526  -0.938  24.543  0.00  0.00    -0.301 NA
ATOM      7  C   UNL     1      -1.262  -1.488  24.274  0.00  0.00    +0.070 C 
ATOM      8  C   UNL     1      -2.426  -0.754  23.593  0.00  0.00    +0.095 C 
ATOM      9  C   UNL     1      -2.930  -0.710  25.859  0.00  0.00    +0.085 C 
ATOM     12  C   UNL     1      -1.613  -1.469  25.772  0.00  0.00    +0.028 C 
ENDROOT
BRANCH   7  16
ATOM      2  N   UNL     1       1.239  -1.609  24.112  0.00  0.00    -0.342 N 
ATOM      3  N   UNL     1       0.320   0.300  23.443  0.00  0.00    -0.232 NA
ATOM     16  C   UNL     1       0.086  -0.898  23.931  0.00  0.00    +0.113 A 
ATOM     17  C   UNL     1       2.287  -0.818  23.715  0.00  0.00    +0.067 A 
ATOM     18  C   UNL     1       1.687   0.369  23.302  0.00  0.00    +0.089 A 
ATOM     19  C   UNL     1       3.665  -1.032  23.682  0.00  0.00    +0.046 A 
ATOM     20  C   UNL     1       2.494   1.414  22.826  0.00  0.00    +0.031 A 
ATOM     21  C   UNL     1       4.454   0.021  23.205  0.00  0.00    +0.054 A 
ATOM     22  C   UNL     1       3.881   1.223  22.784  0.00  0.00    +0.021 A 
ATOM     24  H   UNL     1       1.312  -2.551  24.473  0.00  0.00    +0.167 HD
BRANCH  21  23
ATOM      4  N   UNL     1       7.027  -0.268  23.104  0.00  0.00    -0.191 NA
ATOM     23  C   UNL     1       5.874  -0.139  23.149  0.00  0.00    +0.099 C 
ENDBRANCH  21  23
ENDBRANCH   7  16
BRANCH   1   6
ATOM      6  C   UNL     1      -4.643  -0.045  24.278  0.00  0.00    +0.088 C 
BRANCH   6   5
ATOM      5  C   UNL     1      -4.423   1.314  24.941  0.00  0.00    +0.003 C 
ATOM     10  C   UNL     1      -5.753   1.898  25.437  0.00  0.00    +0.005 C 
ATOM     11  C   UNL     1      -3.727   2.282  23.975  0.00  0.00    +0.005 C 
ATOM     13  C   UNL     1      -5.564   3.281  26.056  0.00  0.00    +0.000 C 
ATOM     14  C   UNL     1      -3.543   3.664  24.596  0.00  0.00    +0.000 C 
ATOM     15  C   UNL     1      -4.866   4.238  25.095  0.00  0.00    +0.000 C 
ENDBRANCH   6   5
ENDBRANCH   1   6
TORSDOF 4
ENDMDL
