MODEL 1
REMARK VINA RESULT:      -3.3      0.000      0.000
REMARK  Name = 38027224
REMARK  15 active torsions:
REMARK  status: ('A' for Active; 'I' for Inactive)
REMARK    1  A    between atoms: N_3  and  C_12
REMARK    2  A    between atoms: N_4  and  C_20
REMARK    3  A    between atoms: N_4  and  C_24
REMARK    4  A    between atoms: C_5  and  C_9
REMARK    5  A    between atoms: C_6  and  C_12
REMARK    6  A    between atoms: C_8  and  C_13
REMARK    7  A    between atoms: C_9  and  C_14
REMARK    8  A    between atoms: C_9  and  C_15
REMARK    9  A    between atoms: C_10  and  C_16
REMARK   10  A    between atoms: C_13  and  C_17
REMARK   11  A    between atoms: C_18  and  C_19
REMARK   12  A    between atoms: C_19  and  C_21
REMARK   13  A    between atoms: C_19  and  C_22
REMARK   14  A    between atoms: C_19  and  C_23
REMARK   15  A    between atoms: C_20  and  C_25
REMARK                            x       y       z     vdW  Elec       q    Type
REMARK                         _______ _______ _______ _____ _____    ______ ____
ROOT
ATOM      5  C   UNL     1      -0.673   0.764  24.303  0.00  0.00    +0.000 C 
ATOM      6  C   UNL     1       0.235  -0.482  24.148  0.00  0.00    +0.032 C 
ATOM      7  C   UNL     1      -1.780   0.496  25.334  0.00  0.00    +0.012 C 
ATOM      8  C   UNL     1      -2.662  -0.705  24.943  0.00  0.00    +0.023 C 
ATOM     10  C   UNL     1      -1.831  -1.899  24.517  0.00  0.00    -0.073 C 
ATOM     11  C   UNL     1      -0.535  -1.782  24.178  0.00  0.00    -0.022 C 
ATOM     16  C   UNL     1      -2.514  -3.238  24.534  0.00  0.00    +0.039 C 
ENDROOT
BRANCH   5   9
ATOM      9  C   UNL     1       0.128   2.004  24.711  0.00  0.00    -0.013 C 
ATOM     14  C   UNL     1      -0.247   3.193  23.832  0.00  0.00    +0.007 C 
ATOM     15  C   UNL     1      -0.102   2.325  26.184  0.00  0.00    +0.007 C 
ENDBRANCH   5   9
BRANCH   6  12
ATOM     12  C   UNL     1       1.061  -0.408  22.858  0.00  0.00    +0.112 C 
BRANCH  12   3
ATOM      2  O   UNL     1       3.180   1.495  22.958  0.00  0.00    -0.275 OA
ATOM      3  N   UNL     1       2.438  -0.688  23.121  0.00  0.00    -0.314 N 
ATOM     18  C   UNL     1       3.420   0.302  23.153  0.00  0.00    +0.218 C 
ATOM     31  H   UNL     1       2.694  -1.644  23.347  0.00  0.00    +0.149 HD
BRANCH  18  19
ATOM     19  C   UNL     1       4.843  -0.210  23.460  0.00  0.00    +0.039 C 
ATOM     21  C   UNL     1       5.492   0.657  24.549  0.00  0.00    +0.020 C 
ATOM     22  C   UNL     1       4.765  -1.660  23.969  0.00  0.00    +0.020 C 
ATOM     23  C   UNL     1       5.698  -0.184  22.184  0.00  0.00    +0.020 C 
ENDBRANCH  18  19
ENDBRANCH  12   3
ENDBRANCH   6  12
BRANCH   8  13
ATOM     13  C   UNL     1      -3.669  -0.319  23.855  0.00  0.00    +0.103 C 
BRANCH  13  17
ATOM      1  O   UNL     1      -3.308   1.905  23.036  0.00  0.00    -0.276 OA
ATOM      4  N   UNL     1      -4.899   1.648  24.703  0.00  0.00    -0.300 N 
ATOM     17  C   UNL     1      -3.928   1.175  23.814  0.00  0.00    +0.216 C 
ATOM     24  C   UNL     1      -5.620   0.767  25.614  0.00  0.00    +0.132 C 
BRANCH   4  20
ATOM     20  C   UNL     1      -5.264   3.060  24.787  0.00  0.00    +0.142 C 
BRANCH  20  25
ATOM     25  C   UNL     1      -4.061   3.941  24.964  0.00  0.00    -0.030 A 
ATOM     26  C   UNL     1      -3.696   4.834  23.957  0.00  0.00    +0.005 A 
ATOM     27  C   UNL     1      -3.310   3.869  26.137  0.00  0.00    +0.005 A 
ATOM     28  C   UNL     1      -2.579   5.654  24.122  0.00  0.00    +0.000 A 
ATOM     29  C   UNL     1      -2.193   4.688  26.303  0.00  0.00    +0.000 A 
ATOM     30  C   UNL     1      -1.828   5.581  25.295  0.00  0.00    +0.000 A 
ENDBRANCH  20  25
ENDBRANCH   4  20
ENDBRANCH  13  17
ENDBRANCH   8  13
TORSDOF 8
ENDMDL
MODEL 2
REMARK VINA RESULT:      -2.2     17.330     19.574
REMARK  Name = 38027224
REMARK  15 active torsions:
REMARK  status: ('A' for Active; 'I' for Inactive)
REMARK    1  A    between atoms: N_3  and  C_12
REMARK    2  A    between atoms: N_4  and  C_20
REMARK    3  A    between atoms: N_4  and  C_24
REMARK    4  A    between atoms: C_5  and  C_9
REMARK    5  A    between atoms: C_6  and  C_12
REMARK    6  A    between atoms: C_8  and  C_13
REMARK    7  A    between atoms: C_9  and  C_14
REMARK    8  A    between atoms: C_9  and  C_15
REMARK    9  A    between atoms: C_10  and  C_16
REMARK   10  A    between atoms: C_13  and  C_17
REMARK   11  A    between atoms: C_18  and  C_19
REMARK   12  A    between atoms: C_19  and  C_21
REMARK   13  A    between atoms: C_19  and  C_22
REMARK   14  A    between atoms: C_19  and  C_23
REMARK   15  A    between atoms: C_20  and  C_25
REMARK                            x       y       z     vdW  Elec       q    Type
REMARK                         _______ _______ _______ _____ _____    ______ ____
ROOT
ATOM      5  C   UNL     1      15.003  -9.823  26.948  0.00  0.00    +0.000 C 
ATOM      6  C   UNL     1      14.850 -10.452  28.356  0.00  0.00    +0.032 C 
ATOM      7  C   UNL     1      16.463  -9.413  26.700  0.00  0.00    +0.012 C 
ATOM      8  C   UNL     1      16.969  -8.401  27.745  0.00  0.00    +0.023 C 
ATOM     10  C   UNL     1      16.616  -8.824  29.157  0.00  0.00    -0.073 C 
ATOM     11  C   UNL     1      15.676  -9.752  29.409  0.00  0.00    -0.022 C 
ATOM     16  C   UNL     1      17.402  -8.190  30.270  0.00  0.00    +0.039 C 
ENDROOT
BRANCH   5   9
ATOM      9  C   UNL     1      14.537 -10.778  25.845  0.00  0.00    -0.013 C 
ATOM     14  C   UNL     1      13.088 -10.488  25.468  0.00  0.00    +0.007 C 
ATOM     15  C   UNL     1      15.447 -10.666  24.626  0.00  0.00    +0.007 C 
ENDBRANCH   5   9
BRANCH   6  12
ATOM     12  C   UNL     1      13.380 -10.479  28.793  0.00  0.00    +0.112 C 
BRANCH  12   3
ATOM      2  O   UNL     1      11.634 -10.674  31.037  0.00  0.00    -0.275 OA
ATOM      3  N   UNL     1      13.119  -9.453  29.754  0.00  0.00    -0.314 N 
ATOM     18  C   UNL     1      12.248  -9.626  30.830  0.00  0.00    +0.218 C 
ATOM     31  H   UNL     1      13.636  -8.583  29.673  0.00  0.00    +0.149 HD
BRANCH  18  19
ATOM     19  C   UNL     1      12.110  -8.396  31.753  0.00  0.00    +0.039 C 
ATOM     21  C   UNL     1      13.309  -8.319  32.710  0.00  0.00    +0.020 C 
ATOM     22  C   UNL     1      12.082  -7.116  30.898  0.00  0.00    +0.020 C 
ATOM     23  C   UNL     1      10.800  -8.481  32.551  0.00  0.00    +0.020 C 
ENDBRANCH  18  19
ENDBRANCH  12   3
ENDBRANCH   6  12
BRANCH   8  13
ATOM     13  C   UNL     1      16.447  -6.992  27.447  0.00  0.00    +0.103 C 
BRANCH  13  17
ATOM      1  O   UNL     1      16.494  -7.387  25.083  0.00  0.00    -0.276 OA
ATOM      4  N   UNL     1      17.101  -5.268  25.803  0.00  0.00    -0.300 N 
ATOM     17  C   UNL     1      16.677  -6.586  26.003  0.00  0.00    +0.216 C 
ATOM     24  C   UNL     1      17.312  -4.338  26.906  0.00  0.00    +0.132 C 
BRANCH   4  20
ATOM     20  C   UNL     1      17.367  -4.724  24.473  0.00  0.00    +0.142 C 
BRANCH  20  25
ATOM     25  C   UNL     1      17.212  -3.231  24.435  0.00  0.00    -0.030 A 
ATOM     26  C   UNL     1      17.176  -2.565  23.211  0.00  0.00    +0.005 A 
ATOM     27  C   UNL     1      17.103  -2.510  25.624  0.00  0.00    +0.005 A 
ATOM     28  C   UNL     1      17.031  -1.177  23.175  0.00  0.00    +0.000 A 
ATOM     29  C   UNL     1      16.958  -1.124  25.589  0.00  0.00    +0.000 A 
ATOM     30  C   UNL     1      16.922  -0.458  24.364  0.00  0.00    +0.000 A 
ENDBRANCH  20  25
ENDBRANCH   4  20
ENDBRANCH  13  17
ENDBRANCH   8  13
TORSDOF 8
ENDMDL
MODEL 3
REMARK VINA RESULT:      -1.7      1.225      7.619
REMARK  Name = 38027224
REMARK  15 active torsions:
REMARK  status: ('A' for Active; 'I' for Inactive)
REMARK    1  A    between atoms: N_3  and  C_12
REMARK    2  A    between atoms: N_4  and  C_20
REMARK    3  A    between atoms: N_4  and  C_24
REMARK    4  A    between atoms: C_5  and  C_9
REMARK    5  A    between atoms: C_6  and  C_12
REMARK    6  A    between atoms: C_8  and  C_13
REMARK    7  A    between atoms: C_9  and  C_14
REMARK    8  A    between atoms: C_9  and  C_15
REMARK    9  A    between atoms: C_10  and  C_16
REMARK   10  A    between atoms: C_13  and  C_17
REMARK   11  A    between atoms: C_18  and  C_19
REMARK   12  A    between atoms: C_19  and  C_21
REMARK   13  A    between atoms: C_19  and  C_22
REMARK   14  A    between atoms: C_19  and  C_23
REMARK   15  A    between atoms: C_20  and  C_25
REMARK                            x       y       z     vdW  Elec       q    Type
REMARK                         _______ _______ _______ _____ _____    ______ ____
ROOT
ATOM      5  C   UNL     1      -2.771  -1.359  24.508  0.00  0.00    +0.000 C 
ATOM      6  C   UNL     1      -3.333  -0.539  25.696  0.00  0.00    +0.032 C 
ATOM      7  C   UNL     1      -1.260  -1.578  24.676  0.00  0.00    +0.012 C 
ATOM      8  C   UNL     1      -0.484  -0.250  24.763  0.00  0.00    +0.023 C 
ATOM     10  C   UNL     1      -1.138   0.721  25.725  0.00  0.00    -0.073 C 
ATOM     11  C   UNL     1      -2.407   0.569  26.141  0.00  0.00    -0.022 C 
ATOM     16  C   UNL     1      -0.282   1.847  26.235  0.00  0.00    +0.039 C 
ENDROOT
BRANCH   5   9
ATOM      9  C   UNL     1      -3.479  -2.709  24.362  0.00  0.00    -0.013 C 
ATOM     14  C   UNL     1      -4.706  -2.573  23.466  0.00  0.00    +0.007 C 
ATOM     15  C   UNL     1      -2.518  -3.757  23.810  0.00  0.00    +0.007 C 
ENDBRANCH   5   9
BRANCH   6  12
ATOM     12  C   UNL     1      -4.709   0.050  25.359  0.00  0.00    +0.112 C 
BRANCH  12   3
ATOM      2  O   UNL     1      -3.665   1.938  23.497  0.00  0.00    -0.275 OA
ATOM      3  N   UNL     1      -4.702   1.472  25.509  0.00  0.00    -0.314 N 
ATOM     18  C   UNL     1      -4.170   2.333  24.549  0.00  0.00    +0.218 C 
ATOM     31  H   UNL     1      -5.155   1.866  26.328  0.00  0.00    +0.149 HD
BRANCH  18  19
ATOM     19  C   UNL     1      -4.266   3.832  24.902  0.00  0.00    +0.039 C 
ATOM     21  C   UNL     1      -5.645   4.145  25.504  0.00  0.00    +0.020 C 
ATOM     22  C   UNL     1      -3.187   4.182  25.942  0.00  0.00    +0.020 C 
ATOM     23  C   UNL     1      -4.031   4.685  23.647  0.00  0.00    +0.020 C 
ENDBRANCH  18  19
ENDBRANCH  12   3
ENDBRANCH   6  12
BRANCH   8  13
ATOM     13  C   UNL     1      -0.312   0.381  23.378  0.00  0.00    +0.103 C 
BRANCH  13  17
ATOM      1  O   UNL     1       1.700   1.622  23.777  0.00  0.00    -0.276 OA
ATOM      4  N   UNL     1       1.742   0.092  22.035  0.00  0.00    -0.300 N 
ATOM     17  C   UNL     1       1.129   0.766  23.096  0.00  0.00    +0.216 C 
ATOM     24  C   UNL     1       1.047  -0.917  21.244  0.00  0.00    +0.132 C 
BRANCH   4  20
ATOM     20  C   UNL     1       3.124   0.348  21.638  0.00  0.00    +0.142 C 
BRANCH  20  25
ATOM     25  C   UNL     1       4.098  -0.026  22.718  0.00  0.00    -0.030 A 
ATOM     26  C   UNL     1       4.083  -1.312  23.256  0.00  0.00    +0.005 A 
ATOM     27  C   UNL     1       5.019   0.913  23.183  0.00  0.00    +0.005 A 
ATOM     28  C   UNL     1       4.987  -1.661  24.259  0.00  0.00    +0.000 A 
ATOM     29  C   UNL     1       5.924   0.565  24.186  0.00  0.00    +0.000 A 
ATOM     30  C   UNL     1       5.908  -0.722  24.724  0.00  0.00    +0.000 A 
ENDBRANCH  20  25
ENDBRANCH   4  20
ENDBRANCH  13  17
ENDBRANCH   8  13
TORSDOF 8
ENDMDL
MODEL 4
REMARK VINA RESULT:      -1.2      1.515      7.009
REMARK  Name = 38027224
REMARK  15 active torsions:
REMARK  status: ('A' for Active; 'I' for Inactive)
REMARK    1  A    between atoms: N_3  and  C_12
REMARK    2  A    between atoms: N_4  and  C_20
REMARK    3  A    between atoms: N_4  and  C_24
REMARK    4  A    between atoms: C_5  and  C_9
REMARK    5  A    between atoms: C_6  and  C_12
REMARK    6  A    between atoms: C_8  and  C_13
REMARK    7  A    between atoms: C_9  and  C_14
REMARK    8  A    between atoms: C_9  and  C_15
REMARK    9  A    between atoms: C_10  and  C_16
REMARK   10  A    between atoms: C_13  and  C_17
REMARK   11  A    between atoms: C_18  and  C_19
REMARK   12  A    between atoms: C_19  and  C_21
REMARK   13  A    between atoms: C_19  and  C_22
REMARK   14  A    between atoms: C_19  and  C_23
REMARK   15  A    between atoms: C_20  and  C_25
REMARK                            x       y       z     vdW  Elec       q    Type
REMARK                         _______ _______ _______ _____ _____    ______ ____
ROOT
ATOM      5  C   UNL     1      -3.277   2.728  25.380  0.00  0.00    +0.000 C 
ATOM      6  C   UNL     1      -4.285   2.335  24.270  0.00  0.00    +0.032 C 
ATOM      7  C   UNL     1      -2.114   3.536  24.786  0.00  0.00    +0.012 C 
ATOM      8  C   UNL     1      -1.359   2.753  23.694  0.00  0.00    +0.023 C 
ATOM     10  C   UNL     1      -2.308   2.107  22.706  0.00  0.00    -0.073 C 
ATOM     11  C   UNL     1      -3.615   1.941  22.975  0.00  0.00    -0.022 C 
ATOM     16  C   UNL     1      -1.728   1.698  21.380  0.00  0.00    +0.039 C 
ENDROOT
BRANCH   5   9
ATOM      9  C   UNL     1      -3.948   3.530  26.499  0.00  0.00    -0.013 C 
ATOM     14  C   UNL     1      -3.078   4.718  26.897  0.00  0.00    +0.007 C 
ATOM     15  C   UNL     1      -5.333   3.995  26.064  0.00  0.00    +0.007 C 
ENDBRANCH   5   9
BRANCH   6  12
ATOM     12  C   UNL     1      -5.205   1.200  24.735  0.00  0.00    +0.112 C 
BRANCH  12   3
ATOM      2  O   UNL     1      -4.068  -0.948  23.247  0.00  0.00    -0.275 OA
ATOM      3  N   UNL     1      -4.442   0.114  25.266  0.00  0.00    -0.314 N 
ATOM     18  C   UNL     1      -3.916  -0.904  24.468  0.00  0.00    +0.218 C 
ATOM     31  H   UNL     1      -4.231   0.121  26.258  0.00  0.00    +0.149 HD
BRANCH  18  19
ATOM     19  C   UNL     1      -3.119  -1.979  25.237  0.00  0.00    +0.039 C 
ATOM     21  C   UNL     1      -3.625  -3.380  24.861  0.00  0.00    +0.020 C 
ATOM     22  C   UNL     1      -1.630  -1.878  24.859  0.00  0.00    +0.020 C 
ATOM     23  C   UNL     1      -3.256  -1.755  26.750  0.00  0.00    +0.020 C 
ENDBRANCH  18  19
ENDBRANCH  12   3
ENDBRANCH   6  12
BRANCH   8  13
ATOM     13  C   UNL     1      -0.417   1.714  24.312  0.00  0.00    +0.103 C 
BRANCH  13  17
ATOM      1  O   UNL     1       1.703   2.411  23.435  0.00  0.00    -0.276 OA
ATOM      4  N   UNL     1       0.962   0.299  22.829  0.00  0.00    -0.300 N 
ATOM     17  C   UNL     1       0.847   1.524  23.493  0.00  0.00    +0.216 C 
ATOM     24  C   UNL     1      -0.063  -0.735  22.912  0.00  0.00    +0.132 C 
BRANCH   4  20
ATOM     20  C   UNL     1       2.117  -0.038  22.000  0.00  0.00    +0.142 C 
BRANCH  20  25
ATOM     25  C   UNL     1       3.369  -0.186  22.816  0.00  0.00    -0.030 A 
ATOM     26  C   UNL     1       4.275   0.870  22.902  0.00  0.00    +0.005 A 
ATOM     27  C   UNL     1       3.626  -1.381  23.489  0.00  0.00    +0.005 A 
ATOM     28  C   UNL     1       5.438   0.733  23.660  0.00  0.00    +0.000 A 
ATOM     29  C   UNL     1       4.788  -1.519  24.247  0.00  0.00    +0.000 A 
ATOM     30  C   UNL     1       5.694  -0.462  24.332  0.00  0.00    +0.000 A 
ENDBRANCH  20  25
ENDBRANCH   4  20
ENDBRANCH  13  17
ENDBRANCH   8  13
TORSDOF 8
ENDMDL
MODEL 5
REMARK VINA RESULT:      -1.2      1.581      3.513
REMARK  Name = 38027224
REMARK  15 active torsions:
REMARK  status: ('A' for Active; 'I' for Inactive)
REMARK    1  A    between atoms: N_3  and  C_12
REMARK    2  A    between atoms: N_4  and  C_20
REMARK    3  A    between atoms: N_4  and  C_24
REMARK    4  A    between atoms: C_5  and  C_9
REMARK    5  A    between atoms: C_6  and  C_12
REMARK    6  A    between atoms: C_8  and  C_13
REMARK    7  A    between atoms: C_9  and  C_14
REMARK    8  A    between atoms: C_9  and  C_15
REMARK    9  A    between atoms: C_10  and  C_16
REMARK   10  A    between atoms: C_13  and  C_17
REMARK   11  A    between atoms: C_18  and  C_19
REMARK   12  A    between atoms: C_19  and  C_21
REMARK   13  A    between atoms: C_19  and  C_22
REMARK   14  A    between atoms: C_19  and  C_23
REMARK   15  A    between atoms: C_20  and  C_25
REMARK                            x       y       z     vdW  Elec       q    Type
REMARK                         _______ _______ _______ _____ _____    ______ ____
ROOT
ATOM      5  C   UNL     1      -2.968  -1.057  24.643  0.00  0.00    +0.000 C 
ATOM      6  C   UNL     1      -1.826  -0.361  23.859  0.00  0.00    +0.032 C 
ATOM      7  C   UNL     1      -4.312  -0.849  23.929  0.00  0.00    +0.012 C 
ATOM      8  C   UNL     1      -4.665   0.642  23.773  0.00  0.00    +0.023 C 
ATOM     10  C   UNL     1      -3.491   1.447  23.253  0.00  0.00    -0.073 C 
ATOM     11  C   UNL     1      -2.232   0.977  23.287  0.00  0.00    -0.022 C 
ATOM     16  C   UNL     1      -3.805   2.788  22.649  0.00  0.00    +0.039 C 
ENDROOT
BRANCH   5   9
ATOM      9  C   UNL     1      -2.703  -2.554  24.825  0.00  0.00    -0.013 C 
ATOM     14  C   UNL     1      -3.871  -3.372  24.282  0.00  0.00    +0.007 C 
ATOM     15  C   UNL     1      -1.400  -2.951  24.140  0.00  0.00    +0.007 C 
ENDBRANCH   5   9
BRANCH   6  12
ATOM     12  C   UNL     1      -0.581  -0.186  24.737  0.00  0.00    +0.112 C 
BRANCH  12   3
ATOM      2  O   UNL     1       1.305   1.764  23.864  0.00  0.00    -0.275 OA
ATOM      3  N   UNL     1       0.608  -0.437  23.984  0.00  0.00    -0.314 N 
ATOM     18  C   UNL     1       1.485   0.576  23.593  0.00  0.00    +0.218 C 
ATOM     31  H   UNL     1       0.846  -1.401  23.777  0.00  0.00    +0.149 HD
BRANCH  18  19
ATOM     19  C   UNL     1       2.713   0.093  22.791  0.00  0.00    +0.039 C 
ATOM     21  C   UNL     1       2.283  -0.343  21.381  0.00  0.00    +0.020 C 
ATOM     22  C   UNL     1       3.724   1.246  22.660  0.00  0.00    +0.020 C 
ATOM     23  C   UNL     1       3.393  -1.075  23.521  0.00  0.00    +0.020 C 
ENDBRANCH  18  19
ENDBRANCH  12   3
ENDBRANCH   6  12
BRANCH   8  13
ATOM     13  C   UNL     1      -5.191   1.226  25.088  0.00  0.00    +0.103 C 
BRANCH  13  17
ATOM      1  O   UNL     1      -3.087   1.599  26.175  0.00  0.00    -0.276 OA
ATOM      4  N   UNL     1      -4.498   3.428  25.968  0.00  0.00    -0.300 N 
ATOM     17  C   UNL     1      -4.155   2.083  25.792  0.00  0.00    +0.216 C 
ATOM     24  C   UNL     1      -5.767   3.978  25.508  0.00  0.00    +0.132 C 
BRANCH   4  20
ATOM     20  C   UNL     1      -3.610   4.382  26.627  0.00  0.00    +0.142 C 
BRANCH  20  25
ATOM     25  C   UNL     1      -2.305   4.531  25.898  0.00  0.00    -0.030 A 
ATOM     26  C   UNL     1      -1.357   3.510  25.950  0.00  0.00    +0.005 A 
ATOM     27  C   UNL     1      -2.042   5.690  25.169  0.00  0.00    +0.005 A 
ATOM     28  C   UNL     1      -0.145   3.648  25.273  0.00  0.00    +0.000 A 
ATOM     29  C   UNL     1      -0.830   5.829  24.492  0.00  0.00    +0.000 A 
ATOM     30  C   UNL     1       0.118   4.807  24.544  0.00  0.00    +0.000 A 
ENDBRANCH  20  25
ENDBRANCH   4  20
ENDBRANCH  13  17
ENDBRANCH   8  13
TORSDOF 8
ENDMDL
MODEL 6
REMARK VINA RESULT:       0.2     16.699     19.468
REMARK  Name = 38027224
REMARK  15 active torsions:
REMARK  status: ('A' for Active; 'I' for Inactive)
REMARK    1  A    between atoms: N_3  and  C_12
REMARK    2  A    between atoms: N_4  and  C_20
REMARK    3  A    between atoms: N_4  and  C_24
REMARK    4  A    between atoms: C_5  and  C_9
REMARK    5  A    between atoms: C_6  and  C_12
REMARK    6  A    between atoms: C_8  and  C_13
REMARK    7  A    between atoms: C_9  and  C_14
REMARK    8  A    between atoms: C_9  and  C_15
REMARK    9  A    between atoms: C_10  and  C_16
REMARK   10  A    between atoms: C_13  and  C_17
REMARK   11  A    between atoms: C_18  and  C_19
REMARK   12  A    between atoms: C_19  and  C_21
REMARK   13  A    between atoms: C_19  and  C_22
REMARK   14  A    between atoms: C_19  and  C_23
REMARK   15  A    between atoms: C_20  and  C_25
REMARK                            x       y       z     vdW  Elec       q    Type
REMARK                         _______ _______ _______ _____ _____    ______ ____
ROOT
ATOM      5  C   UNL     1      15.857  -7.919  27.734  0.00  0.00    +0.000 C 
ATOM      6  C   UNL     1      15.608  -8.868  28.933  0.00  0.00    +0.032 C 
ATOM      7  C   UNL     1      17.241  -7.264  27.846  0.00  0.00    +0.012 C 
ATOM      8  C   UNL     1      17.399  -6.456  29.149  0.00  0.00    +0.023 C 
ATOM     10  C   UNL     1      16.919  -7.235  30.356  0.00  0.00    -0.073 C 
ATOM     11  C   UNL     1      16.131  -8.319  30.240  0.00  0.00    -0.022 C 
ATOM     16  C   UNL     1      17.405  -6.768  31.700  0.00  0.00    +0.039 C 
ENDROOT
BRANCH   5   9
ATOM      9  C   UNL     1      15.737  -8.653  26.394  0.00  0.00    -0.013 C 
ATOM     14  C   UNL     1      16.720  -8.075  25.381  0.00  0.00    +0.007 C 
ATOM     15  C   UNL     1      15.970 -10.148  26.583  0.00  0.00    +0.007 C 
ENDBRANCH   5   9
BRANCH   6  12
ATOM     12  C   UNL     1      14.118  -9.199  29.078  0.00  0.00    +0.112 C 
BRANCH  12   3
ATOM      2  O   UNL     1      13.322  -6.490  29.465  0.00  0.00    -0.275 OA
ATOM      3  N   UNL     1      13.588  -8.637  30.280  0.00  0.00    -0.314 N 
ATOM     18  C   UNL     1      13.220  -7.295  30.392  0.00  0.00    +0.218 C 
ATOM     31  H   UNL     1      13.425  -9.260  31.065  0.00  0.00    +0.149 HD
BRANCH  18  19
ATOM     19  C   UNL     1      12.666  -6.891  31.775  0.00  0.00    +0.039 C 
ATOM     21  C   UNL     1      12.977  -7.985  32.807  0.00  0.00    +0.020 C 
ATOM     22  C   UNL     1      13.336  -5.582  32.230  0.00  0.00    +0.020 C 
ATOM     23  C   UNL     1      11.150  -6.661  31.688  0.00  0.00    +0.020 C 
ENDBRANCH  18  19
ENDBRANCH  12   3
ENDBRANCH   6  12
BRANCH   8  13
ATOM     13  C   UNL     1      16.686  -5.103  29.049  0.00  0.00    +0.103 C 
BRANCH  13  17
ATOM      1  O   UNL     1      17.349  -4.944  26.751  0.00  0.00    -0.276 OA
ATOM      4  N   UNL     1      17.064  -2.950  27.899  0.00  0.00    -0.300 N 
ATOM     17  C   UNL     1      17.065  -4.345  27.791  0.00  0.00    +0.216 C 
ATOM     24  C   UNL     1      16.723  -2.262  29.139  0.00  0.00    +0.132 C 
BRANCH   4  20
ATOM     20  C   UNL     1      17.405  -2.077  26.778  0.00  0.00    +0.142 C 
BRANCH  20  25
ATOM     25  C   UNL     1      17.032  -2.686  25.458  0.00  0.00    -0.030 A 
ATOM     26  C   UNL     1      16.349  -1.928  24.508  0.00  0.00    +0.005 A 
ATOM     27  C   UNL     1      17.371  -4.010  25.179  0.00  0.00    +0.005 A 
ATOM     28  C   UNL     1      16.002  -2.493  23.280  0.00  0.00    +0.000 A 
ATOM     29  C   UNL     1      17.025  -4.577  23.952  0.00  0.00    +0.000 A 
ATOM     30  C   UNL     1      16.341  -3.817  23.003  0.00  0.00    +0.000 A 
ENDBRANCH  20  25
ENDBRANCH   4  20
ENDBRANCH  13  17
ENDBRANCH   8  13
TORSDOF 8
ENDMDL
