MODEL 1
REMARK VINA RESULT:      -1.3      0.000      0.000
REMARK  Name = 11886654
REMARK  11 active torsions:
REMARK  status: ('A' for Active; 'I' for Inactive)
REMARK    1  A    between atoms: O_3  and  C_13
REMARK    2  A    between atoms: O_3  and  C_18
REMARK    3  A    between atoms: O_5  and  C_19
REMARK    4  A    between atoms: O_5  and  C_30
REMARK    5  A    between atoms: N_6  and  C_12
REMARK    6  A    between atoms: N_9  and  C_21
REMARK    7  A    between atoms: C_17  and  C_19
REMARK    8  A    between atoms: C_20  and  C_22
REMARK    9  A    between atoms: C_20  and  C_23
REMARK   10  A    between atoms: C_20  and  C_24
REMARK   11  A    between atoms: C_20  and  C_25
REMARK                            x       y       z     vdW  Elec       q    Type
REMARK                         _______ _______ _______ _____ _____    ______ ____
ROOT
ATOM      1  O   UNL     1      -5.147  -8.954  11.799  0.00  0.00    -0.368 OA
ATOM      2  O   UNL     1      -3.345  -9.028   9.289  0.00  0.00    -0.368 OA
ATOM     10  C   UNL     1      -4.744  -9.328   9.487  0.00  0.00    +0.177 C 
ATOM     11  C   UNL     1      -4.861  -9.990  10.845  0.00  0.00    +0.192 C 
ATOM     12  C   UNL     1      -5.525  -8.036   9.625  0.00  0.00    +0.166 C 
ATOM     13  C   UNL     1      -3.483 -10.573  11.052  0.00  0.00    +0.235 C 
ATOM     14  C   UNL     1      -5.391  -7.719  11.111  0.00  0.00    +0.190 C 
ATOM     15  C   UNL     1      -2.599  -9.533  10.405  0.00  0.00    +0.207 C 
ENDROOT
BRANCH  12   6
ATOM      6  N   UNL     1      -6.899  -8.155   9.130  0.00  0.00    -0.244 N 
ATOM      7  N   UNL     1      -7.280  -9.240   8.443  0.00  0.00    -0.065 NA
ATOM      8  N   UNL     1      -8.558  -9.069   8.124  0.00  0.00    -0.132 NA
ATOM     16  C   UNL     1      -7.909  -7.260   9.271  0.00  0.00    +0.136 A 
ATOM     17  C   UNL     1      -8.959  -7.861   8.623  0.00  0.00    +0.108 A 
BRANCH  17  19
ATOM     19  C   UNL     1     -10.332  -7.376   8.437  0.00  0.00    +0.218 C 
BRANCH  19   5
ATOM      5  O   UNL     1     -10.635  -6.242   9.259  0.00  0.00    -0.377 OA
ATOM     30  C   UNL     1     -10.621  -5.045   8.501  0.00  0.00    +0.194 C 
ENDBRANCH  19   5
ENDBRANCH  17  19
ENDBRANCH  12   6
BRANCH  13   3
ATOM      3  O   UNL     1      -3.156 -10.781  12.407  0.00  0.00    -0.442 OA
BRANCH   3  18
ATOM      4  O   UNL     1      -3.566  -9.208  14.014  0.00  0.00    -0.226 OA
ATOM      9  N   UNL     1      -5.191 -10.769  13.381  0.00  0.00    -0.251 N 
ATOM     18  C   UNL     1      -3.952 -10.157  13.344  0.00  0.00    +0.405 C 
ATOM     31  H   UNL     1      -5.324 -11.549  12.742  0.00  0.00    +0.158 HD
BRANCH   9  21
ATOM     21  C   UNL     1      -6.298 -10.443  14.197  0.00  0.00    +0.036 A 
ATOM     22  C   UNL     1      -8.471  -9.805  15.795  0.00  0.00    -0.042 A 
ATOM     26  C   UNL     1      -8.668 -10.173  14.463  0.00  0.00    +0.006 A 
ATOM     27  C   UNL     1      -7.180  -9.759  16.322  0.00  0.00    +0.006 A 
ATOM     28  C   UNL     1      -7.575 -10.494  13.659  0.00  0.00    +0.024 A 
ATOM     29  C   UNL     1      -6.087 -10.079  15.516  0.00  0.00    +0.024 A 
BRANCH  22  20
ATOM     20  C   UNL     1      -9.640  -9.462  16.655  0.00  0.00    -0.013 C 
ATOM     23  C   UNL     1     -10.442 -10.739  17.054  0.00  0.00    +0.015 C 
ATOM     24  C   UNL     1      -9.294  -8.750  18.004  0.00  0.00    +0.015 C 
ATOM     25  C   UNL     1     -10.622  -8.501  15.917  0.00  0.00    +0.015 C 
ENDBRANCH  22  20
ENDBRANCH   9  21
ENDBRANCH   3  18
ENDBRANCH  13   3
TORSDOF 7
ENDMDL
MODEL 2
REMARK VINA RESULT:      -0.7      1.553      2.122
REMARK  Name = 11886654
REMARK  11 active torsions:
REMARK  status: ('A' for Active; 'I' for Inactive)
REMARK    1  A    between atoms: O_3  and  C_13
REMARK    2  A    between atoms: O_3  and  C_18
REMARK    3  A    between atoms: O_5  and  C_19
REMARK    4  A    between atoms: O_5  and  C_30
REMARK    5  A    between atoms: N_6  and  C_12
REMARK    6  A    between atoms: N_9  and  C_21
REMARK    7  A    between atoms: C_17  and  C_19
REMARK    8  A    between atoms: C_20  and  C_22
REMARK    9  A    between atoms: C_20  and  C_23
REMARK   10  A    between atoms: C_20  and  C_24
REMARK   11  A    between atoms: C_20  and  C_25
REMARK                            x       y       z     vdW  Elec       q    Type
REMARK                         _______ _______ _______ _____ _____    ______ ____
ROOT
ATOM      1  O   UNL     1      -4.482  -9.480  12.218  0.00  0.00    -0.368 OA
ATOM      2  O   UNL     1      -2.388  -9.149   9.969  0.00  0.00    -0.368 OA
ATOM     10  C   UNL     1      -3.693  -9.769   9.995  0.00  0.00    +0.177 C 
ATOM     11  C   UNL     1      -3.837 -10.428  11.352  0.00  0.00    +0.192 C 
ATOM     12  C   UNL     1      -4.764  -8.696   9.978  0.00  0.00    +0.166 C 
ATOM     13  C   UNL     1      -2.402 -10.668  11.760  0.00  0.00    +0.235 C 
ATOM     14  C   UNL     1      -4.910  -8.343  11.455  0.00  0.00    +0.190 C 
ATOM     15  C   UNL     1      -1.704  -9.454  11.192  0.00  0.00    +0.207 C 
ENDROOT
BRANCH  12   6
ATOM      6  N   UNL     1      -5.992  -9.139   9.314  0.00  0.00    -0.244 N 
ATOM      7  N   UNL     1      -6.022 -10.303   8.651  0.00  0.00    -0.065 NA
ATOM      8  N   UNL     1      -7.247 -10.437   8.156  0.00  0.00    -0.132 NA
ATOM     16  C   UNL     1      -7.185  -8.494   9.265  0.00  0.00    +0.136 A 
ATOM     17  C   UNL     1      -7.972  -9.337   8.522  0.00  0.00    +0.108 A 
BRANCH  17  19
ATOM     19  C   UNL     1      -9.377  -9.183   8.126  0.00  0.00    +0.218 C 
BRANCH  19   5
ATOM      5  O   UNL     1     -10.190 -10.293   8.524  0.00  0.00    -0.377 OA
ATOM     30  C   UNL     1      -9.997 -10.603   9.892  0.00  0.00    +0.194 C 
ENDBRANCH  19   5
ENDBRANCH  17  19
ENDBRANCH  12   6
BRANCH  13   3
ATOM      3  O   UNL     1      -2.223 -10.781  13.153  0.00  0.00    -0.442 OA
BRANCH   3  18
ATOM      4  O   UNL     1      -2.841  -9.095  14.568  0.00  0.00    -0.226 OA
ATOM      9  N   UNL     1      -4.338 -10.779  13.937  0.00  0.00    -0.251 N 
ATOM     18  C   UNL     1      -3.126 -10.116  13.955  0.00  0.00    +0.405 C 
ATOM     31  H   UNL     1      -4.381 -11.618  13.362  0.00  0.00    +0.158 HD
BRANCH   9  21
ATOM     21  C   UNL     1      -5.528 -10.436  14.618  0.00  0.00    +0.036 A 
ATOM     22  C   UNL     1      -7.860  -9.763  15.956  0.00  0.00    -0.042 A 
ATOM     26  C   UNL     1      -6.656  -9.855  16.656  0.00  0.00    +0.006 A 
ATOM     27  C   UNL     1      -7.890 -10.010  14.584  0.00  0.00    +0.006 A 
ATOM     28  C   UNL     1      -5.483 -10.194  15.982  0.00  0.00    +0.024 A 
ATOM     29  C   UNL     1      -6.716 -10.350  13.911  0.00  0.00    +0.024 A 
BRANCH  22  20
ATOM     20  C   UNL     1      -9.115  -9.400  16.676  0.00  0.00    -0.013 C 
ATOM     23  C   UNL     1      -9.109  -7.899  17.101  0.00  0.00    +0.015 C 
ATOM     24  C   UNL     1     -10.436  -9.597  15.862  0.00  0.00    +0.015 C 
ATOM     25  C   UNL     1      -9.292 -10.255  17.969  0.00  0.00    +0.015 C 
ENDBRANCH  22  20
ENDBRANCH   9  21
ENDBRANCH   3  18
ENDBRANCH  13   3
TORSDOF 7
ENDMDL
