MODEL 1
REMARK VINA RESULT:      -1.6      0.000      0.000
REMARK  Name = 45361575
REMARK  10 active torsions:
REMARK  status: ('A' for Active; 'I' for Inactive)
REMARK    1  A    between atoms: O_2  and  C_11
REMARK    2  A    between atoms: N_5  and  C_15
REMARK    3  A    between atoms: N_6  and  C_25
REMARK    4  A    between atoms: C_8  and  C_18
REMARK    5  A    between atoms: C_10  and  C_20
REMARK    6  A    between atoms: C_14  and  C_19
REMARK    7  A    between atoms: C_19  and  C_21
REMARK    8  A    between atoms: C_19  and  C_22
REMARK    9  A    between atoms: C_23  and  C_24
REMARK   10  A    between atoms: C_25  and  C_28
REMARK                            x       y       z     vdW  Elec       q    Type
REMARK                         _______ _______ _______ _____ _____    ______ ____
ROOT
ATOM      8  C   UNL     1      -2.919  -1.337  24.852  0.00  0.00    -0.027 C 
ATOM      9  C   UNL     1      -2.539   0.003  24.138  0.00  0.00    +0.028 C 
ATOM     10  C   UNL     1      -0.994   0.271  24.238  0.00  0.00    +0.012 C 
ATOM     11  C   UNL     1      -3.451   1.172  24.609  0.00  0.00    +0.122 C 
ATOM     12  C   UNL     1      -4.424  -1.626  24.639  0.00  0.00    +0.007 C 
ATOM     13  C   UNL     1      -2.121  -2.495  24.210  0.00  0.00    +0.009 C 
ATOM     14  C   UNL     1      -4.956   0.836  24.489  0.00  0.00    +0.029 C 
ATOM     15  C   UNL     1      -0.201  -0.934  23.657  0.00  0.00    +0.076 C 
ATOM     16  C   UNL     1      -5.322  -0.501  25.134  0.00  0.00    +0.007 C 
ATOM     17  C   UNL     1      -0.615  -2.279  24.253  0.00  0.00    +0.023 C 
ATOM     18  C   UNL     1      -2.631  -1.301  26.374  0.00  0.00    +0.011 C 
ATOM     20  C   UNL     1      -0.545   1.560  23.530  0.00  0.00    +0.010 C 
ENDROOT
BRANCH  15   5
ATOM      4  O   UNL     1       1.713  -0.213  21.642  0.00  0.00    -0.270 OA
ATOM      5  N   UNL     1       1.227  -0.773  23.839  0.00  0.00    -0.308 N 
ATOM     23  C   UNL     1       2.070  -0.421  22.799  0.00  0.00    +0.244 C 
ATOM     34  H   UNL     1       1.607  -1.038  24.742  0.00  0.00    +0.149 HD
BRANCH  23  24
ATOM      7  N   UNL     1       6.224  -0.134  23.792  0.00  0.00    -0.263 NA
ATOM     24  C   UNL     1       3.512  -0.322  23.143  0.00  0.00    +0.040 A 
ATOM     26  C   UNL     1       4.164  -1.398  23.734  0.00  0.00    +0.033 A 
ATOM     27  C   UNL     1       4.214   0.847  22.875  0.00  0.00    +0.033 A 
ATOM     29  C   UNL     1       5.509  -1.255  24.037  0.00  0.00    +0.111 A 
ATOM     30  C   UNL     1       5.557   0.890  23.215  0.00  0.00    +0.111 A 
ENDBRANCH  23  24
ENDBRANCH  15   5
BRANCH  11   2
ATOM      2  O   UNL     1      -3.222   2.316  23.786  0.00  0.00    -0.391 OA
ATOM     35  H   UNL     1      -4.084   2.654  23.489  0.00  0.00    +0.210 HD
ENDBRANCH  11   2
BRANCH  14  19
ATOM     19  C   UNL     1      -5.835   1.947  25.079  0.00  0.00    +0.077 C 
ATOM     21  C   UNL     1      -7.090   2.128  24.231  0.00  0.00    +0.017 C 
BRANCH  19  22
ATOM      3  O   UNL     1      -5.014   4.078  24.277  0.00  0.00    -0.276 OA
ATOM      6  N   UNL     1      -4.358   3.358  26.382  0.00  0.00    -0.310 N 
ATOM     22  C   UNL     1      -5.038   3.243  25.178  0.00  0.00    +0.216 C 
ATOM     36  H   UNL     1      -4.415   2.606  27.062  0.00  0.00    +0.149 HD
BRANCH   6  25
ATOM     25  C   UNL     1      -3.534   4.499  26.708  0.00  0.00    +0.146 C 
BRANCH  25  28
ATOM      1  S   UNL     1      -1.108   3.185  26.385  0.00  0.00    -0.100 S 
ATOM     28  C   UNL     1      -2.204   4.447  26.012  0.00  0.00    +0.007 A 
ATOM     31  C   UNL     1      -1.698   5.308  25.064  0.00  0.00    +0.013 A 
ATOM     32  C   UNL     1      -0.393   4.927  24.638  0.00  0.00    +0.008 A 
ATOM     33  C   UNL     1       0.048   3.789  25.276  0.00  0.00    +0.045 A 
ENDBRANCH  25  28
ENDBRANCH   6  25
ENDBRANCH  19  22
ENDBRANCH  14  19
TORSDOF 7
ENDMDL
