MODEL 1
REMARK VINA RESULT:      -6.1      0.000      0.000
REMARK  Name = 75367087
REMARK  6 active torsions:
REMARK  status: ('A' for Active; 'I' for Inactive)
REMARK    1  A    between atoms: O_3  and  C_9
REMARK    2  A    between atoms: N_5  and  C_7
REMARK    3  A    between atoms: N_5  and  C_8
REMARK    4  A    between atoms: N_6  and  C_16
REMARK    5  A    between atoms: C_12  and  C_16
REMARK    6  A    between atoms: C_17  and  C_18
REMARK                            x       y       z     vdW  Elec       q    Type
REMARK                         _______ _______ _______ _____ _____    ______ ____
ROOT
ATOM      2  O   UNL     1      -1.418  -2.170  23.593  0.00  0.00    -0.371 OA
ATOM      8  C   UNL     1       0.084  -0.678  24.670  0.00  0.00    +0.111 C 
ATOM      9  C   UNL     1      -1.194  -0.766  25.484  0.00  0.00    +0.164 C 
ATOM     12  C   UNL     1      -1.768  -2.086  24.985  0.00  0.00    +0.165 C 
ATOM     15  C   UNL     1      -0.379  -1.213  23.325  0.00  0.00    +0.181 C 
ENDROOT
BRANCH   9   3
ATOM      3  O   UNL     1      -0.954  -0.790  26.877  0.00  0.00    -0.388 OA
ATOM     25  H   UNL     1      -0.745   0.113  27.168  0.00  0.00    +0.210 HD
ENDBRANCH   9   3
BRANCH   8   5
ATOM      5  N   UNL     1       0.630   0.668  24.588  0.00  0.00    -0.306 NA
ATOM     24  H   UNL     1       1.063   0.817  23.678  0.00  0.00    +0.123 HD
BRANCH   5   7
ATOM      7  C   UNL     1      -0.400   1.664  24.822  0.00  0.00    +0.054 C 
ATOM     10  C   UNL     1      -0.264   2.878  23.910  0.00  0.00    +0.019 C 
ATOM     11  C   UNL     1      -0.311   2.287  26.210  0.00  0.00    +0.019 C 
ATOM     13  C   UNL     1      -1.108   3.944  24.602  0.00  0.00    +0.002 C 
ATOM     14  C   UNL     1      -1.140   3.563  26.085  0.00  0.00    +0.002 C 
ENDBRANCH   5   7
ENDBRANCH   8   5
BRANCH  12  16
ATOM     16  C   UNL     1      -3.275  -2.182  25.141  0.00  0.00    +0.138 C 
BRANCH  16   6
ATOM      4  O   UNL     1      -3.738  -0.160  23.156  0.00  0.00    -0.270 OA
ATOM      6  N   UNL     1      -3.861  -0.890  25.355  0.00  0.00    -0.309 N 
ATOM     17  C   UNL     1      -4.049   0.031  24.329  0.00  0.00    +0.244 C 
ATOM     26  H   UNL     1      -4.075  -0.641  26.314  0.00  0.00    +0.149 HD
BRANCH  17  18
ATOM      1  F   UNL     1      -6.299   4.959  25.803  0.00  0.00    -0.205 F 
ATOM     18  C   UNL     1      -4.645   1.335  24.719  0.00  0.00    +0.037 A 
ATOM     19  C   UNL     1      -5.685   1.376  25.646  0.00  0.00    +0.016 A 
ATOM     20  C   UNL     1      -4.164   2.517  24.157  0.00  0.00    +0.016 A 
ATOM     21  C   UNL     1      -6.245   2.600  26.013  0.00  0.00    +0.039 A 
ATOM     22  C   UNL     1      -4.723   3.742  24.522  0.00  0.00    +0.039 A 
ATOM     23  C   UNL     1      -5.763   3.783  25.451  0.00  0.00    +0.123 A 
ENDBRANCH  17  18
ENDBRANCH  16   6
ENDBRANCH  12  16
TORSDOF 6
ENDMDL
MODEL 2
REMARK VINA RESULT:      -5.5      2.911      5.475
REMARK  Name = 75367087
REMARK  6 active torsions:
REMARK  status: ('A' for Active; 'I' for Inactive)
REMARK    1  A    between atoms: O_3  and  C_9
REMARK    2  A    between atoms: N_5  and  C_7
REMARK    3  A    between atoms: N_5  and  C_8
REMARK    4  A    between atoms: N_6  and  C_16
REMARK    5  A    between atoms: C_12  and  C_16
REMARK    6  A    between atoms: C_17  and  C_18
REMARK                            x       y       z     vdW  Elec       q    Type
REMARK                         _______ _______ _______ _____ _____    ______ ____
ROOT
ATOM      2  O   UNL     1      -0.111   3.957  24.417  0.00  0.00    -0.371 OA
ATOM      8  C   UNL     1      -2.358   4.571  24.880  0.00  0.00    +0.111 C 
ATOM      9  C   UNL     1      -1.911   3.532  25.891  0.00  0.00    +0.164 C 
ATOM     12  C   UNL     1      -0.397   3.662  25.794  0.00  0.00    +0.165 C 
ATOM     15  C   UNL     1      -1.328   4.382  23.779  0.00  0.00    +0.181 C 
ENDROOT
BRANCH   9   3
ATOM      3  O   UNL     1      -2.380   3.803  27.197  0.00  0.00    -0.388 OA
ATOM     25  H   UNL     1      -2.819   3.006  27.538  0.00  0.00    +0.210 HD
ENDBRANCH   9   3
BRANCH   8   5
ATOM      5  N   UNL     1      -3.724   4.383  24.416  0.00  0.00    -0.306 NA
ATOM     24  H   UNL     1      -3.743   4.297  23.402  0.00  0.00    +0.123 HD
BRANCH   5   7
ATOM      7  C   UNL     1      -4.327   3.213  25.030  0.00  0.00    +0.054 C 
ATOM     10  C   UNL     1      -4.678   2.130  24.016  0.00  0.00    +0.019 C 
ATOM     11  C   UNL     1      -5.678   3.513  25.667  0.00  0.00    +0.019 C 
ATOM     13  C   UNL     1      -5.668   1.243  24.765  0.00  0.00    +0.002 C 
ATOM     14  C   UNL     1      -6.313   2.134  25.830  0.00  0.00    +0.002 C 
ENDBRANCH   5   7
ENDBRANCH   8   5
BRANCH  12  16
ATOM     16  C   UNL     1       0.342   2.403  26.213  0.00  0.00    +0.138 C 
BRANCH  16   6
ATOM      4  O   UNL     1       0.055   0.804  23.845  0.00  0.00    -0.270 OA
ATOM      6  N   UNL     1      -0.483   1.238  26.060  0.00  0.00    -0.309 N 
ATOM     17  C   UNL     1      -0.561   0.521  24.869  0.00  0.00    +0.244 C 
ATOM     26  H   UNL     1      -1.073   0.992  26.846  0.00  0.00    +0.149 HD
BRANCH  17  18
ATOM      1  F   UNL     1      -4.038  -3.886  24.848  0.00  0.00    -0.205 F 
ATOM     18  C   UNL     1      -1.480  -0.645  24.864  0.00  0.00    +0.037 A 
ATOM     19  C   UNL     1      -2.699  -0.574  25.538  0.00  0.00    +0.016 A 
ATOM     20  C   UNL     1      -1.125  -1.810  24.186  0.00  0.00    +0.016 A 
ATOM     21  C   UNL     1      -3.564  -1.669  25.533  0.00  0.00    +0.039 A 
ATOM     22  C   UNL     1      -1.989  -2.906  24.180  0.00  0.00    +0.039 A 
ATOM     23  C   UNL     1      -3.208  -2.834  24.854  0.00  0.00    +0.123 A 
ENDBRANCH  17  18
ENDBRANCH  16   6
ENDBRANCH  12  16
TORSDOF 6
ENDMDL
MODEL 3
REMARK VINA RESULT:      -4.4      2.998      5.278
REMARK  Name = 75367087
REMARK  6 active torsions:
REMARK  status: ('A' for Active; 'I' for Inactive)
REMARK    1  A    between atoms: O_3  and  C_9
REMARK    2  A    between atoms: N_5  and  C_7
REMARK    3  A    between atoms: N_5  and  C_8
REMARK    4  A    between atoms: N_6  and  C_16
REMARK    5  A    between atoms: C_12  and  C_16
REMARK    6  A    between atoms: C_17  and  C_18
REMARK                            x       y       z     vdW  Elec       q    Type
REMARK                         _______ _______ _______ _____ _____    ______ ____
ROOT
ATOM      2  O   UNL     1      -4.970   3.429  26.718  0.00  0.00    -0.371 OA
ATOM      8  C   UNL     1      -3.286   4.682  25.606  0.00  0.00    +0.111 C 
ATOM      9  C   UNL     1      -3.935   3.736  24.612  0.00  0.00    +0.164 C 
ATOM     12  C   UNL     1      -5.257   3.443  25.309  0.00  0.00    +0.165 C 
ATOM     15  C   UNL     1      -3.692   4.054  26.929  0.00  0.00    +0.181 C 
ENDROOT
BRANCH   9   3
ATOM      3  O   UNL     1      -4.129   4.327  23.342  0.00  0.00    -0.388 OA
ATOM     25  H   UNL     1      -3.549   3.879  22.704  0.00  0.00    +0.210 HD
ENDBRANCH   9   3
BRANCH   8   5
ATOM      5  N   UNL     1      -1.844   4.792  25.449  0.00  0.00    -0.306 NA
ATOM     24  H   UNL     1      -1.427   5.179  26.294  0.00  0.00    +0.123 HD
BRANCH   5   7
ATOM      7  C   UNL     1      -1.253   3.502  25.144  0.00  0.00    +0.054 C 
ATOM     10  C   UNL     1      -0.348   2.989  26.258  0.00  0.00    +0.019 C 
ATOM     11  C   UNL     1      -0.304   3.556  23.952  0.00  0.00    +0.019 C 
ATOM     13  C   UNL     1       0.489   1.911  25.575  0.00  0.00    +0.002 C 
ATOM     14  C   UNL     1       0.517   2.276  24.088  0.00  0.00    +0.002 C 
ENDBRANCH   5   7
ENDBRANCH   8   5
BRANCH  12  16
ATOM     16  C   UNL     1      -5.871   2.116  24.898  0.00  0.00    +0.138 C 
BRANCH  16   6
ATOM      4  O   UNL     1      -3.756   1.367  23.107  0.00  0.00    -0.270 OA
ATOM      6  N   UNL     1      -4.944   1.036  25.073  0.00  0.00    -0.309 N 
ATOM     17  C   UNL     1      -3.944   0.744  24.149  0.00  0.00    +0.244 C 
ATOM     26  H   UNL     1      -5.089   0.437  25.877  0.00  0.00    +0.149 HD
BRANCH  17  18
ATOM      1  F   UNL     1      -0.681  -3.669  25.330  0.00  0.00    -0.205 F 
ATOM     18  C   UNL     1      -3.081  -0.423  24.462  0.00  0.00    +0.037 A 
ATOM     19  C   UNL     1      -3.574  -1.718  24.300  0.00  0.00    +0.016 A 
ATOM     20  C   UNL     1      -1.778  -0.225  24.918  0.00  0.00    +0.016 A 
ATOM     21  C   UNL     1      -2.764  -2.815  24.593  0.00  0.00    +0.039 A 
ATOM     22  C   UNL     1      -0.967  -1.321  25.211  0.00  0.00    +0.039 A 
ATOM     23  C   UNL     1      -1.460  -2.616  25.049  0.00  0.00    +0.123 A 
ENDBRANCH  17  18
ENDBRANCH  16   6
ENDBRANCH  12  16
TORSDOF 6
ENDMDL
MODEL 4
REMARK VINA RESULT:      -3.7      3.994      6.820
REMARK  Name = 75367087
REMARK  6 active torsions:
REMARK  status: ('A' for Active; 'I' for Inactive)
REMARK    1  A    between atoms: O_3  and  C_9
REMARK    2  A    between atoms: N_5  and  C_7
REMARK    3  A    between atoms: N_5  and  C_8
REMARK    4  A    between atoms: N_6  and  C_16
REMARK    5  A    between atoms: C_12  and  C_16
REMARK    6  A    between atoms: C_17  and  C_18
REMARK                            x       y       z     vdW  Elec       q    Type
REMARK                         _______ _______ _______ _____ _____    ______ ____
ROOT
ATOM      2  O   UNL     1      -0.595   0.566  25.358  0.00  0.00    -0.371 OA
ATOM      8  C   UNL     1      -2.645   1.478  24.578  0.00  0.00    +0.111 C 
ATOM      9  C   UNL     1      -2.489   0.072  24.029  0.00  0.00    +0.164 C 
ATOM     12  C   UNL     1      -1.477  -0.512  25.006  0.00  0.00    +0.165 C 
ATOM     15  C   UNL     1      -1.215   1.807  24.976  0.00  0.00    +0.181 C 
ENDROOT
BRANCH   9   3
ATOM      3  O   UNL     1      -3.703  -0.653  24.031  0.00  0.00    -0.388 OA
ATOM     25  H   UNL     1      -3.583  -1.454  23.494  0.00  0.00    +0.210 HD
ENDBRANCH   9   3
BRANCH   8   5
ATOM      5  N   UNL     1      -3.196   2.420  23.617  0.00  0.00    -0.306 NA
ATOM     24  H   UNL     1      -3.335   1.965  22.717  0.00  0.00    +0.123 HD
BRANCH   5   7
ATOM      7  C   UNL     1      -4.448   2.979  24.093  0.00  0.00    +0.054 C 
ATOM     10  C   UNL     1      -4.249   4.042  25.168  0.00  0.00    +0.019 C 
ATOM     11  C   UNL     1      -5.318   1.952  24.809  0.00  0.00    +0.019 C 
ATOM     13  C   UNL     1      -5.621   4.153  25.825  0.00  0.00    +0.002 C 
ATOM     14  C   UNL     1      -6.311   2.806  25.593  0.00  0.00    +0.002 C 
ENDBRANCH   5   7
ENDBRANCH   8   5
BRANCH  12  16
ATOM     16  C   UNL     1      -0.675  -1.662  24.424  0.00  0.00    +0.138 C 
BRANCH  16   6
ATOM      4  O   UNL     1       0.592  -0.244  22.272  0.00  0.00    -0.270 OA
ATOM      6  N   UNL     1       0.717  -1.327  24.320  0.00  0.00    -0.309 N 
ATOM     17  C   UNL     1       1.246  -0.634  23.236  0.00  0.00    +0.244 C 
ATOM     26  H   UNL     1       1.325  -1.682  25.049  0.00  0.00    +0.149 HD
BRANCH  17  18
ATOM      1  F   UNL     1       6.782   0.296  23.347  0.00  0.00    -0.205 F 
ATOM     18  C   UNL     1       2.711  -0.388  23.266  0.00  0.00    +0.037 A 
ATOM     19  C   UNL     1       3.570  -1.357  23.784  0.00  0.00    +0.016 A 
ATOM     20  C   UNL     1       3.226   0.812  22.777  0.00  0.00    +0.016 A 
ATOM     21  C   UNL     1       4.945  -1.127  23.811  0.00  0.00    +0.039 A 
ATOM     22  C   UNL     1       4.602   1.043  22.804  0.00  0.00    +0.039 A 
ATOM     23  C   UNL     1       5.461   0.074  23.321  0.00  0.00    +0.123 A 
ENDBRANCH  17  18
ENDBRANCH  16   6
ENDBRANCH  12  16
TORSDOF 6
ENDMDL
MODEL 5
REMARK VINA RESULT:      -3.4     15.471     17.907
REMARK  Name = 75367087
REMARK  6 active torsions:
REMARK  status: ('A' for Active; 'I' for Inactive)
REMARK    1  A    between atoms: O_3  and  C_9
REMARK    2  A    between atoms: N_5  and  C_7
REMARK    3  A    between atoms: N_5  and  C_8
REMARK    4  A    between atoms: N_6  and  C_16
REMARK    5  A    between atoms: C_12  and  C_16
REMARK    6  A    between atoms: C_17  and  C_18
REMARK                            x       y       z     vdW  Elec       q    Type
REMARK                         _______ _______ _______ _____ _____    ______ ____
ROOT
ATOM      2  O   UNL     1      -7.437 -10.601  13.349  0.00  0.00    -0.371 OA
ATOM      8  C   UNL     1      -9.709 -10.781  14.020  0.00  0.00    +0.111 C 
ATOM      9  C   UNL     1      -9.653 -10.234  12.606  0.00  0.00    +0.164 C 
ATOM     12  C   UNL     1      -8.262 -10.679  12.175  0.00  0.00    +0.165 C 
ATOM     15  C   UNL     1      -8.292 -10.514  14.503  0.00  0.00    +0.181 C 
ENDROOT
BRANCH   9   3
ATOM      3  O   UNL     1     -10.660 -10.771  11.772  0.00  0.00    -0.388 OA
ATOM     25  H   UNL     1     -11.280 -10.059  11.542  0.00  0.00    +0.210 HD
ENDBRANCH   9   3
BRANCH   8   5
ATOM      5  N   UNL     1     -10.720 -10.147  14.851  0.00  0.00    -0.306 NA
ATOM     24  H   UNL     1     -11.095 -10.815  15.521  0.00  0.00    +0.123 HD
BRANCH   5   7
ATOM      7  C   UNL     1     -10.176  -8.993  15.545  0.00  0.00    +0.054 C 
ATOM     10  C   UNL     1     -10.644  -8.901  16.993  0.00  0.00    +0.019 C 
ATOM     11  C   UNL     1     -10.661  -7.672  14.961  0.00  0.00    +0.019 C 
ATOM     13  C   UNL     1     -10.353  -7.453  17.374  0.00  0.00    +0.002 C 
ATOM     14  C   UNL     1     -10.363  -6.660  16.065  0.00  0.00    +0.002 C 
ENDBRANCH   5   7
ENDBRANCH   8   5
BRANCH  12  16
ATOM     16  C   UNL     1      -7.670  -9.817  11.074  0.00  0.00    +0.138 C 
BRANCH  16   6
ATOM      4  O   UNL     1      -5.629 -10.443   9.153  0.00  0.00    -0.270 OA
ATOM      6  N   UNL     1      -6.254  -9.653  11.244  0.00  0.00    -0.309 N 
ATOM     17  C   UNL     1      -5.333  -9.984  10.254  0.00  0.00    +0.244 C 
ATOM     26  H   UNL     1      -5.938  -9.346  12.157  0.00  0.00    +0.149 HD
BRANCH  17  18
ATOM      1  F   UNL     1       0.076  -9.212  11.543  0.00  0.00    -0.205 F 
ATOM     18  C   UNL     1      -3.902  -9.780  10.595  0.00  0.00    +0.037 A 
ATOM     19  C   UNL     1      -3.130  -8.884   9.855  0.00  0.00    +0.016 A 
ATOM     20  C   UNL     1      -3.330 -10.485  11.654  0.00  0.00    +0.016 A 
ATOM     21  C   UNL     1      -1.786  -8.692  10.176  0.00  0.00    +0.039 A 
ATOM     22  C   UNL     1      -1.986 -10.293  11.974  0.00  0.00    +0.039 A 
ATOM     23  C   UNL     1      -1.215  -9.396  11.235  0.00  0.00    +0.123 A 
ENDBRANCH  17  18
ENDBRANCH  16   6
ENDBRANCH  12  16
TORSDOF 6
ENDMDL
MODEL 6
REMARK VINA RESULT:      -3.4      1.773      2.784
REMARK  Name = 75367087
REMARK  6 active torsions:
REMARK  status: ('A' for Active; 'I' for Inactive)
REMARK    1  A    between atoms: O_3  and  C_9
REMARK    2  A    between atoms: N_5  and  C_7
REMARK    3  A    between atoms: N_5  and  C_8
REMARK    4  A    between atoms: N_6  and  C_16
REMARK    5  A    between atoms: C_12  and  C_16
REMARK    6  A    between atoms: C_17  and  C_18
REMARK                            x       y       z     vdW  Elec       q    Type
REMARK                         _______ _______ _______ _____ _____    ______ ____
ROOT
ATOM      2  O   UNL     1      -1.509  -2.667  23.877  0.00  0.00    -0.371 OA
ATOM      8  C   UNL     1       0.068  -0.910  24.144  0.00  0.00    +0.111 C 
ATOM      9  C   UNL     1      -1.069  -0.707  25.128  0.00  0.00    +0.164 C 
ATOM     12  C   UNL     1      -1.651  -2.113  25.196  0.00  0.00    +0.165 C 
ATOM     15  C   UNL     1      -0.565  -1.865  23.145  0.00  0.00    +0.181 C 
ENDROOT
BRANCH   9   3
ATOM      3  O   UNL     1      -0.624  -0.260  26.393  0.00  0.00    -0.388 OA
ATOM     25  H   UNL     1      -0.424  -1.038  26.941  0.00  0.00    +0.210 HD
ENDBRANCH   9   3
BRANCH   8   5
ATOM      5  N   UNL     1       0.534   0.324  23.531  0.00  0.00    -0.306 NA
ATOM     24  H   UNL     1       0.579   1.067  24.225  0.00  0.00    +0.123 HD
BRANCH   5   7
ATOM      7  C   UNL     1       1.833   0.139  22.909  0.00  0.00    +0.054 C 
ATOM     10  C   UNL     1       2.684  -0.908  23.621  0.00  0.00    +0.019 C 
ATOM     11  C   UNL     1       2.710   1.383  22.994  0.00  0.00    +0.019 C 
ATOM     13  C   UNL     1       4.097  -0.624  23.121  0.00  0.00    +0.002 C 
ATOM     14  C   UNL     1       4.114   0.853  22.717  0.00  0.00    +0.002 C 
ENDBRANCH   5   7
ENDBRANCH   8   5
BRANCH  12  16
ATOM     16  C   UNL     1      -3.112  -2.139  25.608  0.00  0.00    +0.138 C 
BRANCH  16   6
ATOM      4  O   UNL     1      -4.069  -0.495  23.456  0.00  0.00    -0.270 OA
ATOM      6  N   UNL     1      -3.647  -0.811  25.716  0.00  0.00    -0.309 N 
ATOM     17  C   UNL     1      -4.090  -0.085  24.614  0.00  0.00    +0.244 C 
ATOM     26  H   UNL     1      -3.627  -0.386  26.636  0.00  0.00    +0.149 HD
BRANCH  17  18
ATOM      1  F   UNL     1      -5.989   5.094  25.654  0.00  0.00    -0.205 F 
ATOM     18  C   UNL     1      -4.592   1.285  24.890  0.00  0.00    +0.037 A 
ATOM     19  C   UNL     1      -3.876   2.394  24.439  0.00  0.00    +0.016 A 
ATOM     20  C   UNL     1      -5.779   1.463  25.600  0.00  0.00    +0.016 A 
ATOM     21  C   UNL     1      -4.347   3.681  24.696  0.00  0.00    +0.039 A 
ATOM     22  C   UNL     1      -6.251   2.750  25.858  0.00  0.00    +0.039 A 
ATOM     23  C   UNL     1      -5.535   3.859  25.406  0.00  0.00    +0.123 A 
ENDBRANCH  17  18
ENDBRANCH  16   6
ENDBRANCH  12  16
TORSDOF 6
ENDMDL
MODEL 7
REMARK VINA RESULT:      -3.1      1.707      3.811
REMARK  Name = 75367087
REMARK  6 active torsions:
REMARK  status: ('A' for Active; 'I' for Inactive)
REMARK    1  A    between atoms: O_3  and  C_9
REMARK    2  A    between atoms: N_5  and  C_7
REMARK    3  A    between atoms: N_5  and  C_8
REMARK    4  A    between atoms: N_6  and  C_16
REMARK    5  A    between atoms: C_12  and  C_16
REMARK    6  A    between atoms: C_17  and  C_18
REMARK                            x       y       z     vdW  Elec       q    Type
REMARK                         _______ _______ _______ _____ _____    ______ ____
ROOT
ATOM      2  O   UNL     1      -0.254   0.982  25.911  0.00  0.00    -0.371 OA
ATOM      8  C   UNL     1      -0.236  -1.254  25.111  0.00  0.00    +0.111 C 
ATOM      9  C   UNL     1      -0.132  -0.307  23.930  0.00  0.00    +0.164 C 
ATOM     12  C   UNL     1       0.368   0.959  24.615  0.00  0.00    +0.165 C 
ATOM     15  C   UNL     1      -0.770  -0.330  26.193  0.00  0.00    +0.181 C 
ENDROOT
BRANCH   9   3
ATOM      3  O   UNL     1       0.770  -0.762  22.942  0.00  0.00    -0.388 OA
ATOM     25  H   UNL     1       0.570  -1.694  22.750  0.00  0.00    +0.210 HD
ENDBRANCH   9   3
BRANCH   8   5
ATOM      5  N   UNL     1      -1.100  -2.398  24.866  0.00  0.00    -0.306 NA
ATOM     24  H   UNL     1      -1.312  -2.874  25.741  0.00  0.00    +0.123 HD
BRANCH   5   7
ATOM      7  C   UNL     1      -2.328  -1.993  24.205  0.00  0.00    +0.054 C 
ATOM     10  C   UNL     1      -3.185  -1.074  25.068  0.00  0.00    +0.019 C 
ATOM     11  C   UNL     1      -3.268  -3.162  23.941  0.00  0.00    +0.019 C 
ATOM     13  C   UNL     1      -4.561  -1.144  24.412  0.00  0.00    +0.002 C 
ATOM     14  C   UNL     1      -4.615  -2.490  23.684  0.00  0.00    +0.002 C 
ENDBRANCH   5   7
ENDBRANCH   8   5
BRANCH  12  16
ATOM     16  C   UNL     1       0.021   2.228  23.857  0.00  0.00    +0.138 C 
BRANCH  16   6
ATOM      4  O   UNL     1      -2.607   1.511  22.947  0.00  0.00    -0.270 OA
ATOM      6  N   UNL     1      -1.223   2.782  24.309  0.00  0.00    -0.309 N 
ATOM     17  C   UNL     1      -2.456   2.372  23.810  0.00  0.00    +0.244 C 
ATOM     26  H   UNL     1      -1.166   3.549  24.969  0.00  0.00    +0.149 HD
BRANCH  17  18
ATOM      1  F   UNL     1      -6.968   4.981  25.898  0.00  0.00    -0.205 F 
ATOM     18  C   UNL     1      -3.650   3.062  24.362  0.00  0.00    +0.037 A 
ATOM     19  C   UNL     1      -4.730   2.317  24.833  0.00  0.00    +0.016 A 
ATOM     20  C   UNL     1      -3.691   4.455  24.408  0.00  0.00    +0.016 A 
ATOM     21  C   UNL     1      -5.851   2.964  25.353  0.00  0.00    +0.039 A 
ATOM     22  C   UNL     1      -4.812   5.104  24.927  0.00  0.00    +0.039 A 
ATOM     23  C   UNL     1      -5.892   4.358  25.399  0.00  0.00    +0.123 A 
ENDBRANCH  17  18
ENDBRANCH  16   6
ENDBRANCH  12  16
TORSDOF 6
ENDMDL
MODEL 8
REMARK VINA RESULT:      -2.5     16.008     18.429
REMARK  Name = 75367087
REMARK  6 active torsions:
REMARK  status: ('A' for Active; 'I' for Inactive)
REMARK    1  A    between atoms: O_3  and  C_9
REMARK    2  A    between atoms: N_5  and  C_7
REMARK    3  A    between atoms: N_5  and  C_8
REMARK    4  A    between atoms: N_6  and  C_16
REMARK    5  A    between atoms: C_12  and  C_16
REMARK    6  A    between atoms: C_17  and  C_18
REMARK                            x       y       z     vdW  Elec       q    Type
REMARK                         _______ _______ _______ _____ _____    ______ ____
ROOT
ATOM      2  O   UNL     1      16.918   5.826  19.281  0.00  0.00    -0.371 OA
ATOM      8  C   UNL     1      15.827   7.149  17.637  0.00  0.00    +0.111 C 
ATOM      9  C   UNL     1      15.471   7.679  19.014  0.00  0.00    +0.164 C 
ATOM     12  C   UNL     1      16.610   7.110  19.850  0.00  0.00    +0.165 C 
ATOM     15  C   UNL     1      16.328   5.754  17.971  0.00  0.00    +0.181 C 
ENDROOT
BRANCH   9   3
ATOM      3  O   UNL     1      15.436   9.091  19.064  0.00  0.00    -0.388 OA
ATOM     25  H   UNL     1      15.738   9.436  18.207  0.00  0.00    +0.210 HD
ENDBRANCH   9   3
BRANCH   8   5
ATOM      5  N   UNL     1      14.708   7.143  16.708  0.00  0.00    -0.306 NA
ATOM     24  H   UNL     1      14.368   6.193  16.573  0.00  0.00    +0.123 HD
BRANCH   5   7
ATOM      7  C   UNL     1      13.634   7.998  17.180  0.00  0.00    +0.054 C 
ATOM     10  C   UNL     1      12.553   7.227  17.928  0.00  0.00    +0.019 C 
ATOM     11  C   UNL     1      12.849   8.639  16.042  0.00  0.00    +0.019 C 
ATOM     13  C   UNL     1      11.362   8.182  17.926  0.00  0.00    +0.002 C 
ATOM     14  C   UNL     1      11.553   9.093  16.710  0.00  0.00    +0.002 C 
ENDBRANCH   5   7
ENDBRANCH   8   5
BRANCH  12  16
ATOM     16  C   UNL     1      16.256   6.949  21.317  0.00  0.00    +0.138 C 
BRANCH  16   6
ATOM      4  O   UNL     1      14.420   9.084  21.877  0.00  0.00    -0.270 OA
ATOM      6  N   UNL     1      14.838   6.833  21.502  0.00  0.00    -0.309 N 
ATOM     17  C   UNL     1      14.021   7.927  21.771  0.00  0.00    +0.244 C 
ATOM     26  H   UNL     1      14.454   5.895  21.497  0.00  0.00    +0.149 HD
BRANCH  17  18
ATOM      1  F   UNL     1       8.563   6.830  22.496  0.00  0.00    -0.205 F 
ATOM     18  C   UNL     1      12.577   7.637  21.962  0.00  0.00    +0.037 A 
ATOM     19  C   UNL     1      12.064   6.388  21.612  0.00  0.00    +0.016 A 
ATOM     20  C   UNL     1      11.734   8.613  22.491  0.00  0.00    +0.016 A 
ATOM     21  C   UNL     1      10.709   6.115  21.792  0.00  0.00    +0.039 A 
ATOM     22  C   UNL     1      10.377   8.341  22.672  0.00  0.00    +0.039 A 
ATOM     23  C   UNL     1       9.865   7.092  22.322  0.00  0.00    +0.123 A 
ENDBRANCH  17  18
ENDBRANCH  16   6
ENDBRANCH  12  16
TORSDOF 6
ENDMDL
MODEL 9
REMARK VINA RESULT:      -2.4      2.100      3.947
REMARK  Name = 75367087
REMARK  6 active torsions:
REMARK  status: ('A' for Active; 'I' for Inactive)
REMARK    1  A    between atoms: O_3  and  C_9
REMARK    2  A    between atoms: N_5  and  C_7
REMARK    3  A    between atoms: N_5  and  C_8
REMARK    4  A    between atoms: N_6  and  C_16
REMARK    5  A    between atoms: C_12  and  C_16
REMARK    6  A    between atoms: C_17  and  C_18
REMARK                            x       y       z     vdW  Elec       q    Type
REMARK                         _______ _______ _______ _____ _____    ______ ____
ROOT
ATOM      2  O   UNL     1       1.159   2.262  24.117  0.00  0.00    -0.371 OA
ATOM      8  C   UNL     1       0.265   0.174  23.423  0.00  0.00    +0.111 C 
ATOM      9  C   UNL     1      -0.861   1.187  23.519  0.00  0.00    +0.164 C 
ATOM     12  C   UNL     1      -0.085   2.495  23.437  0.00  0.00    +0.165 C 
ATOM     15  C   UNL     1       1.343   0.843  24.259  0.00  0.00    +0.181 C 
ENDROOT
BRANCH   9   3
ATOM      3  O   UNL     1      -1.798   1.064  22.467  0.00  0.00    -0.388 OA
ATOM     25  H   UNL     1      -1.595   1.737  21.796  0.00  0.00    +0.210 HD
ENDBRANCH   9   3
BRANCH   8   5
ATOM      5  N   UNL     1      -0.096  -1.146  23.914  0.00  0.00    -0.306 NA
ATOM     24  H   UNL     1       0.529  -1.424  24.668  0.00  0.00    +0.123 HD
BRANCH   5   7
ATOM      7  C   UNL     1      -1.474  -1.175  24.369  0.00  0.00    +0.054 C 
ATOM     10  C   UNL     1      -1.610  -0.882  25.858  0.00  0.00    +0.019 C 
ATOM     11  C   UNL     1      -2.105  -2.558  24.250  0.00  0.00    +0.019 C 
ATOM     13  C   UNL     1      -3.005  -1.396  26.201  0.00  0.00    +0.002 C 
ATOM     14  C   UNL     1      -3.325  -2.476  25.164  0.00  0.00    +0.002 C 
ENDBRANCH   5   7
ENDBRANCH   8   5
BRANCH  12  16
ATOM     16  C   UNL     1      -0.810   3.664  24.080  0.00  0.00    +0.138 C 
BRANCH  16   6
ATOM      4  O   UNL     1      -3.413   3.337  22.911  0.00  0.00    -0.270 OA
ATOM      6  N   UNL     1      -2.003   3.233  24.752  0.00  0.00    -0.309 N 
ATOM     17  C   UNL     1      -3.227   3.101  24.103  0.00  0.00    +0.244 C 
ATOM     26  H   UNL     1      -1.935   3.090  25.753  0.00  0.00    +0.149 HD
BRANCH  17  18
ATOM      1  F   UNL     1      -7.556   1.469  27.283  0.00  0.00    -0.205 F 
ATOM     18  C   UNL     1      -4.373   2.669  24.944  0.00  0.00    +0.037 A 
ATOM     19  C   UNL     1      -4.745   1.326  24.978  0.00  0.00    +0.016 A 
ATOM     20  C   UNL     1      -5.076   3.607  25.699  0.00  0.00    +0.016 A 
ATOM     21  C   UNL     1      -5.820   0.919  25.768  0.00  0.00    +0.039 A 
ATOM     22  C   UNL     1      -6.152   3.202  26.490  0.00  0.00    +0.039 A 
ATOM     23  C   UNL     1      -6.523   1.858  26.524  0.00  0.00    +0.123 A 
ENDBRANCH  17  18
ENDBRANCH  16   6
ENDBRANCH  12  16
TORSDOF 6
ENDMDL
