MODEL 1
REMARK VINA RESULT:      -1.4      0.000      0.000
REMARK  Name = 40779265
REMARK  10 active torsions:
REMARK  status: ('A' for Active; 'I' for Inactive)
REMARK    1  A    between atoms: O_2  and  C_22
REMARK    2  A    between atoms: O_2  and  C_28
REMARK    3  A    between atoms: O_3  and  C_27
REMARK    4  A    between atoms: O_3  and  C_29
REMARK    5  A    between atoms: N_5  and  C_19
REMARK    6  A    between atoms: N_6  and  C_16
REMARK    7  A    between atoms: C_9  and  C_15
REMARK    8  A    between atoms: C_10  and  C_16
REMARK    9  A    between atoms: C_18  and  C_21
REMARK   10  A    between atoms: C_20  and  C_22
REMARK                            x       y       z     vdW  Elec       q    Type
REMARK                         _______ _______ _______ _____ _____    ______ ____
ROOT
ATOM      4  N   UNL     1      -5.446   2.554  26.366  0.00  0.00    -0.297 NA
ATOM      8  C   UNL     1      -5.120   1.746  23.910  0.00  0.00    +0.002 C 
ATOM      9  C   UNL     1      -4.420   0.774  24.900  0.00  0.00    +0.055 C 
ATOM     10  C   UNL     1      -4.961   3.676  25.521  0.00  0.00    +0.074 C 
ATOM     11  C   UNL     1      -4.565   3.170  24.117  0.00  0.00    +0.024 C 
ATOM     12  C   UNL     1      -6.614   1.780  24.302  0.00  0.00    +0.019 C 
ATOM     13  C   UNL     1      -4.484   1.424  26.312  0.00  0.00    +0.094 C 
ATOM     14  C   UNL     1      -6.737   2.088  25.804  0.00  0.00    +0.085 C 
ENDROOT
BRANCH   9  15
ATOM      5  N   UNL     1      -2.644  -1.024  24.677  0.00  0.00    -0.270 N 
ATOM      7  N   UNL     1      -1.368  -1.255  24.321  0.00  0.00    -0.171 NA
ATOM     15  C   UNL     1      -3.022   0.280  24.556  0.00  0.00    +0.044 A 
ATOM     17  C   UNL     1      -1.918   0.950  24.089  0.00  0.00    +0.053 A 
ATOM     18  C   UNL     1      -0.930  -0.045  23.963  0.00  0.00    +0.093 A 
ATOM     19  C   UNL     1      -3.458  -2.126  25.135  0.00  0.00    +0.172 C 
BRANCH  18  21
ATOM     21  C   UNL     1       0.425   0.139  23.510  0.00  0.00    +0.002 A 
ATOM     23  C   UNL     1       1.010  -0.801  22.662  0.00  0.00    +0.013 A 
ATOM     24  C   UNL     1       1.150   1.257  23.919  0.00  0.00    +0.013 A 
ATOM     25  C   UNL     1       2.323  -0.623  22.224  0.00  0.00    +0.046 A 
ATOM     26  C   UNL     1       2.463   1.435  23.481  0.00  0.00    +0.046 A 
ATOM     27  C   UNL     1       3.048   0.496  22.634  0.00  0.00    +0.120 A 
BRANCH  27   3
ATOM      3  O   UNL     1       4.329   0.671  22.207  0.00  0.00    -0.495 OA
ATOM     29  C   UNL     1       5.369   0.226  23.077  0.00  0.00    +0.277 C 
ENDBRANCH  27   3
ENDBRANCH  18  21
ENDBRANCH   9  15
BRANCH  10  16
ATOM     16  C   UNL     1      -3.826   4.457  26.187  0.00  0.00    +0.123 C 
BRANCH  16   6
ATOM      1  O   UNL     1      -1.370   5.546  25.117  0.00  0.00    -0.273 OA
ATOM      6  N   UNL     1      -2.577   3.778  26.029  0.00  0.00    -0.312 N 
ATOM     20  C   UNL     1      -1.437   4.382  25.501  0.00  0.00    +0.239 C 
ATOM     30  H   UNL     1      -2.527   2.804  26.315  0.00  0.00    +0.149 HD
BRANCH  20  22
ATOM     22  C   UNL     1      -0.259   3.432  25.449  0.00  0.00    +0.255 C 
BRANCH  22   2
ATOM      2  O   UNL     1      -0.342   2.478  26.486  0.00  0.00    -0.374 OA
ATOM     28  C   UNL     1       0.717   2.623  27.428  0.00  0.00    +0.194 C 
ENDBRANCH  22   2
ENDBRANCH  20  22
ENDBRANCH  16   6
ENDBRANCH  10  16
TORSDOF 7
ENDMDL
MODEL 2
REMARK VINA RESULT:       0.7      2.160      3.872
REMARK  Name = 40779265
REMARK  10 active torsions:
REMARK  status: ('A' for Active; 'I' for Inactive)
REMARK    1  A    between atoms: O_2  and  C_22
REMARK    2  A    between atoms: O_2  and  C_28
REMARK    3  A    between atoms: O_3  and  C_27
REMARK    4  A    between atoms: O_3  and  C_29
REMARK    5  A    between atoms: N_5  and  C_19
REMARK    6  A    between atoms: N_6  and  C_16
REMARK    7  A    between atoms: C_9  and  C_15
REMARK    8  A    between atoms: C_10  and  C_16
REMARK    9  A    between atoms: C_18  and  C_21
REMARK   10  A    between atoms: C_20  and  C_22
REMARK                            x       y       z     vdW  Elec       q    Type
REMARK                         _______ _______ _______ _____ _____    ______ ____
ROOT
ATOM      4  N   UNL     1      -5.584   1.540  24.014  0.00  0.00    -0.297 NA
ATOM      8  C   UNL     1      -4.065   2.251  26.007  0.00  0.00    +0.002 C 
ATOM      9  C   UNL     1      -3.505   2.810  24.670  0.00  0.00    +0.055 C 
ATOM     10  C   UNL     1      -5.249   0.355  24.845  0.00  0.00    +0.074 C 
ATOM     11  C   UNL     1      -4.186   0.716  25.906  0.00  0.00    +0.024 C 
ATOM     12  C   UNL     1      -5.496   2.810  26.158  0.00  0.00    +0.019 C 
ATOM     13  C   UNL     1      -4.340   2.182  23.518  0.00  0.00    +0.094 C 
ATOM     14  C   UNL     1      -6.294   2.514  24.877  0.00  0.00    +0.085 C 
ENDROOT
BRANCH   9  15
ATOM      5  N   UNL     1      -1.143   3.737  24.646  0.00  0.00    -0.270 N 
ATOM      7  N   UNL     1       0.138   3.443  24.361  0.00  0.00    -0.171 NA
ATOM     15  C   UNL     1      -2.007   2.707  24.418  0.00  0.00    +0.044 A 
ATOM     17  C   UNL     1      -1.240   1.668  23.951  0.00  0.00    +0.053 A 
ATOM     18  C   UNL     1       0.072   2.179  23.937  0.00  0.00    +0.093 A 
ATOM     19  C   UNL     1      -1.471   5.053  25.142  0.00  0.00    +0.172 C 
BRANCH  18  21
ATOM     21  C   UNL     1       1.263   1.481  23.524  0.00  0.00    +0.002 A 
ATOM     23  C   UNL     1       1.215   0.112  23.268  0.00  0.00    +0.013 A 
ATOM     24  C   UNL     1       2.463   2.177  23.382  0.00  0.00    +0.013 A 
ATOM     25  C   UNL     1       2.370  -0.563  22.869  0.00  0.00    +0.046 A 
ATOM     26  C   UNL     1       3.617   1.502  22.984  0.00  0.00    +0.046 A 
ATOM     27  C   UNL     1       3.570   0.133  22.727  0.00  0.00    +0.120 A 
BRANCH  27   3
ATOM      3  O   UNL     1       4.697  -0.525  22.338  0.00  0.00    -0.495 OA
ATOM     29  C   UNL     1       5.885  -0.275  23.088  0.00  0.00    +0.277 C 
ENDBRANCH  27   3
ENDBRANCH  18  21
ENDBRANCH   9  15
BRANCH  10  16
ATOM     16  C   UNL     1      -4.824  -0.848  24.000  0.00  0.00    +0.123 C 
BRANCH  16   6
ATOM      1  O   UNL     1      -3.323  -3.087  25.047  0.00  0.00    -0.273 OA
ATOM      6  N   UNL     1      -3.403  -1.005  24.011  0.00  0.00    -0.312 N 
ATOM     20  C   UNL     1      -2.758  -2.122  24.539  0.00  0.00    +0.239 C 
ATOM     30  H   UNL     1      -2.840  -0.257  23.615  0.00  0.00    +0.149 HD
BRANCH  20  22
ATOM     22  C   UNL     1      -1.253  -2.024  24.418  0.00  0.00    +0.255 C 
BRANCH  22   2
ATOM      2  O   UNL     1      -0.659  -1.876  25.691  0.00  0.00    -0.374 OA
ATOM     28  C   UNL     1      -1.018  -0.641  26.305  0.00  0.00    +0.194 C 
ENDBRANCH  22   2
ENDBRANCH  20  22
ENDBRANCH  16   6
ENDBRANCH  10  16
TORSDOF 7
ENDMDL
MODEL 3
REMARK VINA RESULT:       0.8      2.477      3.896
REMARK  Name = 40779265
REMARK  10 active torsions:
REMARK  status: ('A' for Active; 'I' for Inactive)
REMARK    1  A    between atoms: O_2  and  C_22
REMARK    2  A    between atoms: O_2  and  C_28
REMARK    3  A    between atoms: O_3  and  C_27
REMARK    4  A    between atoms: O_3  and  C_29
REMARK    5  A    between atoms: N_5  and  C_19
REMARK    6  A    between atoms: N_6  and  C_16
REMARK    7  A    between atoms: C_9  and  C_15
REMARK    8  A    between atoms: C_10  and  C_16
REMARK    9  A    between atoms: C_18  and  C_21
REMARK   10  A    between atoms: C_20  and  C_22
REMARK                            x       y       z     vdW  Elec       q    Type
REMARK                         _______ _______ _______ _____ _____    ______ ____
ROOT
ATOM      4  N   UNL     1      -4.378   3.271  24.317  0.00  0.00    -0.297 NA
ATOM      8  C   UNL     1      -2.217   3.215  25.772  0.00  0.00    +0.002 C 
ATOM      9  C   UNL     1      -1.857   3.180  24.260  0.00  0.00    +0.055 C 
ATOM     10  C   UNL     1      -4.496   2.222  25.364  0.00  0.00    +0.074 C 
ATOM     11  C   UNL     1      -3.152   2.033  26.100  0.00  0.00    +0.024 C 
ATOM     12  C   UNL     1      -3.025   4.510  26.006  0.00  0.00    +0.019 C 
ATOM     13  C   UNL     1      -3.186   3.012  23.471  0.00  0.00    +0.094 C 
ATOM     14  C   UNL     1      -4.186   4.573  24.999  0.00  0.00    +0.085 C 
ENDROOT
BRANCH   9  15
ATOM      5  N   UNL     1      -1.023   1.213  22.891  0.00  0.00    -0.270 N 
ATOM      7  N   UNL     1       0.056   0.458  22.617  0.00  0.00    -0.171 NA
ATOM     15  C   UNL     1      -0.785   2.202  23.799  0.00  0.00    +0.044 A 
ATOM     17  C   UNL     1       0.539   2.086  24.144  0.00  0.00    +0.053 A 
ATOM     18  C   UNL     1       1.006   0.996  23.385  0.00  0.00    +0.093 A 
ATOM     19  C   UNL     1      -2.274   0.921  22.232  0.00  0.00    +0.172 C 
BRANCH  18  21
ATOM     21  C   UNL     1       2.342   0.458  23.382  0.00  0.00    +0.002 A 
ATOM     23  C   UNL     1       3.422   1.277  23.053  0.00  0.00    +0.013 A 
ATOM     24  C   UNL     1       2.554  -0.881  23.707  0.00  0.00    +0.013 A 
ATOM     25  C   UNL     1       4.716   0.754  23.049  0.00  0.00    +0.046 A 
ATOM     26  C   UNL     1       3.848  -1.403  23.703  0.00  0.00    +0.046 A 
ATOM     27  C   UNL     1       4.928  -0.586  23.374  0.00  0.00    +0.120 A 
BRANCH  27   3
ATOM      3  O   UNL     1       6.190  -1.096  23.370  0.00  0.00    -0.495 OA
ATOM     29  C   UNL     1       7.250  -0.202  23.034  0.00  0.00    +0.277 C 
ENDBRANCH  27   3
ENDBRANCH  18  21
ENDBRANCH   9  15
BRANCH  10  16
ATOM     16  C   UNL     1      -5.033   0.902  24.807  0.00  0.00    +0.123 C 
BRANCH  16   6
ATOM      1  O   UNL     1      -4.336  -1.509  23.371  0.00  0.00    -0.273 OA
ATOM      6  N   UNL     1      -4.273  -0.206  25.297  0.00  0.00    -0.312 N 
ATOM     20  C   UNL     1      -3.981  -1.335  24.534  0.00  0.00    +0.239 C 
ATOM     30  H   UNL     1      -3.933  -0.162  26.255  0.00  0.00    +0.149 HD
BRANCH  20  22
ATOM     22  C   UNL     1      -3.162  -2.350  25.302  0.00  0.00    +0.255 C 
BRANCH  22   2
ATOM      2  O   UNL     1      -1.875  -2.482  24.737  0.00  0.00    -0.374 OA
ATOM     28  C   UNL     1      -0.962  -1.524  25.265  0.00  0.00    +0.194 C 
ENDBRANCH  22   2
ENDBRANCH  20  22
ENDBRANCH  16   6
ENDBRANCH  10  16
TORSDOF 7
ENDMDL
