MODEL 1
REMARK VINA RESULT:      -2.3      0.000      0.000
REMARK  Name = 26744606
REMARK  8 active torsions:
REMARK  status: ('A' for Active; 'I' for Inactive)
REMARK    1  A    between atoms: O_3  and  C_12
REMARK    2  A    between atoms: N_6  and  C_14
REMARK    3  A    between atoms: N_9  and  C_23
REMARK    4  A    between atoms: C_10  and  C_15
REMARK    5  A    between atoms: C_14  and  C_16
REMARK    6  A    between atoms: C_17  and  C_20
REMARK    7  A    between atoms: C_20  and  C_24
REMARK    8  A    between atoms: C_29  and  C_31
REMARK                            x       y       z     vdW  Elec       q    Type
REMARK                         _______ _______ _______ _____ _____    ______ ____
ROOT
ATOM      6  N   UNL     1      -4.456 -10.281  11.254  0.00  0.00    -0.285 NA
ATOM     10  C   UNL     1      -5.390  -9.222  11.686  0.00  0.00    +0.149 C 
ATOM     11  C   UNL     1      -5.752  -8.465  10.394  0.00  0.00    +0.061 C 
ATOM     12  C   UNL     1      -4.937  -9.143   9.299  0.00  0.00    +0.130 C 
ATOM     13  C   UNL     1      -3.786  -9.780  10.055  0.00  0.00    +0.116 C 
ENDROOT
BRANCH  10  15
ATOM      4  O   UNL     1      -7.554 -10.358  11.624  0.00  0.00    -0.336 OA
ATOM      7  N   UNL     1      -6.887  -9.770  13.681  0.00  0.00    -0.194 NA
ATOM      8  N   UNL     1      -8.564 -10.781  12.497  0.00  0.00    -0.061 NA
ATOM     15  C   UNL     1      -6.605  -9.773  12.402  0.00  0.00    +0.245 A 
ATOM     17  C   UNL     1      -8.098 -10.398  13.690  0.00  0.00    +0.176 A 
BRANCH  17  20
ATOM     20  C   UNL     1      -8.844 -10.640  14.930  0.00  0.00    +0.116 C 
BRANCH  20  24
ATOM      1 CL   UNL     1      -8.196 -10.287  17.938  0.00  0.00    -0.083 Cl
ATOM      2  F   UNL     1     -10.719  -5.936  17.444  0.00  0.00    -0.205 F 
ATOM     24  C   UNL     1      -9.337  -9.380  15.635  0.00  0.00    -0.021 A 
ATOM     25  C   UNL     1      -9.084  -9.152  16.988  0.00  0.00    +0.047 A 
ATOM     26  C   UNL     1     -10.059  -8.445  14.894  0.00  0.00    +0.008 A 
ATOM     27  C   UNL     1      -9.550  -7.989  17.599  0.00  0.00    +0.058 A 
ATOM     28  C   UNL     1     -10.525  -7.280  15.505  0.00  0.00    +0.039 A 
ATOM     30  C   UNL     1     -10.271  -7.053  16.857  0.00  0.00    +0.125 A 
ENDBRANCH  20  24
ENDBRANCH  17  20
ENDBRANCH  10  15
BRANCH  12   3
ATOM      3  O   UNL     1      -4.484  -8.195   8.353  0.00  0.00    -0.390 OA
ATOM     32  H   UNL     1      -3.783  -8.617   7.828  0.00  0.00    +0.210 HD
ENDBRANCH  12   3
BRANCH   6  14
ATOM     14  C   UNL     1      -3.506 -10.667  12.291  0.00  0.00    +0.120 C 
BRANCH  14  16
ATOM     16  C   UNL     1      -2.206  -9.921  12.166  0.00  0.00    -0.033 A 
ATOM     18  C   UNL     1      -1.686  -9.630  10.904  0.00  0.00    +0.007 A 
ATOM     19  C   UNL     1      -1.518  -9.520  13.312  0.00  0.00    +0.007 A 
ATOM     21  C   UNL     1      -0.480  -8.940  10.788  0.00  0.00    +0.023 A 
ATOM     22  C   UNL     1      -0.312  -8.830  13.196  0.00  0.00    +0.023 A 
ATOM     23  C   UNL     1       0.208  -8.540  11.934  0.00  0.00    +0.033 A 
BRANCH  23   9
ATOM      5  O   UNL     1       0.935  -5.730  12.733  0.00  0.00    -0.276 OA
ATOM      9  N   UNL     1       1.414  -7.850  11.819  0.00  0.00    -0.286 N 
ATOM     29  C   UNL     1       1.698  -6.534  12.208  0.00  0.00    +0.214 C 
ATOM     31  C   UNL     1       3.128  -6.159  11.911  0.00  0.00    +0.109 C 
ATOM     33  H   UNL     1       2.174  -8.376  11.392  0.00  0.00    +0.155 HD
ENDBRANCH  23   9
ENDBRANCH  14  16
ENDBRANCH   6  14
TORSDOF 7
ENDMDL
MODEL 2
REMARK VINA RESULT:       0.9     14.335     16.252
REMARK  Name = 26744606
REMARK  8 active torsions:
REMARK  status: ('A' for Active; 'I' for Inactive)
REMARK    1  A    between atoms: O_3  and  C_12
REMARK    2  A    between atoms: N_6  and  C_14
REMARK    3  A    between atoms: N_9  and  C_23
REMARK    4  A    between atoms: C_10  and  C_15
REMARK    5  A    between atoms: C_14  and  C_16
REMARK    6  A    between atoms: C_17  and  C_20
REMARK    7  A    between atoms: C_20  and  C_24
REMARK    8  A    between atoms: C_29  and  C_31
REMARK                            x       y       z     vdW  Elec       q    Type
REMARK                         _______ _______ _______ _____ _____    ______ ____
ROOT
ATOM      6  N   UNL     1      -3.434  -1.649  25.614  0.00  0.00    -0.285 NA
ATOM     10  C   UNL     1      -3.572  -0.869  24.368  0.00  0.00    +0.149 C 
ATOM     11  C   UNL     1      -4.311  -1.807  23.395  0.00  0.00    +0.061 C 
ATOM     12  C   UNL     1      -4.504  -3.105  24.170  0.00  0.00    +0.130 C 
ATOM     13  C   UNL     1      -3.411  -3.056  25.221  0.00  0.00    +0.116 C 
ENDROOT
BRANCH  10  15
ATOM      4  O   UNL     1      -5.647   0.376  24.714  0.00  0.00    -0.336 OA
ATOM      7  N   UNL     1      -3.812   1.658  24.650  0.00  0.00    -0.194 NA
ATOM      8  N   UNL     1      -6.087   1.694  24.893  0.00  0.00    -0.061 NA
ATOM     15  C   UNL     1      -4.297   0.443  24.579  0.00  0.00    +0.245 A 
ATOM     17  C   UNL     1      -4.946   2.390  24.843  0.00  0.00    +0.176 A 
BRANCH  17  20
ATOM     20  C   UNL     1      -4.921   3.850  24.986  0.00  0.00    +0.116 C 
BRANCH  20  24
ATOM      1 CL   UNL     1      -4.402   6.117  22.940  0.00  0.00    -0.083 Cl
ATOM      2  F   UNL     1       0.271   6.086  24.865  0.00  0.00    -0.205 F 
ATOM     24  C   UNL     1      -3.529   4.473  24.931  0.00  0.00    -0.021 A 
ATOM     25  C   UNL     1      -3.221   5.497  24.035  0.00  0.00    +0.047 A 
ATOM     26  C   UNL     1      -2.552   3.993  25.803  0.00  0.00    +0.008 A 
ATOM     27  C   UNL     1      -1.938   6.043  24.014  0.00  0.00    +0.058 A 
ATOM     28  C   UNL     1      -1.268   4.538  25.782  0.00  0.00    +0.039 A 
ATOM     30  C   UNL     1      -0.962   5.563  24.887  0.00  0.00    +0.125 A 
ENDBRANCH  20  24
ENDBRANCH  17  20
ENDBRANCH  10  15
BRANCH  12   3
ATOM      3  O   UNL     1      -4.363  -4.224  23.317  0.00  0.00    -0.390 OA
ATOM     32  H   UNL     1      -4.114  -3.892  22.438  0.00  0.00    +0.210 HD
ENDBRANCH  12   3
BRANCH   6  14
ATOM     14  C   UNL     1      -2.261  -1.278  26.396  0.00  0.00    +0.120 C 
BRANCH  14  16
ATOM     16  C   UNL     1      -1.172  -0.701  25.533  0.00  0.00    -0.033 A 
ATOM     18  C   UNL     1      -0.495  -1.515  24.626  0.00  0.00    +0.007 A 
ATOM     19  C   UNL     1      -0.837   0.649  25.642  0.00  0.00    +0.007 A 
ATOM     21  C   UNL     1       0.516  -0.981  23.827  0.00  0.00    +0.023 A 
ATOM     22  C   UNL     1       0.174   1.183  24.844  0.00  0.00    +0.023 A 
ATOM     23  C   UNL     1       0.851   0.368  23.937  0.00  0.00    +0.033 A 
BRANCH  23   9
ATOM      5  O   UNL     1       3.598  -0.684  23.295  0.00  0.00    -0.276 OA
ATOM      9  N   UNL     1       1.862   0.904  23.139  0.00  0.00    -0.286 N 
ATOM     29  C   UNL     1       3.130   0.369  22.875  0.00  0.00    +0.214 C 
ATOM     31  C   UNL     1       3.933   1.259  21.959  0.00  0.00    +0.109 C 
ATOM     33  H   UNL     1       1.641   1.797  22.704  0.00  0.00    +0.155 HD
ENDBRANCH  23   9
ENDBRANCH  14  16
ENDBRANCH   6  14
TORSDOF 7
ENDMDL
MODEL 3
REMARK VINA RESULT:       1.0     14.431     16.678
REMARK  Name = 26744606
REMARK  8 active torsions:
REMARK  status: ('A' for Active; 'I' for Inactive)
REMARK    1  A    between atoms: O_3  and  C_12
REMARK    2  A    between atoms: N_6  and  C_14
REMARK    3  A    between atoms: N_9  and  C_23
REMARK    4  A    between atoms: C_10  and  C_15
REMARK    5  A    between atoms: C_14  and  C_16
REMARK    6  A    between atoms: C_17  and  C_20
REMARK    7  A    between atoms: C_20  and  C_24
REMARK    8  A    between atoms: C_29  and  C_31
REMARK                            x       y       z     vdW  Elec       q    Type
REMARK                         _______ _______ _______ _____ _____    ______ ____
ROOT
ATOM      6  N   UNL     1      -3.959   4.133  25.733  0.00  0.00    -0.285 NA
ATOM     10  C   UNL     1      -4.926   3.041  25.958  0.00  0.00    +0.149 C 
ATOM     11  C   UNL     1      -6.300   3.659  25.638  0.00  0.00    +0.061 C 
ATOM     12  C   UNL     1      -6.006   5.112  25.287  0.00  0.00    +0.130 C 
ATOM     13  C   UNL     1      -4.680   5.381  25.973  0.00  0.00    +0.116 C 
ENDROOT
BRANCH  10  15
ATOM      4  O   UNL     1      -4.558   1.999  23.778  0.00  0.00    -0.336 OA
ATOM      7  N   UNL     1      -4.421   0.579  25.504  0.00  0.00    -0.194 NA
ATOM      8  N   UNL     1      -4.277   0.742  23.226  0.00  0.00    -0.061 NA
ATOM     15  C   UNL     1      -4.626   1.815  25.122  0.00  0.00    +0.245 A 
ATOM     17  C   UNL     1      -4.211  -0.041  24.307  0.00  0.00    +0.176 A 
BRANCH  17  20
ATOM     20  C   UNL     1      -3.931  -1.478  24.209  0.00  0.00    +0.116 C 
BRANCH  20  24
ATOM      1 CL   UNL     1      -2.815  -4.178  23.178  0.00  0.00    -0.083 Cl
ATOM      2  F   UNL     1       1.315  -2.879  25.787  0.00  0.00    -0.205 F 
ATOM     24  C   UNL     1      -2.517  -1.883  24.618  0.00  0.00    -0.021 A 
ATOM     25  C   UNL     1      -1.948  -3.083  24.193  0.00  0.00    +0.047 A 
ATOM     26  C   UNL     1      -1.792  -1.019  25.439  0.00  0.00    +0.008 A 
ATOM     27  C   UNL     1      -0.654  -3.420  24.587  0.00  0.00    +0.058 A 
ATOM     28  C   UNL     1      -0.497  -1.355  25.834  0.00  0.00    +0.039 A 
ATOM     30  C   UNL     1       0.072  -2.556  25.408  0.00  0.00    +0.125 A 
ENDBRANCH  20  24
ENDBRANCH  17  20
ENDBRANCH  10  15
BRANCH  12   3
ATOM      3  O   UNL     1      -7.030   5.961  25.769  0.00  0.00    -0.390 OA
ATOM     32  H   UNL     1      -6.752   6.288  26.641  0.00  0.00    +0.210 HD
ENDBRANCH  12   3
BRANCH   6  14
ATOM     14  C   UNL     1      -2.765   4.022  26.562  0.00  0.00    +0.120 C 
BRANCH  14  16
ATOM     16  C   UNL     1      -1.629   3.368  25.823  0.00  0.00    -0.033 A 
ATOM     18  C   UNL     1      -1.571   3.433  24.431  0.00  0.00    +0.007 A 
ATOM     19  C   UNL     1      -0.633   2.693  26.530  0.00  0.00    +0.007 A 
ATOM     21  C   UNL     1      -0.520   2.826  23.746  0.00  0.00    +0.023 A 
ATOM     22  C   UNL     1       0.418   2.085  25.845  0.00  0.00    +0.023 A 
ATOM     23  C   UNL     1       0.475   2.150  24.452  0.00  0.00    +0.033 A 
BRANCH  23   9
ATOM      5  O   UNL     1       0.526  -0.342  22.764  0.00  0.00    -0.276 OA
ATOM      9  N   UNL     1       1.527   1.542  23.768  0.00  0.00    -0.286 N 
ATOM     29  C   UNL     1       1.495   0.374  22.994  0.00  0.00    +0.214 C 
ATOM     31  C   UNL     1       2.850   0.046  22.420  0.00  0.00    +0.109 C 
ATOM     33  H   UNL     1       2.426   2.010  23.854  0.00  0.00    +0.155 HD
ENDBRANCH  23   9
ENDBRANCH  14  16
ENDBRANCH   6  14
TORSDOF 7
ENDMDL
MODEL 4
REMARK VINA RESULT:       1.6     14.451     16.332
REMARK  Name = 26744606
REMARK  8 active torsions:
REMARK  status: ('A' for Active; 'I' for Inactive)
REMARK    1  A    between atoms: O_3  and  C_12
REMARK    2  A    between atoms: N_6  and  C_14
REMARK    3  A    between atoms: N_9  and  C_23
REMARK    4  A    between atoms: C_10  and  C_15
REMARK    5  A    between atoms: C_14  and  C_16
REMARK    6  A    between atoms: C_17  and  C_20
REMARK    7  A    between atoms: C_20  and  C_24
REMARK    8  A    between atoms: C_29  and  C_31
REMARK                            x       y       z     vdW  Elec       q    Type
REMARK                         _______ _______ _______ _____ _____    ______ ____
ROOT
ATOM      6  N   UNL     1      -2.449  -0.711  23.890  0.00  0.00    -0.285 NA
ATOM     10  C   UNL     1      -3.911  -0.544  23.999  0.00  0.00    +0.149 C 
ATOM     11  C   UNL     1      -4.401  -1.815  24.718  0.00  0.00    +0.061 C 
ATOM     12  C   UNL     1      -3.147  -2.655  24.930  0.00  0.00    +0.130 C 
ATOM     13  C   UNL     1      -2.197  -2.151  23.860  0.00  0.00    +0.116 C 
ENDROOT
BRANCH  10  15
ATOM      4  O   UNL     1      -5.602   0.839  25.096  0.00  0.00    -0.336 OA
ATOM      7  N   UNL     1      -3.558   1.753  25.058  0.00  0.00    -0.194 NA
ATOM      8  N   UNL     1      -5.718   2.078  25.739  0.00  0.00    -0.061 NA
ATOM     15  C   UNL     1      -4.300   0.726  24.727  0.00  0.00    +0.245 A 
ATOM     17  C   UNL     1      -4.471   2.556  25.676  0.00  0.00    +0.176 A 
BRANCH  17  20
ATOM     20  C   UNL     1      -4.110   3.863  26.238  0.00  0.00    +0.116 C 
BRANCH  20  24
ATOM      1 CL   UNL     1      -1.497   2.231  26.555  0.00  0.00    -0.083 Cl
ATOM      2  F   UNL     1       0.634   6.156  24.188  0.00  0.00    -0.205 F 
ATOM     24  C   UNL     1      -2.814   4.456  25.694  0.00  0.00    -0.021 A 
ATOM     25  C   UNL     1      -1.598   3.780  25.801  0.00  0.00    +0.047 A 
ATOM     26  C   UNL     1      -2.864   5.707  25.080  0.00  0.00    +0.008 A 
ATOM     27  C   UNL     1      -0.434   4.354  25.291  0.00  0.00    +0.058 A 
ATOM     28  C   UNL     1      -1.699   6.282  24.570  0.00  0.00    +0.039 A 
ATOM     30  C   UNL     1      -0.484   5.604  24.676  0.00  0.00    +0.125 A 
ENDBRANCH  20  24
ENDBRANCH  17  20
ENDBRANCH  10  15
BRANCH  12   3
ATOM      3  O   UNL     1      -3.434  -4.031  24.772  0.00  0.00    -0.390 OA
ATOM     32  H   UNL     1      -3.561  -4.408  25.659  0.00  0.00    +0.210 HD
ENDBRANCH  12   3
BRANCH   6  14
ATOM     14  C   UNL     1      -1.878  -0.031  22.733  0.00  0.00    +0.120 C 
BRANCH  14  16
ATOM     16  C   UNL     1      -0.392   0.165  22.876  0.00  0.00    -0.033 A 
ATOM     18  C   UNL     1       0.108   1.021  23.856  0.00  0.00    +0.007 A 
ATOM     19  C   UNL     1       0.485  -0.509  22.025  0.00  0.00    +0.007 A 
ATOM     21  C   UNL     1       1.484   1.204  23.987  0.00  0.00    +0.023 A 
ATOM     22  C   UNL     1       1.861  -0.326  22.156  0.00  0.00    +0.023 A 
ATOM     23  C   UNL     1       2.362   0.532  23.137  0.00  0.00    +0.033 A 
BRANCH  23   9
ATOM      5  O   UNL     1       4.527  -1.418  23.894  0.00  0.00    -0.276 OA
ATOM      9  N   UNL     1       3.738   0.714  23.266  0.00  0.00    -0.286 N 
ATOM     29  C   UNL     1       4.706  -0.234  23.626  0.00  0.00    +0.214 C 
ATOM     31  C   UNL     1       6.090   0.363  23.654  0.00  0.00    +0.109 C 
ATOM     33  H   UNL     1       4.068   1.658  23.080  0.00  0.00    +0.155 HD
ENDBRANCH  23   9
ENDBRANCH  14  16
ENDBRANCH   6  14
TORSDOF 7
ENDMDL
