MODEL 1
REMARK VINA RESULT:       1.8      0.000      0.000
REMARK  Name = 40777163
REMARK  7 active torsions:
REMARK  status: ('A' for Active; 'I' for Inactive)
REMARK    1  A    between atoms: N_6  and  C_16
REMARK    2  A    between atoms: C_10  and  C_17
REMARK    3  A    between atoms: C_11  and  C_16
REMARK    4  A    between atoms: C_18  and  C_20
REMARK    5  A    between atoms: C_24  and  C_26
REMARK    6  A    between atoms: C_25  and  C_27
REMARK    7  A    between atoms: C_32  and  C_33
REMARK                            x       y       z     vdW  Elec       q    Type
REMARK                         _______ _______ _______ _____ _____    ______ ____
ROOT
ATOM      5  N   UNL     1      -4.670   3.427  25.859  0.00  0.00    -0.297 NA
ATOM      9  C   UNL     1      -5.475   1.573  24.217  0.00  0.00    +0.002 C 
ATOM     10  C   UNL     1      -4.593   0.960  25.340  0.00  0.00    +0.055 C 
ATOM     11  C   UNL     1      -4.399   3.838  24.456  0.00  0.00    +0.074 C 
ATOM     12  C   UNL     1      -4.676   2.671  23.484  0.00  0.00    +0.024 C 
ATOM     13  C   UNL     1      -6.665   2.266  24.914  0.00  0.00    +0.019 C 
ATOM     14  C   UNL     1      -3.990   2.141  26.153  0.00  0.00    +0.094 C 
ATOM     15  C   UNL     1      -6.132   3.220  25.997  0.00  0.00    +0.085 C 
ENDROOT
BRANCH  10  17
ATOM      7  N   UNL     1      -3.913  -1.363  24.980  0.00  0.00    -0.237 NA
ATOM      8  N   UNL     1      -1.693  -1.952  24.251  0.00  0.00    -0.232 NA
ATOM     17  C   UNL     1      -3.540  -0.067  24.946  0.00  0.00    +0.050 A 
ATOM     19  C   UNL     1      -2.279   0.359  24.580  0.00  0.00    +0.052 A 
ATOM     24  C   UNL     1      -1.388  -0.638  24.239  0.00  0.00    +0.075 A 
ATOM     25  C   UNL     1      -2.953  -2.240  24.627  0.00  0.00    +0.127 A 
ATOM     27  C   UNL     1      -3.328  -3.683  24.655  0.00  0.00    +0.088 C 
BRANCH  24  26
ATOM     26  C   UNL     1      -0.036  -0.325  23.840  0.00  0.00    +0.000 A 
ATOM     28  C   UNL     1       0.931  -1.329  23.802  0.00  0.00    +0.010 A 
ATOM     29  C   UNL     1       0.303   0.983  23.494  0.00  0.00    +0.010 A 
ATOM     30  C   UNL     1       2.236  -1.027  23.417  0.00  0.00    +0.013 A 
ATOM     31  C   UNL     1       1.609   1.286  23.109  0.00  0.00    +0.013 A 
ATOM     32  C   UNL     1       2.575   0.282  23.070  0.00  0.00    +0.055 A 
BRANCH  32  33
ATOM      1  F   UNL     1       4.903  -0.260  23.157  0.00  0.00    -0.166 F 
ATOM      2  F   UNL     1       4.367   1.845  23.069  0.00  0.00    -0.166 F 
ATOM      3  F   UNL     1       4.160   0.590  21.305  0.00  0.00    -0.166 F 
ATOM     33  C   UNL     1       3.972   0.605  22.658  0.00  0.00    +0.417 C 
ENDBRANCH  32  33
ENDBRANCH  24  26
ENDBRANCH  10  17
BRANCH  11  16
ATOM     16  C   UNL     1      -2.989   4.406  24.278  0.00  0.00    +0.123 C 
BRANCH  16   6
ATOM      4  O   UNL     1      -0.223   5.033  24.719  0.00  0.00    -0.276 OA
ATOM      6  N   UNL     1      -2.023   3.596  24.952  0.00  0.00    -0.314 N 
ATOM     20  C   UNL     1      -0.689   3.966  25.130  0.00  0.00    +0.216 C 
ATOM     34  H   UNL     1      -2.328   2.697  25.316  0.00  0.00    +0.149 HD
BRANCH  20  18
ATOM     18  C   UNL     1       0.154   2.916  25.878  0.00  0.00    +0.075 C 
ATOM     21  C   UNL     1       0.934   3.389  27.123  0.00  0.00    +0.013 C 
ATOM     22  C   UNL     1      -0.592   1.939  26.810  0.00  0.00    +0.013 C 
ATOM     23  C   UNL     1       0.640   2.004  27.737  0.00  0.00    +0.001 C 
ENDBRANCH  20  18
ENDBRANCH  16   6
ENDBRANCH  11  16
TORSDOF 6
ENDMDL
MODEL 2
REMARK VINA RESULT:       4.9      2.252      3.922
REMARK  Name = 40777163
REMARK  7 active torsions:
REMARK  status: ('A' for Active; 'I' for Inactive)
REMARK    1  A    between atoms: N_6  and  C_16
REMARK    2  A    between atoms: C_10  and  C_17
REMARK    3  A    between atoms: C_11  and  C_16
REMARK    4  A    between atoms: C_18  and  C_20
REMARK    5  A    between atoms: C_24  and  C_26
REMARK    6  A    between atoms: C_25  and  C_27
REMARK    7  A    between atoms: C_32  and  C_33
REMARK                            x       y       z     vdW  Elec       q    Type
REMARK                         _______ _______ _______ _____ _____    ______ ____
ROOT
ATOM      5  N   UNL     1      -3.935   4.054  24.066  0.00  0.00    -0.297 NA
ATOM      9  C   UNL     1      -1.725   3.668  25.389  0.00  0.00    +0.002 C 
ATOM     10  C   UNL     1      -1.584   3.150  23.931  0.00  0.00    +0.055 C 
ATOM     11  C   UNL     1      -4.229   3.390  25.362  0.00  0.00    +0.074 C 
ATOM     12  C   UNL     1      -2.922   2.966  26.066  0.00  0.00    +0.024 C 
ATOM     13  C   UNL     1      -2.074   5.169  25.296  0.00  0.00    +0.019 C 
ATOM     14  C   UNL     1      -2.991   3.228  23.272  0.00  0.00    +0.094 C 
ATOM     15  C   UNL     1      -3.280   5.352  24.359  0.00  0.00    +0.085 C 
ENDROOT
BRANCH  10  17
ATOM      7  N   UNL     1      -1.735   0.738  23.550  0.00  0.00    -0.237 NA
ATOM      8  N   UNL     1       0.221  -0.650  23.315  0.00  0.00    -0.232 NA
ATOM     17  C   UNL     1      -0.917   1.799  23.711  0.00  0.00    +0.050 A 
ATOM     19  C   UNL     1       0.460   1.716  23.689  0.00  0.00    +0.052 A 
ATOM     24  C   UNL     1       0.978   0.453  23.485  0.00  0.00    +0.075 A 
ATOM     25  C   UNL     1      -1.108  -0.439  23.360  0.00  0.00    +0.127 A 
ATOM     27  C   UNL     1      -1.979  -1.636  23.179  0.00  0.00    +0.088 C 
BRANCH  24  26
ATOM     26  C   UNL     1       2.405   0.232  23.441  0.00  0.00    +0.000 A 
ATOM     28  C   UNL     1       2.932  -1.000  23.827  0.00  0.00    +0.010 A 
ATOM     29  C   UNL     1       3.256   1.252  23.015  0.00  0.00    +0.010 A 
ATOM     30  C   UNL     1       4.309  -1.214  23.784  0.00  0.00    +0.013 A 
ATOM     31  C   UNL     1       4.633   1.039  22.974  0.00  0.00    +0.013 A 
ATOM     32  C   UNL     1       5.160  -0.193  23.358  0.00  0.00    +0.055 A 
BRANCH  32  33
ATOM      1  F   UNL     1       7.073  -0.928  22.124  0.00  0.00    -0.166 F 
ATOM      2  F   UNL     1       7.057  -1.304  24.266  0.00  0.00    -0.166 F 
ATOM      3  F   UNL     1       7.369   0.712  23.512  0.00  0.00    -0.166 F 
ATOM     33  C   UNL     1       6.634  -0.422  23.314  0.00  0.00    +0.417 C 
ENDBRANCH  32  33
ENDBRANCH  24  26
ENDBRANCH  10  17
BRANCH  11  16
ATOM     16  C   UNL     1      -5.200   2.217  25.208  0.00  0.00    +0.123 C 
BRANCH  16   6
ATOM      4  O   UNL     1      -4.864  -0.327  23.922  0.00  0.00    -0.276 OA
ATOM      6  N   UNL     1      -4.659   1.027  25.789  0.00  0.00    -0.314 N 
ATOM     20  C   UNL     1      -4.525  -0.179  25.100  0.00  0.00    +0.216 C 
ATOM     34  H   UNL     1      -4.361   1.065  26.760  0.00  0.00    +0.149 HD
BRANCH  20  18
ATOM     18  C   UNL     1      -3.925  -1.317  25.948  0.00  0.00    +0.075 C 
ATOM     21  C   UNL     1      -3.550  -2.623  25.218  0.00  0.00    +0.013 C 
ATOM     22  C   UNL     1      -2.438  -1.200  26.343  0.00  0.00    +0.013 C 
ATOM     23  C   UNL     1      -2.356  -2.733  26.190  0.00  0.00    +0.001 C 
ENDBRANCH  20  18
ENDBRANCH  16   6
ENDBRANCH  11  16
TORSDOF 6
ENDMDL
MODEL 3
REMARK VINA RESULT:       5.4      2.070      4.053
REMARK  Name = 40777163
REMARK  7 active torsions:
REMARK  status: ('A' for Active; 'I' for Inactive)
REMARK    1  A    between atoms: N_6  and  C_16
REMARK    2  A    between atoms: C_10  and  C_17
REMARK    3  A    between atoms: C_11  and  C_16
REMARK    4  A    between atoms: C_18  and  C_20
REMARK    5  A    between atoms: C_24  and  C_26
REMARK    6  A    between atoms: C_25  and  C_27
REMARK    7  A    between atoms: C_32  and  C_33
REMARK                            x       y       z     vdW  Elec       q    Type
REMARK                         _______ _______ _______ _____ _____    ______ ____
ROOT
ATOM      5  N   UNL     1      -3.892  -1.413  26.042  0.00  0.00    -0.297 NA
ATOM      9  C   UNL     1      -2.984  -1.910  23.653  0.00  0.00    +0.002 C 
ATOM     10  C   UNL     1      -1.837  -1.420  24.580  0.00  0.00    +0.055 C 
ATOM     11  C   UNL     1      -4.742  -0.739  25.025  0.00  0.00    +0.074 C 
ATOM     12  C   UNL     1      -4.104  -0.849  23.624  0.00  0.00    +0.024 C 
ATOM     13  C   UNL     1      -3.575  -3.176  24.308  0.00  0.00    +0.019 C 
ATOM     14  C   UNL     1      -2.486  -0.955  25.915  0.00  0.00    +0.094 C 
ATOM     15  C   UNL     1      -3.931  -2.870  25.773  0.00  0.00    +0.085 C 
ENDROOT
BRANCH  10  17
ATOM      7  N   UNL     1      -1.378   0.753  23.554  0.00  0.00    -0.237 NA
ATOM      8  N   UNL     1       0.859   1.475  23.023  0.00  0.00    -0.232 NA
ATOM     17  C   UNL     1      -0.855  -0.397  24.028  0.00  0.00    +0.050 A 
ATOM     19  C   UNL     1       0.496  -0.679  24.032  0.00  0.00    +0.052 A 
ATOM     24  C   UNL     1       1.313   0.304  23.513  0.00  0.00    +0.075 A 
ATOM     25  C   UNL     1      -0.478   1.631  23.073  0.00  0.00    +0.127 A 
ATOM     27  C   UNL     1      -1.020   2.914  22.538  0.00  0.00    +0.088 C 
BRANCH  24  26
ATOM     26  C   UNL     1       2.746   0.130  23.459  0.00  0.00    +0.000 A 
ATOM     28  C   UNL     1       3.315  -1.090  23.826  0.00  0.00    +0.010 A 
ATOM     29  C   UNL     1       3.561   1.183  23.043  0.00  0.00    +0.010 A 
ATOM     30  C   UNL     1       4.698  -1.258  23.774  0.00  0.00    +0.013 A 
ATOM     31  C   UNL     1       4.945   1.015  22.992  0.00  0.00    +0.013 A 
ATOM     32  C   UNL     1       5.513  -0.205  23.357  0.00  0.00    +0.055 A 
BRANCH  32  33
ATOM      1  F   UNL     1       7.422  -1.054  22.193  0.00  0.00    -0.166 F 
ATOM      2  F   UNL     1       7.476  -1.091  24.366  0.00  0.00    -0.166 F 
ATOM      3  F   UNL     1       7.687   0.792  23.299  0.00  0.00    -0.166 F 
ATOM     33  C   UNL     1       6.993  -0.385  23.303  0.00  0.00    +0.417 C 
ENDBRANCH  32  33
ENDBRANCH  24  26
ENDBRANCH  10  17
BRANCH  11  16
ATOM     16  C   UNL     1      -5.056   0.711  25.397  0.00  0.00    +0.123 C 
BRANCH  16   6
ATOM      4  O   UNL     1      -4.894   3.542  25.848  0.00  0.00    -0.276 OA
ATOM      6  N   UNL     1      -3.967   1.573  25.057  0.00  0.00    -0.314 N 
ATOM     20  C   UNL     1      -3.957   2.946  25.307  0.00  0.00    +0.216 C 
ATOM     34  H   UNL     1      -3.158   1.159  24.602  0.00  0.00    +0.149 HD
BRANCH  20  18
ATOM     18  C   UNL     1      -2.674   3.656  24.837  0.00  0.00    +0.075 C 
ATOM     21  C   UNL     1      -2.608   5.188  25.006  0.00  0.00    +0.013 C 
ATOM     22  C   UNL     1      -1.440   3.577  25.760  0.00  0.00    +0.013 C 
ATOM     23  C   UNL     1      -1.104   5.013  25.306  0.00  0.00    +0.001 C 
ENDBRANCH  20  18
ENDBRANCH  16   6
ENDBRANCH  11  16
TORSDOF 6
ENDMDL
MODEL 4
REMARK VINA RESULT:       5.4      2.275      4.595
REMARK  Name = 40777163
REMARK  7 active torsions:
REMARK  status: ('A' for Active; 'I' for Inactive)
REMARK    1  A    between atoms: N_6  and  C_16
REMARK    2  A    between atoms: C_10  and  C_17
REMARK    3  A    between atoms: C_11  and  C_16
REMARK    4  A    between atoms: C_18  and  C_20
REMARK    5  A    between atoms: C_24  and  C_26
REMARK    6  A    between atoms: C_25  and  C_27
REMARK    7  A    between atoms: C_32  and  C_33
REMARK                            x       y       z     vdW  Elec       q    Type
REMARK                         _______ _______ _______ _____ _____    ______ ____
ROOT
ATOM      5  N   UNL     1      -6.138   1.433  24.164  0.00  0.00    -0.297 NA
ATOM      9  C   UNL     1      -4.874   2.239  26.294  0.00  0.00    +0.002 C 
ATOM     10  C   UNL     1      -4.527   3.144  25.080  0.00  0.00    +0.055 C 
ATOM     11  C   UNL     1      -5.451   0.285  24.812  0.00  0.00    +0.074 C 
ATOM     12  C   UNL     1      -4.532   0.773  25.952  0.00  0.00    +0.024 C 
ATOM     13  C   UNL     1      -6.404   2.314  26.481  0.00  0.00    +0.019 C 
ATOM     14  C   UNL     1      -5.151   2.486  23.816  0.00  0.00    +0.094 C 
ATOM     15  C   UNL     1      -7.095   2.001  25.143  0.00  0.00    +0.085 C 
ENDROOT
BRANCH  10  17
ATOM      7  N   UNL     1      -2.748   4.824  25.091  0.00  0.00    -0.237 NA
ATOM      8  N   UNL     1      -0.473   4.288  24.503  0.00  0.00    -0.232 NA
ATOM     17  C   UNL     1      -3.070   3.533  24.868  0.00  0.00    +0.050 A 
ATOM     19  C   UNL     1      -2.162   2.574  24.466  0.00  0.00    +0.052 A 
ATOM     24  C   UNL     1      -0.865   3.014  24.298  0.00  0.00    +0.075 A 
ATOM     25  C   UNL     1      -1.451   5.128  24.891  0.00  0.00    +0.127 A 
ATOM     27  C   UNL     1      -1.057   6.547  25.126  0.00  0.00    +0.088 C 
BRANCH  24  26
ATOM     26  C   UNL     1       0.180   2.110  23.878  0.00  0.00    +0.000 A 
ATOM     28  C   UNL     1       1.515   2.509  23.940  0.00  0.00    +0.010 A 
ATOM     29  C   UNL     1      -0.146   0.837  23.408  0.00  0.00    +0.010 A 
ATOM     30  C   UNL     1       2.523   1.636  23.534  0.00  0.00    +0.013 A 
ATOM     31  C   UNL     1       0.862  -0.035  23.002  0.00  0.00    +0.013 A 
ATOM     32  C   UNL     1       2.197   0.364  23.065  0.00  0.00    +0.055 A 
BRANCH  32  33
ATOM      1  F   UNL     1       4.466   0.050  22.376  0.00  0.00    -0.166 F 
ATOM      2  F   UNL     1       2.961  -1.241  21.485  0.00  0.00    -0.166 F 
ATOM      3  F   UNL     1       3.568  -1.535  23.552  0.00  0.00    -0.166 F 
ATOM     33  C   UNL     1       3.276  -0.570  22.630  0.00  0.00    +0.417 C 
ENDBRANCH  32  33
ENDBRANCH  24  26
ENDBRANCH  10  17
BRANCH  11  16
ATOM     16  C   UNL     1      -4.698  -0.588  23.806  0.00  0.00    +0.123 C 
BRANCH  16   6
ATOM      4  O   UNL     1      -4.003  -3.333  24.277  0.00  0.00    -0.276 OA
ATOM      6  N   UNL     1      -3.479  -1.079  24.368  0.00  0.00    -0.314 N 
ATOM     20  C   UNL     1      -3.208  -2.433  24.569  0.00  0.00    +0.216 C 
ATOM     34  H   UNL     1      -2.773  -0.400  24.640  0.00  0.00    +0.149 HD
BRANCH  20  18
ATOM     18  C   UNL     1      -1.829  -2.707  25.199  0.00  0.00    +0.075 C 
ATOM     21  C   UNL     1      -0.619  -2.797  24.246  0.00  0.00    +0.013 C 
ATOM     22  C   UNL     1      -1.111  -1.521  25.877  0.00  0.00    +0.013 C 
ATOM     23  C   UNL     1       0.211  -2.128  25.362  0.00  0.00    +0.001 C 
ENDBRANCH  20  18
ENDBRANCH  16   6
ENDBRANCH  11  16
TORSDOF 6
ENDMDL
