MODEL 1
REMARK VINA RESULT:      -3.8      0.000      0.000
REMARK  Name = 45784201
REMARK  4 active torsions:
REMARK  status: ('A' for Active; 'I' for Inactive)
REMARK    1  A    between atoms: N_3  and  C_9
REMARK    2  A    between atoms: C_5  and  C_10
REMARK    3  A    between atoms: C_9  and  C_11
REMARK    4  A    between atoms: C_19  and  C_25
REMARK                            x       y       z     vdW  Elec       q    Type
REMARK                         _______ _______ _______ _____ _____    ______ ____
ROOT
ATOM      3  N   UNL     1      14.768  -8.609  31.009  0.00  0.00    -0.294 NA
ATOM      5  C   UNL     1      12.791  -9.676  31.682  0.00  0.00    +0.090 C 
ATOM      6  C   UNL     1      13.166 -10.136  30.263  0.00  0.00    +0.029 C 
ATOM      7  C   UNL     1      13.637  -8.418  31.919  0.00  0.00    +0.097 C 
ATOM      8  C   UNL     1      14.174  -9.106  29.767  0.00  0.00    +0.085 C 
ENDROOT
BRANCH   5  10
ATOM      1  O   UNL     1      10.522 -10.550  31.843  0.00  0.00    -0.439 OA
ATOM      4  N   UNL     1      10.693  -8.311  32.149  0.00  0.00    -0.213 NA
ATOM     10  C   UNL     1      11.315  -9.444  31.905  0.00  0.00    +0.201 A 
ATOM     12  C   UNL     1       9.377  -8.689  32.261  0.00  0.00    +0.110 A 
ATOM     13  C   UNL     1       9.268 -10.060  32.074  0.00  0.00    +0.155 A 
ATOM     17  C   UNL     1       8.216  -7.946  32.518  0.00  0.00    +0.035 A 
ATOM     18  C   UNL     1       8.077 -10.773  32.121  0.00  0.00    +0.049 A 
ATOM     19  C   UNL     1       6.993  -8.632  32.573  0.00  0.00    -0.048 A 
ATOM     20  C   UNL     1       6.928 -10.016  32.379  0.00  0.00    +0.007 A 
ATOM     25  C   UNL     1       5.739  -7.868  32.845  0.00  0.00    +0.044 C 
ENDBRANCH   5  10
BRANCH   3   9
ATOM      9  C   UNL     1      15.532  -7.388  30.807  0.00  0.00    +0.158 C 
BRANCH   9  11
ATOM      2  O   UNL     1      16.397  -8.285  28.718  0.00  0.00    -0.458 OA
ATOM     11  C   UNL     1      15.909  -7.193  29.362  0.00  0.00    +0.120 A 
ATOM     14  C   UNL     1      15.867  -6.107  28.519  0.00  0.00    +0.054 A 
ATOM     15  C   UNL     1      16.362  -6.555  27.265  0.00  0.00    +0.020 A 
ATOM     16  C   UNL     1      16.674  -7.899  27.440  0.00  0.00    +0.135 A 
ATOM     21  C   UNL     1      16.580  -5.973  26.004  0.00  0.00    +0.011 A 
ATOM     22  C   UNL     1      17.193  -8.717  26.438  0.00  0.00    +0.047 A 
ATOM     23  C   UNL     1      17.102  -6.771  24.977  0.00  0.00    +0.001 A 
ATOM     24  C   UNL     1      17.403  -8.118  25.192  0.00  0.00    +0.004 A 
ENDBRANCH   9  11
ENDBRANCH   3   9
TORSDOF 3
ENDMDL
MODEL 2
REMARK VINA RESULT:      -1.7      1.875      3.184
REMARK  Name = 45784201
REMARK  4 active torsions:
REMARK  status: ('A' for Active; 'I' for Inactive)
REMARK    1  A    between atoms: N_3  and  C_9
REMARK    2  A    between atoms: C_5  and  C_10
REMARK    3  A    between atoms: C_9  and  C_11
REMARK    4  A    between atoms: C_19  and  C_25
REMARK                            x       y       z     vdW  Elec       q    Type
REMARK                         _______ _______ _______ _____ _____    ______ ____
ROOT
ATOM      3  N   UNL     1      14.018  -9.150  29.606  0.00  0.00    -0.294 NA
ATOM      5  C   UNL     1      12.370  -9.448  31.249  0.00  0.00    +0.090 C 
ATOM      6  C   UNL     1      12.587 -10.769  30.492  0.00  0.00    +0.029 C 
ATOM      7  C   UNL     1      13.027  -8.380  30.363  0.00  0.00    +0.097 C 
ATOM      8  C   UNL     1      13.324 -10.378  29.217  0.00  0.00    +0.085 C 
ENDROOT
BRANCH   5  10
ATOM      1  O   UNL     1      10.688  -7.883  32.064  0.00  0.00    -0.439 OA
ATOM      4  N   UNL     1       9.875  -9.911  31.457  0.00  0.00    -0.213 NA
ATOM     10  C   UNL     1      10.929  -9.134  31.578  0.00  0.00    +0.201 A 
ATOM     12  C   UNL     1       8.844  -9.117  31.898  0.00  0.00    +0.110 A 
ATOM     13  C   UNL     1       9.338  -7.875  32.270  0.00  0.00    +0.155 A 
ATOM     17  C   UNL     1       7.469  -9.362  32.017  0.00  0.00    +0.035 A 
ATOM     18  C   UNL     1       8.565  -6.830  32.762  0.00  0.00    +0.049 A 
ATOM     19  C   UNL     1       6.655  -8.331  32.510  0.00  0.00    -0.048 A 
ATOM     20  C   UNL     1       7.195  -7.092  32.873  0.00  0.00    +0.007 A 
ATOM     25  C   UNL     1       5.186  -8.562  32.648  0.00  0.00    +0.044 C 
ENDBRANCH   5  10
BRANCH   3   9
ATOM      9  C   UNL     1      14.531  -8.417  28.459  0.00  0.00    +0.158 C 
BRANCH   9  11
ATOM      2  O   UNL     1      14.609  -6.479  29.927  0.00  0.00    -0.458 OA
ATOM     11  C   UNL     1      15.168  -7.114  28.865  0.00  0.00    +0.120 A 
ATOM     14  C   UNL     1      16.233  -6.396  28.373  0.00  0.00    +0.054 A 
ATOM     15  C   UNL     1      16.345  -5.237  29.185  0.00  0.00    +0.020 A 
ATOM     16  C   UNL     1      15.324  -5.335  30.125  0.00  0.00    +0.135 A 
ATOM     21  C   UNL     1      17.194  -4.117  29.230  0.00  0.00    +0.011 A 
ATOM     22  C   UNL     1      15.084  -4.388  31.120  0.00  0.00    +0.047 A 
ATOM     23  C   UNL     1      16.977  -3.148  30.219  0.00  0.00    +0.001 A 
ATOM     24  C   UNL     1      15.940  -3.283  31.145  0.00  0.00    +0.004 A 
ENDBRANCH   9  11
ENDBRANCH   3   9
TORSDOF 3
ENDMDL
MODEL 3
REMARK VINA RESULT:      -1.5     15.583     19.714
REMARK  Name = 45784201
REMARK  4 active torsions:
REMARK  status: ('A' for Active; 'I' for Inactive)
REMARK    1  A    between atoms: N_3  and  C_9
REMARK    2  A    between atoms: C_5  and  C_10
REMARK    3  A    between atoms: C_9  and  C_11
REMARK    4  A    between atoms: C_19  and  C_25
REMARK                            x       y       z     vdW  Elec       q    Type
REMARK                         _______ _______ _______ _____ _____    ______ ____
ROOT
ATOM      3  N   UNL     1      -3.804   3.201  25.514  0.00  0.00    -0.294 NA
ATOM      5  C   UNL     1      -1.495   3.342  25.127  0.00  0.00    +0.090 C 
ATOM      6  C   UNL     1      -2.235   4.302  24.180  0.00  0.00    +0.029 C 
ATOM      7  C   UNL     1      -2.585   2.401  25.657  0.00  0.00    +0.097 C 
ATOM      8  C   UNL     1      -3.686   3.837  24.203  0.00  0.00    +0.085 C 
ENDROOT
BRANCH   5  10
ATOM      1  O   UNL     1      -0.617   1.381  23.979  0.00  0.00    -0.439 OA
ATOM      4  N   UNL     1       0.921   2.992  24.402  0.00  0.00    -0.213 NA
ATOM     10  C   UNL     1      -0.333   2.606  24.504  0.00  0.00    +0.201 A 
ATOM     12  C   UNL     1       1.525   1.941  23.756  0.00  0.00    +0.110 A 
ATOM     13  C   UNL     1       0.587   0.952  23.496  0.00  0.00    +0.155 A 
ATOM     17  C   UNL     1       2.852   1.738  23.354  0.00  0.00    +0.035 A 
ATOM     18  C   UNL     1       0.860  -0.249  22.853  0.00  0.00    +0.049 A 
ATOM     19  C   UNL     1       3.167   0.537  22.701  0.00  0.00    -0.048 A 
ATOM     20  C   UNL     1       2.189  -0.435  22.458  0.00  0.00    +0.007 A 
ATOM     25  C   UNL     1       4.573   0.292  22.260  0.00  0.00    +0.044 C 
ENDBRANCH   5  10
BRANCH   3   9
ATOM      9  C   UNL     1      -5.012   2.398  25.635  0.00  0.00    +0.158 C 
BRANCH   9  11
ATOM      2  O   UNL     1      -3.955   0.229  25.942  0.00  0.00    -0.458 OA
ATOM     11  C   UNL     1      -4.791   0.980  25.179  0.00  0.00    +0.120 A 
ATOM     14  C   UNL     1      -5.270   0.250  24.116  0.00  0.00    +0.054 A 
ATOM     15  C   UNL     1      -4.693  -1.043  24.226  0.00  0.00    +0.020 A 
ATOM     16  C   UNL     1      -3.893  -1.004  25.364  0.00  0.00    +0.135 A 
ATOM     21  C   UNL     1      -4.757  -2.239  23.490  0.00  0.00    +0.011 A 
ATOM     22  C   UNL     1      -3.144  -2.084  25.829  0.00  0.00    +0.047 A 
ATOM     23  C   UNL     1      -4.014  -3.342  23.934  0.00  0.00    +0.001 A 
ATOM     24  C   UNL     1      -3.223  -3.263  25.082  0.00  0.00    +0.004 A 
ENDBRANCH   9  11
ENDBRANCH   3   9
TORSDOF 3
ENDMDL
MODEL 4
REMARK VINA RESULT:      -1.5     15.034     19.033
REMARK  Name = 45784201
REMARK  4 active torsions:
REMARK  status: ('A' for Active; 'I' for Inactive)
REMARK    1  A    between atoms: N_3  and  C_9
REMARK    2  A    between atoms: C_5  and  C_10
REMARK    3  A    between atoms: C_9  and  C_11
REMARK    4  A    between atoms: C_19  and  C_25
REMARK                            x       y       z     vdW  Elec       q    Type
REMARK                         _______ _______ _______ _____ _____    ______ ____
ROOT
ATOM      3  N   UNL     1      -3.863  -0.607  24.791  0.00  0.00    -0.294 NA
ATOM      5  C   UNL     1      -1.793  -1.398  24.024  0.00  0.00    +0.090 C 
ATOM      6  C   UNL     1      -2.103  -2.017  25.398  0.00  0.00    +0.029 C 
ATOM      7  C   UNL     1      -2.768  -0.220  23.900  0.00  0.00    +0.097 C 
ATOM      8  C   UNL     1      -3.207  -1.145  25.983  0.00  0.00    +0.085 C 
ENDROOT
BRANCH   5  10
ATOM      1  O   UNL     1      -0.142   0.303  23.457  0.00  0.00    -0.439 OA
ATOM      4  N   UNL     1       0.731  -1.732  23.946  0.00  0.00    -0.213 NA
ATOM     10  C   UNL     1      -0.351  -0.994  23.820  0.00  0.00    +0.201 A 
ATOM     12  C   UNL     1       1.747  -0.857  23.643  0.00  0.00    +0.110 A 
ATOM     13  C   UNL     1       1.216   0.389  23.343  0.00  0.00    +0.155 A 
ATOM     17  C   UNL     1       3.137  -1.031  23.597  0.00  0.00    +0.035 A 
ATOM     18  C   UNL     1       1.966   1.505  22.994  0.00  0.00    +0.049 A 
ATOM     19  C   UNL     1       3.928   0.074  23.248  0.00  0.00    -0.048 A 
ATOM     20  C   UNL     1       3.351   1.315  22.953  0.00  0.00    +0.007 A 
ATOM     25  C   UNL     1       5.412  -0.079  23.190  0.00  0.00    +0.044 C 
ENDBRANCH   5  10
BRANCH   3   9
ATOM      9  C   UNL     1      -4.748   0.506  25.101  0.00  0.00    +0.158 C 
BRANCH   9  11
ATOM      2  O   UNL     1      -2.663   1.755  24.997  0.00  0.00    -0.458 OA
ATOM     11  C   UNL     1      -4.015   1.821  25.104  0.00  0.00    +0.120 A 
ATOM     14  C   UNL     1      -4.433   3.128  25.197  0.00  0.00    +0.054 A 
ATOM     15  C   UNL     1      -3.261   3.928  25.144  0.00  0.00    +0.020 A 
ATOM     16  C   UNL     1      -2.200   3.037  25.020  0.00  0.00    +0.135 A 
ATOM     21  C   UNL     1      -2.980   5.305  25.186  0.00  0.00    +0.011 A 
ATOM     22  C   UNL     1      -0.863   3.421  24.934  0.00  0.00    +0.047 A 
ATOM     23  C   UNL     1      -1.644   5.721  25.102  0.00  0.00    +0.001 A 
ATOM     24  C   UNL     1      -0.606   4.794  24.978  0.00  0.00    +0.004 A 
ENDBRANCH   9  11
ENDBRANCH   3   9
TORSDOF 3
ENDMDL
