MODEL 1
REMARK VINA RESULT:      -2.3      0.000      0.000
REMARK  Name = 28959709
REMARK  10 active torsions:
REMARK  status: ('A' for Active; 'I' for Inactive)
REMARK    1  A    between atoms: O_2  and  C_21
REMARK    2  A    between atoms: O_4  and  C_28
REMARK    3  A    between atoms: O_4  and  C_29
REMARK    4  A    between atoms: N_6  and  C_13
REMARK    5  A    between atoms: C_7  and  C_10
REMARK    6  A    between atoms: C_8  and  C_14
REMARK    7  A    between atoms: C_10  and  C_13
REMARK    8  A    between atoms: C_14  and  C_21
REMARK    9  A    between atoms: C_19  and  C_22
REMARK   10  A    between atoms: C_22  and  C_23
REMARK                            x       y       z     vdW  Elec       q    Type
REMARK                         _______ _______ _______ _____ _____    ______ ____
ROOT
ATOM      1  O   UNL     1      -6.198   1.886  26.304  0.00  0.00    -0.275 OA
ATOM      5  N   UNL     1      -4.549   2.785  24.937  0.00  0.00    -0.301 N 
ATOM      7  C   UNL     1      -2.231   2.819  24.043  0.00  0.00    +0.011 C 
ATOM      8  C   UNL     1      -1.933   4.030  24.961  0.00  0.00    +0.006 C 
ATOM      9  C   UNL     1      -3.734   2.767  23.715  0.00  0.00    +0.111 C 
ATOM     11  C   UNL     1      -2.843   4.037  26.202  0.00  0.00    +0.023 C 
ATOM     12  C   UNL     1      -4.315   3.935  25.810  0.00  0.00    +0.108 C 
ATOM     19  C   UNL     1      -5.508   1.834  25.283  0.00  0.00    +0.220 C 
ENDROOT
BRANCH   7  10
ATOM     10  C   UNL     1      -1.765   1.474  24.614  0.00  0.00    +0.020 C 
BRANCH  10  13
ATOM     13  C   UNL     1      -1.242   0.566  23.511  0.00  0.00    +0.085 C 
BRANCH  13   6
ATOM      6  N   UNL     1       0.212   0.450  23.610  0.00  0.00    -0.302 NA
ATOM     15  C   UNL     1       0.854   1.731  23.284  0.00  0.00    +0.084 C 
ATOM     16  C   UNL     1       0.703  -0.628  22.739  0.00  0.00    +0.084 C 
ATOM     17  C   UNL     1       2.374   1.641  23.431  0.00  0.00    +0.015 C 
ATOM     18  C   UNL     1       2.218  -0.794  22.868  0.00  0.00    +0.015 C 
ATOM     20  C   UNL     1       2.948   0.514  22.581  0.00  0.00    +0.002 C 
ENDBRANCH  13   6
ENDBRANCH  10  13
ENDBRANCH   7  10
BRANCH   8  14
ATOM     14  C   UNL     1      -0.463   4.127  25.370  0.00  0.00    +0.124 C 
BRANCH  14  21
ATOM      3  O   UNL     1      -0.681   2.897  27.464  0.00  0.00    -0.251 OA
ATOM     21  C   UNL     1      -0.106   3.095  26.404  0.00  0.00    +0.305 C 
BRANCH  21   2
ATOM      2  O   UNL     1       0.976   2.387  25.988  0.00  0.00    -0.481 OA
ATOM     30  H   UNL     1       1.105   1.572  26.520  0.00  0.00    +0.295 HD
ENDBRANCH  21   2
ENDBRANCH  14  21
ENDBRANCH   8  14
BRANCH  19  22
ATOM     22  C   UNL     1      -5.687   0.678  24.332  0.00  0.00    +0.131 C 
BRANCH  22  23
ATOM     23  C   UNL     1      -4.634  -0.362  24.560  0.00  0.00    -0.038 A 
ATOM     24  C   UNL     1      -4.341  -1.289  23.560  0.00  0.00    +0.007 A 
ATOM     25  C   UNL     1      -3.945  -0.402  25.773  0.00  0.00    +0.007 A 
ATOM     26  C   UNL     1      -3.358  -2.256  23.772  0.00  0.00    +0.046 A 
ATOM     27  C   UNL     1      -2.964  -1.369  25.985  0.00  0.00    +0.046 A 
ATOM     28  C   UNL     1      -2.670  -2.296  24.985  0.00  0.00    +0.120 A 
BRANCH  28   4
ATOM      4  O   UNL     1      -1.711  -3.239  25.192  0.00  0.00    -0.495 OA
ATOM     29  C   UNL     1      -0.364  -2.782  25.307  0.00  0.00    +0.277 C 
ENDBRANCH  28   4
ENDBRANCH  22  23
ENDBRANCH  19  22
TORSDOF 9
ENDMDL
MODEL 2
REMARK VINA RESULT:      -1.6      1.786      5.460
REMARK  Name = 28959709
REMARK  10 active torsions:
REMARK  status: ('A' for Active; 'I' for Inactive)
REMARK    1  A    between atoms: O_2  and  C_21
REMARK    2  A    between atoms: O_4  and  C_28
REMARK    3  A    between atoms: O_4  and  C_29
REMARK    4  A    between atoms: N_6  and  C_13
REMARK    5  A    between atoms: C_7  and  C_10
REMARK    6  A    between atoms: C_8  and  C_14
REMARK    7  A    between atoms: C_10  and  C_13
REMARK    8  A    between atoms: C_14  and  C_21
REMARK    9  A    between atoms: C_19  and  C_22
REMARK   10  A    between atoms: C_22  and  C_23
REMARK                            x       y       z     vdW  Elec       q    Type
REMARK                         _______ _______ _______ _____ _____    ______ ____
ROOT
ATOM      1  O   UNL     1      -0.634  -1.448  25.652  0.00  0.00    -0.275 OA
ATOM      5  N   UNL     1      -2.708  -1.120  24.659  0.00  0.00    -0.301 N 
ATOM      7  C   UNL     1      -4.353   0.301  23.456  0.00  0.00    +0.011 C 
ATOM      8  C   UNL     1      -5.121   0.477  24.791  0.00  0.00    +0.006 C 
ATOM      9  C   UNL     1      -3.570  -1.024  23.474  0.00  0.00    +0.111 C 
ATOM     11  C   UNL     1      -4.189   0.319  26.004  0.00  0.00    +0.023 C 
ATOM     12  C   UNL     1      -3.408  -0.990  25.937  0.00  0.00    +0.108 C 
ATOM     19  C   UNL     1      -1.332  -1.346  24.640  0.00  0.00    +0.220 C 
ENDROOT
BRANCH   7  10
ATOM     10  C   UNL     1      -3.417   1.467  23.117  0.00  0.00    +0.020 C 
BRANCH  10  13
ATOM     13  C   UNL     1      -3.927   2.767  23.721  0.00  0.00    +0.085 C 
BRANCH  13   6
ATOM      6  N   UNL     1      -2.926   3.317  24.635  0.00  0.00    -0.302 NA
ATOM     15  C   UNL     1      -2.391   4.582  24.112  0.00  0.00    +0.084 C 
ATOM     16  C   UNL     1      -1.852   2.341  24.868  0.00  0.00    +0.084 C 
ATOM     17  C   UNL     1      -1.379   5.196  25.080  0.00  0.00    +0.015 C 
ATOM     18  C   UNL     1      -0.822   2.883  25.861  0.00  0.00    +0.015 C 
ATOM     20  C   UNL     1      -0.252   4.219  25.398  0.00  0.00    +0.002 C 
ENDBRANCH  13   6
ENDBRANCH  10  13
ENDBRANCH   7  10
BRANCH   8  14
ATOM     14  C   UNL     1      -5.892   1.795  24.871  0.00  0.00    +0.124 C 
BRANCH  14  21
ATOM      3  O   UNL     1      -5.454   3.187  26.824  0.00  0.00    -0.251 OA
ATOM     21  C   UNL     1      -6.048   2.261  26.292  0.00  0.00    +0.305 C 
BRANCH  21   2
ATOM      2  O   UNL     1      -6.968   1.490  26.927  0.00  0.00    -0.481 OA
ATOM     30  H   UNL     1      -6.746   0.536  26.872  0.00  0.00    +0.295 HD
ENDBRANCH  21   2
ENDBRANCH  14  21
ENDBRANCH   8  14
BRANCH  19  22
ATOM     22  C   UNL     1      -0.685  -1.465  23.284  0.00  0.00    +0.131 C 
BRANCH  22  23
ATOM     23  C   UNL     1       0.598  -0.695  23.242  0.00  0.00    -0.038 A 
ATOM     24  C   UNL     1       1.792  -1.345  22.929  0.00  0.00    +0.007 A 
ATOM     25  C   UNL     1       0.599   0.674  23.514  0.00  0.00    +0.007 A 
ATOM     26  C   UNL     1       2.987  -0.626  22.887  0.00  0.00    +0.046 A 
ATOM     27  C   UNL     1       1.794   1.391  23.472  0.00  0.00    +0.046 A 
ATOM     28  C   UNL     1       2.987   0.742  23.159  0.00  0.00    +0.120 A 
BRANCH  28   4
ATOM      4  O   UNL     1       4.153   1.443  23.118  0.00  0.00    -0.495 OA
ATOM     29  C   UNL     1       5.334   0.767  23.547  0.00  0.00    +0.277 C 
ENDBRANCH  28   4
ENDBRANCH  22  23
ENDBRANCH  19  22
TORSDOF 9
ENDMDL
MODEL 3
REMARK VINA RESULT:      -1.6      2.152      5.774
REMARK  Name = 28959709
REMARK  10 active torsions:
REMARK  status: ('A' for Active; 'I' for Inactive)
REMARK    1  A    between atoms: O_2  and  C_21
REMARK    2  A    between atoms: O_4  and  C_28
REMARK    3  A    between atoms: O_4  and  C_29
REMARK    4  A    between atoms: N_6  and  C_13
REMARK    5  A    between atoms: C_7  and  C_10
REMARK    6  A    between atoms: C_8  and  C_14
REMARK    7  A    between atoms: C_10  and  C_13
REMARK    8  A    between atoms: C_14  and  C_21
REMARK    9  A    between atoms: C_19  and  C_22
REMARK   10  A    between atoms: C_22  and  C_23
REMARK                            x       y       z     vdW  Elec       q    Type
REMARK                         _______ _______ _______ _____ _____    ______ ____
ROOT
ATOM      1  O   UNL     1       0.886   3.215  23.834  0.00  0.00    -0.275 OA
ATOM      5  N   UNL     1      -0.982   2.454  24.986  0.00  0.00    -0.301 N 
ATOM      7  C   UNL     1      -3.377   1.799  25.074  0.00  0.00    +0.011 C 
ATOM      8  C   UNL     1      -3.685   3.157  25.753  0.00  0.00    +0.006 C 
ATOM      9  C   UNL     1      -1.921   1.389  25.361  0.00  0.00    +0.111 C 
ATOM     11  C   UNL     1      -2.649   4.228  25.372  0.00  0.00    +0.023 C 
ATOM     12  C   UNL     1      -1.227   3.741  25.635  0.00  0.00    +0.108 C 
ATOM     19  C   UNL     1       0.096   2.310  24.113  0.00  0.00    +0.220 C 
ENDROOT
BRANCH   7  10
ATOM     10  C   UNL     1      -3.646   1.781  23.564  0.00  0.00    +0.020 C 
BRANCH  10  13
ATOM     13  C   UNL     1      -3.042   0.541  22.919  0.00  0.00    +0.085 C 
BRANCH  13   6
ATOM      6  N   UNL     1      -3.052  -0.569  23.872  0.00  0.00    -0.302 NA
ATOM     15  C   UNL     1      -1.778  -1.300  23.822  0.00  0.00    +0.084 C 
ATOM     16  C   UNL     1      -4.188  -1.464  23.608  0.00  0.00    +0.084 C 
ATOM     17  C   UNL     1      -1.752  -2.435  24.847  0.00  0.00    +0.015 C 
ATOM     18  C   UNL     1      -4.241  -2.604  24.626  0.00  0.00    +0.015 C 
ATOM     20  C   UNL     1      -2.930  -3.383  24.656  0.00  0.00    +0.002 C 
ENDBRANCH  13   6
ENDBRANCH  10  13
ENDBRANCH   7  10
BRANCH   8  14
ATOM     14  C   UNL     1      -5.104   3.657  25.477  0.00  0.00    +0.124 C 
BRANCH  14  21
ATOM      3  O   UNL     1      -6.663   1.900  24.825  0.00  0.00    -0.251 OA
ATOM     21  C   UNL     1      -6.125   2.574  25.691  0.00  0.00    +0.305 C 
BRANCH  21   2
ATOM      2  O   UNL     1      -6.378   2.440  27.019  0.00  0.00    -0.481 OA
ATOM     30  H   UNL     1      -7.337   2.508  27.217  0.00  0.00    +0.295 HD
ENDBRANCH  21   2
ENDBRANCH  14  21
ENDBRANCH   8  14
BRANCH  19  22
ATOM     22  C   UNL     1       0.278   0.953  23.482  0.00  0.00    +0.131 C 
BRANCH  22  23
ATOM     23  C   UNL     1       1.732   0.635  23.324  0.00  0.00    -0.038 A 
ATOM     24  C   UNL     1       2.630   1.639  22.958  0.00  0.00    +0.007 A 
ATOM     25  C   UNL     1       2.190  -0.663  23.545  0.00  0.00    +0.007 A 
ATOM     26  C   UNL     1       3.985   1.344  22.814  0.00  0.00    +0.046 A 
ATOM     27  C   UNL     1       3.546  -0.958  23.400  0.00  0.00    +0.046 A 
ATOM     28  C   UNL     1       4.443   0.045  23.035  0.00  0.00    +0.120 A 
BRANCH  28   4
ATOM      4  O   UNL     1       5.766  -0.243  22.895  0.00  0.00    -0.495 OA
ATOM     29  C   UNL     1       6.468  -0.658  24.066  0.00  0.00    +0.277 C 
ENDBRANCH  28   4
ENDBRANCH  22  23
ENDBRANCH  19  22
TORSDOF 9
ENDMDL
MODEL 4
REMARK VINA RESULT:      -1.1      2.371      5.482
REMARK  Name = 28959709
REMARK  10 active torsions:
REMARK  status: ('A' for Active; 'I' for Inactive)
REMARK    1  A    between atoms: O_2  and  C_21
REMARK    2  A    between atoms: O_4  and  C_28
REMARK    3  A    between atoms: O_4  and  C_29
REMARK    4  A    between atoms: N_6  and  C_13
REMARK    5  A    between atoms: C_7  and  C_10
REMARK    6  A    between atoms: C_8  and  C_14
REMARK    7  A    between atoms: C_10  and  C_13
REMARK    8  A    between atoms: C_14  and  C_21
REMARK    9  A    between atoms: C_19  and  C_22
REMARK   10  A    between atoms: C_22  and  C_23
REMARK                            x       y       z     vdW  Elec       q    Type
REMARK                         _______ _______ _______ _____ _____    ______ ____
ROOT
ATOM      1  O   UNL     1      -1.762   1.836  21.439  0.00  0.00    -0.275 OA
ATOM      5  N   UNL     1      -2.232   2.387  23.645  0.00  0.00    -0.301 N 
ATOM      7  C   UNL     1      -3.544   2.102  25.736  0.00  0.00    +0.011 C 
ATOM      8  C   UNL     1      -4.303   3.409  25.395  0.00  0.00    +0.006 C 
ATOM      9  C   UNL     1      -2.148   2.122  25.087  0.00  0.00    +0.111 C 
ATOM     11  C   UNL     1      -4.323   3.672  23.880  0.00  0.00    +0.023 C 
ATOM     12  C   UNL     1      -2.915   3.631  23.291  0.00  0.00    +0.108 C 
ATOM     19  C   UNL     1      -1.700   1.577  22.643  0.00  0.00    +0.220 C 
ENDROOT
BRANCH   7  10
ATOM     10  C   UNL     1      -4.294   0.824  25.341  0.00  0.00    +0.020 C 
BRANCH  10  13
ATOM     13  C   UNL     1      -4.128  -0.254  26.403  0.00  0.00    +0.085 C 
BRANCH  13   6
ATOM      6  N   UNL     1      -3.482  -1.430  25.820  0.00  0.00    -0.302 NA
ATOM     15  C   UNL     1      -2.023  -1.257  25.798  0.00  0.00    +0.084 C 
ATOM     16  C   UNL     1      -4.007  -1.690  24.472  0.00  0.00    +0.084 C 
ATOM     17  C   UNL     1      -1.328  -2.498  25.236  0.00  0.00    +0.015 C 
ATOM     18  C   UNL     1      -3.376  -2.946  23.868  0.00  0.00    +0.015 C 
ATOM     20  C   UNL     1      -1.855  -2.850  23.850  0.00  0.00    +0.002 C 
ENDBRANCH  13   6
ENDBRANCH  10  13
ENDBRANCH   7  10
BRANCH   8  14
ATOM     14  C   UNL     1      -5.720   3.447  25.968  0.00  0.00    +0.124 C 
BRANCH  14  21
ATOM      3  O   UNL     1      -6.753   1.814  24.482  0.00  0.00    -0.251 OA
ATOM     21  C   UNL     1      -6.497   2.210  25.609  0.00  0.00    +0.305 C 
BRANCH  21   2
ATOM      2  O   UNL     1      -6.888   1.572  26.742  0.00  0.00    -0.481 OA
ATOM     30  H   UNL     1      -6.379   0.747  26.891  0.00  0.00    +0.295 HD
ENDBRANCH  21   2
ENDBRANCH  14  21
ENDBRANCH   8  14
BRANCH  19  22
ATOM     22  C   UNL     1      -1.015   0.311  23.090  0.00  0.00    +0.131 C 
BRANCH  22  23
ATOM     23  C   UNL     1       0.471   0.439  22.956  0.00  0.00    -0.038 A 
ATOM     24  C   UNL     1       1.160   1.386  23.714  0.00  0.00    +0.007 A 
ATOM     25  C   UNL     1       1.166  -0.390  22.075  0.00  0.00    +0.007 A 
ATOM     26  C   UNL     1       2.544   1.504  23.591  0.00  0.00    +0.046 A 
ATOM     27  C   UNL     1       2.550  -0.271  21.952  0.00  0.00    +0.046 A 
ATOM     28  C   UNL     1       3.239   0.675  22.710  0.00  0.00    +0.120 A 
BRANCH  28   4
ATOM      4  O   UNL     1       4.590   0.789  22.591  0.00  0.00    -0.495 OA
ATOM     29  C   UNL     1       5.389   0.029  23.496  0.00  0.00    +0.277 C 
ENDBRANCH  28   4
ENDBRANCH  22  23
ENDBRANCH  19  22
TORSDOF 9
ENDMDL
MODEL 5
REMARK VINA RESULT:      -0.6      1.990      5.013
REMARK  Name = 28959709
REMARK  10 active torsions:
REMARK  status: ('A' for Active; 'I' for Inactive)
REMARK    1  A    between atoms: O_2  and  C_21
REMARK    2  A    between atoms: O_4  and  C_28
REMARK    3  A    between atoms: O_4  and  C_29
REMARK    4  A    between atoms: N_6  and  C_13
REMARK    5  A    between atoms: C_7  and  C_10
REMARK    6  A    between atoms: C_8  and  C_14
REMARK    7  A    between atoms: C_10  and  C_13
REMARK    8  A    between atoms: C_14  and  C_21
REMARK    9  A    between atoms: C_19  and  C_22
REMARK   10  A    between atoms: C_22  and  C_23
REMARK                            x       y       z     vdW  Elec       q    Type
REMARK                         _______ _______ _______ _____ _____    ______ ____
ROOT
ATOM      1  O   UNL     1      -0.078   5.342  24.055  0.00  0.00    -0.275 OA
ATOM      5  N   UNL     1      -1.892   4.628  25.319  0.00  0.00    -0.301 N 
ATOM      7  C   UNL     1      -3.640   2.954  25.878  0.00  0.00    +0.011 C 
ATOM      8  C   UNL     1      -4.677   3.848  25.154  0.00  0.00    +0.006 C 
ATOM      9  C   UNL     1      -2.475   3.817  26.395  0.00  0.00    +0.111 C 
ATOM     11  C   UNL     1      -4.015   4.716  24.070  0.00  0.00    +0.023 C 
ATOM     12  C   UNL     1      -2.839   5.508  24.635  0.00  0.00    +0.108 C 
ATOM     19  C   UNL     1      -0.548   4.631  24.947  0.00  0.00    +0.220 C 
ENDROOT
BRANCH   7  10
ATOM     10  C   UNL     1      -3.107   1.798  25.023  0.00  0.00    +0.020 C 
BRANCH  10  13
ATOM     13  C   UNL     1      -4.224   1.166  24.205  0.00  0.00    +0.085 C 
BRANCH  13   6
ATOM      6  N   UNL     1      -4.353  -0.249  24.551  0.00  0.00    -0.302 NA
ATOM     15  C   UNL     1      -3.495  -0.579  25.697  0.00  0.00    +0.084 C 
ATOM     16  C   UNL     1      -4.038  -1.094  23.390  0.00  0.00    +0.084 C 
ATOM     17  C   UNL     1      -3.655  -2.045  26.104  0.00  0.00    +0.015 C 
ATOM     18  C   UNL     1      -4.216  -2.576  23.722  0.00  0.00    +0.015 C 
ATOM     20  C   UNL     1      -3.380  -2.979  24.932  0.00  0.00    +0.002 C 
ENDBRANCH  13   6
ENDBRANCH  10  13
ENDBRANCH   7  10
BRANCH   8  14
ATOM     14  C   UNL     1      -5.848   3.058  24.570  0.00  0.00    +0.124 C 
BRANCH  14  21
ATOM      3  O   UNL     1      -6.404   2.320  26.826  0.00  0.00    -0.251 OA
ATOM     21  C   UNL     1      -6.521   2.211  25.615  0.00  0.00    +0.305 C 
BRANCH  21   2
ATOM      2  O   UNL     1      -7.304   1.278  25.013  0.00  0.00    -0.481 OA
ATOM     30  H   UNL     1      -6.806   0.760  24.344  0.00  0.00    +0.295 HD
ENDBRANCH  21   2
ENDBRANCH  14  21
ENDBRANCH   8  14
BRANCH  19  22
ATOM     22  C   UNL     1       0.363   3.693  25.697  0.00  0.00    +0.131 C 
BRANCH  22  23
ATOM     23  C   UNL     1       0.140   2.279  25.261  0.00  0.00    -0.038 A 
ATOM     24  C   UNL     1       0.415   1.904  23.945  0.00  0.00    +0.007 A 
ATOM     25  C   UNL     1      -0.340   1.336  26.169  0.00  0.00    +0.007 A 
ATOM     26  C   UNL     1       0.210   0.586  23.539  0.00  0.00    +0.046 A 
ATOM     27  C   UNL     1      -0.546   0.018  25.763  0.00  0.00    +0.046 A 
ATOM     28  C   UNL     1      -0.270  -0.357  24.448  0.00  0.00    +0.120 A 
BRANCH  28   4
ATOM      4  O   UNL     1      -0.470  -1.644  24.052  0.00  0.00    -0.495 OA
ATOM     29  C   UNL     1      -0.187  -2.668  25.004  0.00  0.00    +0.277 C 
ENDBRANCH  28   4
ENDBRANCH  22  23
ENDBRANCH  19  22
TORSDOF 9
ENDMDL
MODEL 6
REMARK VINA RESULT:      -0.4      1.644      2.576
REMARK  Name = 28959709
REMARK  10 active torsions:
REMARK  status: ('A' for Active; 'I' for Inactive)
REMARK    1  A    between atoms: O_2  and  C_21
REMARK    2  A    between atoms: O_4  and  C_28
REMARK    3  A    between atoms: O_4  and  C_29
REMARK    4  A    between atoms: N_6  and  C_13
REMARK    5  A    between atoms: C_7  and  C_10
REMARK    6  A    between atoms: C_8  and  C_14
REMARK    7  A    between atoms: C_10  and  C_13
REMARK    8  A    between atoms: C_14  and  C_21
REMARK    9  A    between atoms: C_19  and  C_22
REMARK   10  A    between atoms: C_22  and  C_23
REMARK                            x       y       z     vdW  Elec       q    Type
REMARK                         _______ _______ _______ _____ _____    ______ ____
ROOT
ATOM      1  O   UNL     1      -4.675   4.221  25.342  0.00  0.00    -0.275 OA
ATOM      5  N   UNL     1      -2.404   3.777  25.143  0.00  0.00    -0.301 N 
ATOM      7  C   UNL     1      -0.460   2.235  25.273  0.00  0.00    +0.011 C 
ATOM      8  C   UNL     1      -0.069   2.900  26.616  0.00  0.00    +0.006 C 
ATOM      9  C   UNL     1      -1.257   3.229  24.408  0.00  0.00    +0.111 C 
ATOM     11  C   UNL     1      -1.293   3.503  27.326  0.00  0.00    +0.023 C 
ATOM     12  C   UNL     1      -2.064   4.441  26.401  0.00  0.00    +0.108 C 
ATOM     19  C   UNL     1      -3.732   3.730  24.718  0.00  0.00    +0.220 C 
ENDROOT
BRANCH   7  10
ATOM     10  C   UNL     1      -1.241   0.924  25.430  0.00  0.00    +0.020 C 
BRANCH  10  13
ATOM     13  C   UNL     1      -0.444  -0.253  24.886  0.00  0.00    +0.085 C 
BRANCH  13   6
ATOM      6  N   UNL     1       0.339   0.171  23.726  0.00  0.00    -0.302 NA
ATOM     15  C   UNL     1       0.401  -0.904  22.726  0.00  0.00    +0.084 C 
ATOM     16  C   UNL     1       1.687   0.590  24.139  0.00  0.00    +0.084 C 
ATOM     17  C   UNL     1       1.175  -0.460  21.484  0.00  0.00    +0.015 C 
ATOM     18  C   UNL     1       2.502   1.082  22.943  0.00  0.00    +0.015 C 
ATOM     20  C   UNL     1       2.573   0.026  21.846  0.00  0.00    +0.002 C 
ENDBRANCH  13   6
ENDBRANCH  10  13
ENDBRANCH   7  10
BRANCH   8  14
ATOM     14  C   UNL     1       0.689   1.959  27.554  0.00  0.00    +0.124 C 
BRANCH  14  21
ATOM      3  O   UNL     1       2.570   3.326  28.287  0.00  0.00    -0.251 OA
ATOM     21  C   UNL     1       1.538   2.720  28.535  0.00  0.00    +0.305 C 
BRANCH  21   2
ATOM      2  O   UNL     1       0.986   2.642  29.773  0.00  0.00    -0.481 OA
ATOM     30  H   UNL     1       1.644   2.825  30.478  0.00  0.00    +0.295 HD
ENDBRANCH  21   2
ENDBRANCH  14  21
ENDBRANCH   8  14
BRANCH  19  22
ATOM     22  C   UNL     1      -3.999   3.025  23.413  0.00  0.00    +0.131 C 
BRANCH  22  23
ATOM     23  C   UNL     1      -4.008   1.541  23.606  0.00  0.00    -0.038 A 
ATOM     24  C   UNL     1      -4.711   0.981  24.674  0.00  0.00    +0.007 A 
ATOM     25  C   UNL     1      -3.315   0.718  22.719  0.00  0.00    +0.007 A 
ATOM     26  C   UNL     1      -4.721  -0.402  24.853  0.00  0.00    +0.046 A 
ATOM     27  C   UNL     1      -3.325  -0.665  22.898  0.00  0.00    +0.046 A 
ATOM     28  C   UNL     1      -4.028  -1.225  23.965  0.00  0.00    +0.120 A 
BRANCH  28   4
ATOM      4  O   UNL     1      -4.038  -2.575  24.139  0.00  0.00    -0.495 OA
ATOM     29  C   UNL     1      -3.234  -3.100  25.194  0.00  0.00    +0.277 C 
ENDBRANCH  28   4
ENDBRANCH  22  23
ENDBRANCH  19  22
TORSDOF 9
ENDMDL
MODEL 7
REMARK VINA RESULT:      -0.1      1.976      5.094
REMARK  Name = 28959709
REMARK  10 active torsions:
REMARK  status: ('A' for Active; 'I' for Inactive)
REMARK    1  A    between atoms: O_2  and  C_21
REMARK    2  A    between atoms: O_4  and  C_28
REMARK    3  A    between atoms: O_4  and  C_29
REMARK    4  A    between atoms: N_6  and  C_13
REMARK    5  A    between atoms: C_7  and  C_10
REMARK    6  A    between atoms: C_8  and  C_14
REMARK    7  A    between atoms: C_10  and  C_13
REMARK    8  A    between atoms: C_14  and  C_21
REMARK    9  A    between atoms: C_19  and  C_22
REMARK   10  A    between atoms: C_22  and  C_23
REMARK                            x       y       z     vdW  Elec       q    Type
REMARK                         _______ _______ _______ _____ _____    ______ ____
ROOT
ATOM      1  O   UNL     1      -1.814   3.686  27.567  0.00  0.00    -0.275 OA
ATOM      5  N   UNL     1      -0.716   3.447  25.534  0.00  0.00    -0.301 N 
ATOM      7  C   UNL     1      -0.457   2.383  23.303  0.00  0.00    +0.011 C 
ATOM      8  C   UNL     1       0.718   1.553  23.876  0.00  0.00    +0.006 C 
ATOM      9  C   UNL     1      -0.603   3.698  24.092  0.00  0.00    +0.111 C 
ATOM     11  C   UNL     1       0.585   1.357  25.396  0.00  0.00    +0.023 C 
ATOM     12  C   UNL     1       0.395   2.692  26.112  0.00  0.00    +0.108 C 
ATOM     19  C   UNL     1      -1.755   3.889  26.352  0.00  0.00    +0.220 C 
ENDROOT
BRANCH   7  10
ATOM     10  C   UNL     1      -1.794   1.633  23.271  0.00  0.00    +0.020 C 
BRANCH  10  13
ATOM     13  C   UNL     1      -1.969   0.782  24.521  0.00  0.00    +0.085 C 
BRANCH  13   6
ATOM      6  N   UNL     1      -2.406  -0.564  24.149  0.00  0.00    -0.302 NA
ATOM     15  C   UNL     1      -3.865  -0.685  24.280  0.00  0.00    +0.084 C 
ATOM     16  C   UNL     1      -1.713  -1.573  24.963  0.00  0.00    +0.084 C 
ATOM     17  C   UNL     1      -4.345  -2.072  23.848  0.00  0.00    +0.015 C 
ATOM     18  C   UNL     1      -2.123  -2.988  24.552  0.00  0.00    +0.015 C 
ATOM     20  C   UNL     1      -3.635  -3.173  24.627  0.00  0.00    +0.002 C 
ENDBRANCH  13   6
ENDBRANCH  10  13
ENDBRANCH   7  10
BRANCH   8  14
ATOM     14  C   UNL     1       0.902   0.207  23.174  0.00  0.00    +0.124 C 
BRANCH  14  21
ATOM      3  O   UNL     1       3.295   0.430  22.767  0.00  0.00    -0.251 OA
ATOM     21  C   UNL     1       2.170   0.171  22.366  0.00  0.00    +0.305 C 
BRANCH  21   2
ATOM      2  O   UNL     1       1.890  -0.201  21.091  0.00  0.00    -0.481 OA
ATOM     30  H   UNL     1       2.095  -1.147  20.933  0.00  0.00    +0.295 HD
ENDBRANCH  21   2
ENDBRANCH  14  21
ENDBRANCH   8  14
BRANCH  19  22
ATOM     22  C   UNL     1      -2.865   4.657  25.679  0.00  0.00    +0.131 C 
BRANCH  22  23
ATOM     23  C   UNL     1      -4.030   3.761  25.395  0.00  0.00    -0.038 A 
ATOM     24  C   UNL     1      -4.280   3.334  24.091  0.00  0.00    +0.007 A 
ATOM     25  C   UNL     1      -4.864   3.352  26.436  0.00  0.00    +0.007 A 
ATOM     26  C   UNL     1      -5.364   2.497  23.827  0.00  0.00    +0.046 A 
ATOM     27  C   UNL     1      -5.949   2.516  26.171  0.00  0.00    +0.046 A 
ATOM     28  C   UNL     1      -6.198   2.088  24.868  0.00  0.00    +0.120 A 
BRANCH  28   4
ATOM      4  O   UNL     1      -7.256   1.271  24.611  0.00  0.00    -0.495 OA
ATOM     29  C   UNL     1      -7.974   1.499  23.399  0.00  0.00    +0.277 C 
ENDBRANCH  28   4
ENDBRANCH  22  23
ENDBRANCH  19  22
TORSDOF 9
ENDMDL
MODEL 8
REMARK VINA RESULT:       0.1      2.360      6.083
REMARK  Name = 28959709
REMARK  10 active torsions:
REMARK  status: ('A' for Active; 'I' for Inactive)
REMARK    1  A    between atoms: O_2  and  C_21
REMARK    2  A    between atoms: O_4  and  C_28
REMARK    3  A    between atoms: O_4  and  C_29
REMARK    4  A    between atoms: N_6  and  C_13
REMARK    5  A    between atoms: C_7  and  C_10
REMARK    6  A    between atoms: C_8  and  C_14
REMARK    7  A    between atoms: C_10  and  C_13
REMARK    8  A    between atoms: C_14  and  C_21
REMARK    9  A    between atoms: C_19  and  C_22
REMARK   10  A    between atoms: C_22  and  C_23
REMARK                            x       y       z     vdW  Elec       q    Type
REMARK                         _______ _______ _______ _____ _____    ______ ____
ROOT
ATOM      1  O   UNL     1      -0.182   0.003  21.909  0.00  0.00    -0.275 OA
ATOM      5  N   UNL     1      -0.018   1.495  23.681  0.00  0.00    -0.301 N 
ATOM      7  C   UNL     1      -0.650   2.259  25.959  0.00  0.00    +0.011 C 
ATOM      8  C   UNL     1      -1.538   3.348  25.307  0.00  0.00    +0.006 C 
ATOM      9  C   UNL     1       0.495   1.876  25.003  0.00  0.00    +0.111 C 
ATOM     11  C   UNL     1      -2.011   2.928  23.905  0.00  0.00    +0.023 C 
ATOM     12  C   UNL     1      -0.834   2.516  23.024  0.00  0.00    +0.108 C 
ATOM     19  C   UNL     1       0.240   0.288  23.032  0.00  0.00    +0.220 C 
ENDROOT
BRANCH   7  10
ATOM     10  C   UNL     1      -1.419   1.006  26.396  0.00  0.00    +0.020 C 
BRANCH  10  13
ATOM     13  C   UNL     1      -1.123  -0.163  25.467  0.00  0.00    +0.085 C 
BRANCH  13   6
ATOM      6  N   UNL     1      -2.340  -0.946  25.251  0.00  0.00    -0.302 NA
ATOM     15  C   UNL     1      -2.010  -2.269  24.703  0.00  0.00    +0.084 C 
ATOM     16  C   UNL     1      -3.267  -0.222  24.370  0.00  0.00    +0.084 C 
ATOM     17  C   UNL     1      -3.268  -3.119  24.517  0.00  0.00    +0.015 C 
ATOM     18  C   UNL     1      -4.566  -1.005  24.172  0.00  0.00    +0.015 C 
ATOM     20  C   UNL     1      -4.294  -2.408  23.641  0.00  0.00    +0.002 C 
ENDBRANCH  13   6
ENDBRANCH  10  13
ENDBRANCH   7  10
BRANCH   8  14
ATOM     14  C   UNL     1      -2.728   3.753  26.178  0.00  0.00    +0.124 C 
BRANCH  14  21
ATOM      3  O   UNL     1      -4.363   4.333  24.465  0.00  0.00    -0.251 OA
ATOM     21  C   UNL     1      -4.026   3.655  25.424  0.00  0.00    +0.305 C 
BRANCH  21   2
ATOM      2  O   UNL     1      -4.798   2.681  25.969  0.00  0.00    -0.481 OA
ATOM     30  H   UNL     1      -5.445   3.044  26.612  0.00  0.00    +0.295 HD
ENDBRANCH  21   2
ENDBRANCH  14  21
ENDBRANCH   8  14
BRANCH  19  22
ATOM     22  C   UNL     1       1.086  -0.712  23.777  0.00  0.00    +0.131 C 
BRANCH  22  23
ATOM     23  C   UNL     1       2.542  -0.443  23.553  0.00  0.00    -0.038 A 
ATOM     24  C   UNL     1       2.946   0.752  22.955  0.00  0.00    +0.007 A 
ATOM     25  C   UNL     1       3.494  -1.384  23.943  0.00  0.00    +0.007 A 
ATOM     26  C   UNL     1       4.302   1.004  22.749  0.00  0.00    +0.046 A 
ATOM     27  C   UNL     1       4.849  -1.132  23.736  0.00  0.00    +0.046 A 
ATOM     28  C   UNL     1       5.253   0.062  23.140  0.00  0.00    +0.120 A 
BRANCH  28   4
ATOM      4  O   UNL     1       6.577   0.309  22.939  0.00  0.00    -0.495 OA
ATOM     29  C   UNL     1       7.451  -0.818  22.914  0.00  0.00    +0.277 C 
ENDBRANCH  28   4
ENDBRANCH  22  23
ENDBRANCH  19  22
TORSDOF 9
ENDMDL
MODEL 9
REMARK VINA RESULT:       0.6      2.207      5.848
REMARK  Name = 28959709
REMARK  10 active torsions:
REMARK  status: ('A' for Active; 'I' for Inactive)
REMARK    1  A    between atoms: O_2  and  C_21
REMARK    2  A    between atoms: O_4  and  C_28
REMARK    3  A    between atoms: O_4  and  C_29
REMARK    4  A    between atoms: N_6  and  C_13
REMARK    5  A    between atoms: C_7  and  C_10
REMARK    6  A    between atoms: C_8  and  C_14
REMARK    7  A    between atoms: C_10  and  C_13
REMARK    8  A    between atoms: C_14  and  C_21
REMARK    9  A    between atoms: C_19  and  C_22
REMARK   10  A    between atoms: C_22  and  C_23
REMARK                            x       y       z     vdW  Elec       q    Type
REMARK                         _______ _______ _______ _____ _____    ______ ____
ROOT
ATOM      1  O   UNL     1      -0.304   0.414  22.144  0.00  0.00    -0.275 OA
ATOM      5  N   UNL     1      -1.527   2.025  23.285  0.00  0.00    -0.301 N 
ATOM      7  C   UNL     1      -3.106   2.705  25.080  0.00  0.00    +0.011 C 
ATOM      8  C   UNL     1      -4.218   2.821  24.008  0.00  0.00    +0.006 C 
ATOM      9  C   UNL     1      -1.727   2.923  24.430  0.00  0.00    +0.111 C 
ATOM     11  C   UNL     1      -3.942   1.902  22.806  0.00  0.00    +0.023 C 
ATOM     12  C   UNL     1      -2.544   2.134  22.239  0.00  0.00    +0.108 C 
ATOM     19  C   UNL     1      -0.462   1.140  23.129  0.00  0.00    +0.220 C 
ENDROOT
BRANCH   7  10
ATOM     10  C   UNL     1      -3.123   1.382  25.857  0.00  0.00    +0.020 C 
BRANCH  10  13
ATOM     13  C   UNL     1      -4.181   0.440  25.300  0.00  0.00    +0.085 C 
BRANCH  13   6
ATOM      6  N   UNL     1      -3.647  -0.920  25.231  0.00  0.00    -0.302 NA
ATOM     15  C   UNL     1      -2.179  -0.894  25.177  0.00  0.00    +0.084 C 
ATOM     16  C   UNL     1      -4.209  -1.635  24.076  0.00  0.00    +0.084 C 
ATOM     17  C   UNL     1      -1.602  -2.311  25.153  0.00  0.00    +0.015 C 
ATOM     18  C   UNL     1      -3.698  -3.076  24.017  0.00  0.00    +0.015 C 
ATOM     20  C   UNL     1      -2.174  -3.124  23.999  0.00  0.00    +0.002 C 
ENDBRANCH  13   6
ENDBRANCH  10  13
ENDBRANCH   7  10
BRANCH   8  14
ATOM     14  C   UNL     1      -5.619   2.572  24.566  0.00  0.00    +0.124 C 
BRANCH  14  21
ATOM      3  O   UNL     1      -5.930   4.708  25.700  0.00  0.00    -0.251 OA
ATOM     21  C   UNL     1      -5.926   3.486  25.720  0.00  0.00    +0.305 C 
BRANCH  21   2
ATOM      2  O   UNL     1      -6.210   2.748  26.825  0.00  0.00    -0.481 OA
ATOM     30  H   UNL     1      -7.090   2.319  26.761  0.00  0.00    +0.295 HD
ENDBRANCH  21   2
ENDBRANCH  14  21
ENDBRANCH   8  14
BRANCH  19  22
ATOM     22  C   UNL     1       0.541   1.084  24.253  0.00  0.00    +0.131 C 
BRANCH  22  23
ATOM     23  C   UNL     1       1.900   0.736  23.731  0.00  0.00    -0.038 A 
ATOM     24  C   UNL     1       2.354  -0.582  23.793  0.00  0.00    +0.007 A 
ATOM     25  C   UNL     1       2.711   1.728  23.181  0.00  0.00    +0.007 A 
ATOM     26  C   UNL     1       3.619  -0.907  23.305  0.00  0.00    +0.046 A 
ATOM     27  C   UNL     1       3.976   1.403  22.693  0.00  0.00    +0.046 A 
ATOM     28  C   UNL     1       4.430   0.085  22.754  0.00  0.00    +0.120 A 
BRANCH  28   4
ATOM      4  O   UNL     1       5.665  -0.232  22.277  0.00  0.00    -0.495 OA
ATOM     29  C   UNL     1       6.712  -0.384  23.233  0.00  0.00    +0.277 C 
ENDBRANCH  28   4
ENDBRANCH  22  23
ENDBRANCH  19  22
TORSDOF 9
ENDMDL
