MODEL 1
REMARK VINA RESULT:      -3.9      0.000      0.000
REMARK  Name = 45783782
REMARK  5 active torsions:
REMARK  status: ('A' for Active; 'I' for Inactive)
REMARK    1  A    between atoms: N_3  and  C_8
REMARK    2  A    between atoms: N_7  and  C_23
REMARK    3  A    between atoms: N_7  and  C_24
REMARK    4  A    between atoms: C_9  and  C_17
REMARK    5  A    between atoms: C_18  and  C_19
REMARK                            x       y       z     vdW  Elec       q    Type
REMARK                         _______ _______ _______ _____ _____    ______ ____
ROOT
ATOM      2  O   UNL     1      -1.952   3.050  24.775  0.00  0.00    -0.336 OA
ATOM      4  N   UNL     1      -1.579   1.144  23.661  0.00  0.00    -0.190 NA
ATOM      5  N   UNL     1      -0.564   2.960  24.612  0.00  0.00    -0.056 NA
ATOM     17  C   UNL     1      -2.473   1.943  24.187  0.00  0.00    +0.245 A 
ATOM     18  C   UNL     1      -0.423   1.810  23.947  0.00  0.00    +0.204 A 
ENDROOT
BRANCH  18  19
ATOM      6  N   UNL     1       3.219   1.688  23.203  0.00  0.00    -0.240 NA
ATOM     19  C   UNL     1       0.859   1.298  23.554  0.00  0.00    +0.041 A 
ATOM     20  C   UNL     1       1.011  -0.025  23.156  0.00  0.00    +0.016 A 
ATOM     21  C   UNL     1       1.984   2.106  23.560  0.00  0.00    +0.124 A 
ATOM     22  C   UNL     1       2.265  -0.493  22.781  0.00  0.00    +0.044 A 
ATOM     23  C   UNL     1       3.327   0.395  22.822  0.00  0.00    +0.118 A 
BRANCH  23   7
ATOM      7  N   UNL     1       4.599  -0.096  22.438  0.00  0.00    -0.332 N 
ATOM     24  C   UNL     1       5.708  -0.147  23.333  0.00  0.00    +0.127 C 
ATOM     25  H   UNL     1       4.773  -0.202  21.443  0.00  0.00    +0.147 HD
ENDBRANCH  23   7
ENDBRANCH  18  19
BRANCH  17   9
ATOM      3  N   UNL     1      -4.453   1.090  25.431  0.00  0.00    -0.288 NA
ATOM      9  C   UNL     1      -3.981   1.802  24.227  0.00  0.00    +0.146 C 
ATOM     10  C   UNL     1      -5.789   1.610  25.721  0.00  0.00    +0.085 C 
ATOM     11  C   UNL     1      -4.703   3.161  24.267  0.00  0.00    +0.030 C 
ATOM     12  C   UNL     1      -5.603   3.096  25.493  0.00  0.00    +0.017 C 
BRANCH   3   8
ATOM      1  O   UNL     1      -3.135  -2.738  24.319  0.00  0.00    -0.380 OA
ATOM      8  C   UNL     1      -4.449  -0.363  25.280  0.00  0.00    +0.062 C 
ATOM     13  C   UNL     1      -3.252  -0.989  26.003  0.00  0.00    +0.047 C 
ATOM     14  C   UNL     1      -4.423  -0.744  23.797  0.00  0.00    +0.047 C 
ATOM     15  C   UNL     1      -3.189  -2.487  25.723  0.00  0.00    +0.161 C 
ATOM     16  C   UNL     1      -4.294  -2.255  23.640  0.00  0.00    +0.161 C 
ENDBRANCH   3   8
ENDBRANCH  17   9
TORSDOF 4
ENDMDL
MODEL 2
REMARK VINA RESULT:      -1.7      1.655      3.489
REMARK  Name = 45783782
REMARK  5 active torsions:
REMARK  status: ('A' for Active; 'I' for Inactive)
REMARK    1  A    between atoms: N_3  and  C_8
REMARK    2  A    between atoms: N_7  and  C_23
REMARK    3  A    between atoms: N_7  and  C_24
REMARK    4  A    between atoms: C_9  and  C_17
REMARK    5  A    between atoms: C_18  and  C_19
REMARK                            x       y       z     vdW  Elec       q    Type
REMARK                         _______ _______ _______ _____ _____    ______ ____
ROOT
ATOM      2  O   UNL     1      -1.398   1.067  23.556  0.00  0.00    -0.336 OA
ATOM      4  N   UNL     1      -0.095  -0.610  24.265  0.00  0.00    -0.190 NA
ATOM      5  N   UNL     1      -0.102   1.371  23.122  0.00  0.00    -0.056 NA
ATOM     17  C   UNL     1      -1.306  -0.114  24.220  0.00  0.00    +0.245 A 
ATOM     18  C   UNL     1       0.608   0.336  23.579  0.00  0.00    +0.204 A 
ENDROOT
BRANCH  18  19
ATOM      6  N   UNL     1       4.017  -1.147  23.460  0.00  0.00    -0.240 NA
ATOM     19  C   UNL     1       2.023   0.217  23.367  0.00  0.00    +0.041 A 
ATOM     20  C   UNL     1       2.767   1.286  22.882  0.00  0.00    +0.016 A 
ATOM     21  C   UNL     1       2.689  -0.967  23.638  0.00  0.00    +0.124 A 
ATOM     22  C   UNL     1       4.136   1.140  22.685  0.00  0.00    +0.044 A 
ATOM     23  C   UNL     1       4.708  -0.085  22.987  0.00  0.00    +0.118 A 
BRANCH  23   7
ATOM      7  N   UNL     1       6.103  -0.218  22.782  0.00  0.00    -0.332 N 
ATOM     24  C   UNL     1       7.013  -0.513  23.839  0.00  0.00    +0.127 C 
ATOM     25  H   UNL     1       6.476   0.126  21.903  0.00  0.00    +0.147 HD
ENDBRANCH  23   7
ENDBRANCH  18  19
BRANCH  17   9
ATOM      3  N   UNL     1      -3.789   0.036  24.291  0.00  0.00    -0.288 NA
ATOM      9  C   UNL     1      -2.593  -0.668  24.796  0.00  0.00    +0.146 C 
ATOM     10  C   UNL     1      -4.880  -0.939  24.308  0.00  0.00    +0.085 C 
ATOM     11  C   UNL     1      -2.823  -2.144  24.425  0.00  0.00    +0.030 C 
ATOM     12  C   UNL     1      -4.197  -2.182  23.773  0.00  0.00    +0.017 C 
BRANCH   3   8
ATOM      1  O   UNL     1      -5.685   3.636  25.327  0.00  0.00    -0.380 OA
ATOM      8  C   UNL     1      -4.115   1.238  25.054  0.00  0.00    +0.062 C 
ATOM     13  C   UNL     1      -5.573   1.216  25.522  0.00  0.00    +0.047 C 
ATOM     14  C   UNL     1      -3.853   2.490  24.214  0.00  0.00    +0.047 C 
ATOM     15  C   UNL     1      -5.932   2.534  26.200  0.00  0.00    +0.161 C 
ATOM     16  C   UNL     1      -4.308   3.738  24.964  0.00  0.00    +0.161 C 
ENDBRANCH   3   8
ENDBRANCH  17   9
TORSDOF 4
ENDMDL
MODEL 3
REMARK VINA RESULT:      -1.6      1.725      3.603
REMARK  Name = 45783782
REMARK  5 active torsions:
REMARK  status: ('A' for Active; 'I' for Inactive)
REMARK    1  A    between atoms: N_3  and  C_8
REMARK    2  A    between atoms: N_7  and  C_23
REMARK    3  A    between atoms: N_7  and  C_24
REMARK    4  A    between atoms: C_9  and  C_17
REMARK    5  A    between atoms: C_18  and  C_19
REMARK                            x       y       z     vdW  Elec       q    Type
REMARK                         _______ _______ _______ _____ _____    ______ ____
ROOT
ATOM      2  O   UNL     1      -1.057   0.247  22.825  0.00  0.00    -0.336 OA
ATOM      4  N   UNL     1       0.258  -0.641  24.405  0.00  0.00    -0.190 NA
ATOM      5  N   UNL     1       0.260   0.470  22.406  0.00  0.00    -0.056 NA
ATOM     17  C   UNL     1      -0.969  -0.411  24.010  0.00  0.00    +0.245 A 
ATOM     18  C   UNL     1       0.977  -0.082  23.389  0.00  0.00    +0.204 A 
ENDROOT
BRANCH  18  19
ATOM      6  N   UNL     1       4.484   1.067  22.929  0.00  0.00    -0.240 NA
ATOM     19  C   UNL     1       2.412  -0.091  23.387  0.00  0.00    +0.041 A 
ATOM     20  C   UNL     1       3.122  -1.206  23.817  0.00  0.00    +0.016 A 
ATOM     21  C   UNL     1       3.133   1.010  22.956  0.00  0.00    +0.124 A 
ATOM     22  C   UNL     1       4.512  -1.186  23.805  0.00  0.00    +0.044 A 
ATOM     23  C   UNL     1       5.140  -0.036  23.355  0.00  0.00    +0.118 A 
BRANCH  23   7
ATOM      7  N   UNL     1       6.556  -0.030  23.348  0.00  0.00    -0.332 N 
ATOM     24  C   UNL     1       7.326  -0.934  22.558  0.00  0.00    +0.127 C 
ATOM     25  H   UNL     1       7.020   0.481  24.092  0.00  0.00    +0.147 HD
ENDBRANCH  23   7
ENDBRANCH  18  19
BRANCH  17   9
ATOM      3  N   UNL     1      -3.421  -0.010  24.144  0.00  0.00    -0.288 NA
ATOM      9  C   UNL     1      -2.277  -0.774  24.680  0.00  0.00    +0.146 C 
ATOM     10  C   UNL     1      -4.598  -0.865  24.296  0.00  0.00    +0.085 C 
ATOM     11  C   UNL     1      -2.662  -2.250  24.472  0.00  0.00    +0.030 C 
ATOM     12  C   UNL     1      -4.060  -2.217  23.872  0.00  0.00    +0.017 C 
BRANCH   3   8
ATOM      1  O   UNL     1      -4.909   3.851  24.854  0.00  0.00    -0.380 OA
ATOM      8  C   UNL     1      -3.598   1.289  24.789  0.00  0.00    +0.062 C 
ATOM     13  C   UNL     1      -5.034   1.464  25.291  0.00  0.00    +0.047 C 
ATOM     14  C   UNL     1      -3.241   2.419  23.819  0.00  0.00    +0.047 C 
ATOM     15  C   UNL     1      -5.236   2.873  25.840  0.00  0.00    +0.161 C 
ATOM     16  C   UNL     1      -3.543   3.775  24.449  0.00  0.00    +0.161 C 
ENDBRANCH   3   8
ENDBRANCH  17   9
TORSDOF 4
ENDMDL
MODEL 4
REMARK VINA RESULT:       0.0      1.711      2.395
REMARK  Name = 45783782
REMARK  5 active torsions:
REMARK  status: ('A' for Active; 'I' for Inactive)
REMARK    1  A    between atoms: N_3  and  C_8
REMARK    2  A    between atoms: N_7  and  C_23
REMARK    3  A    between atoms: N_7  and  C_24
REMARK    4  A    between atoms: C_9  and  C_17
REMARK    5  A    between atoms: C_18  and  C_19
REMARK                            x       y       z     vdW  Elec       q    Type
REMARK                         _______ _______ _______ _____ _____    ______ ____
ROOT
ATOM      2  O   UNL     1      -0.717  -0.138  22.764  0.00  0.00    -0.336 OA
ATOM      4  N   UNL     1       0.664   1.288  23.799  0.00  0.00    -0.190 NA
ATOM      5  N   UNL     1       0.576  -0.642  22.575  0.00  0.00    -0.056 NA
ATOM     17  C   UNL     1      -0.576   0.998  23.493  0.00  0.00    +0.245 A 
ATOM     18  C   UNL     1       1.334   0.254  23.214  0.00  0.00    +0.204 A 
ENDROOT
BRANCH  18  19
ATOM      6  N   UNL     1       4.928   1.194  23.052  0.00  0.00    -0.240 NA
ATOM     19  C   UNL     1       2.763   0.145  23.286  0.00  0.00    +0.041 A 
ATOM     20  C   UNL     1       3.373  -1.052  23.644  0.00  0.00    +0.016 A 
ATOM     21  C   UNL     1       3.577   1.229  23.003  0.00  0.00    +0.124 A 
ATOM     22  C   UNL     1       4.760  -1.127  23.707  0.00  0.00    +0.044 A 
ATOM     23  C   UNL     1       5.486   0.013  23.404  0.00  0.00    +0.118 A 
BRANCH  23   7
ATOM      7  N   UNL     1       6.897  -0.079  23.472  0.00  0.00    -0.332 N 
ATOM     24  C   UNL     1       7.654  -0.948  22.631  0.00  0.00    +0.127 C 
ATOM     25  H   UNL     1       7.348   0.319  24.289  0.00  0.00    +0.147 HD
ENDBRANCH  23   7
ENDBRANCH  18  19
BRANCH  17   9
ATOM      3  N   UNL     1      -2.348   1.421  25.189  0.00  0.00    -0.288 NA
ATOM      9  C   UNL     1      -1.849   1.743  23.837  0.00  0.00    +0.146 C 
ATOM     10  C   UNL     1      -3.059   2.609  25.661  0.00  0.00    +0.085 C 
ATOM     11  C   UNL     1      -1.661   3.271  23.844  0.00  0.00    +0.030 C 
ATOM     12  C   UNL     1      -2.136   3.725  25.216  0.00  0.00    +0.017 C 
BRANCH   3   8
ATOM      1  O   UNL     1      -3.736  -2.431  24.261  0.00  0.00    -0.380 OA
ATOM      8  C   UNL     1      -3.188   0.226  25.223  0.00  0.00    +0.062 C 
ATOM     13  C   UNL     1      -2.390  -0.995  25.687  0.00  0.00    +0.047 C 
ATOM     14  C   UNL     1      -3.796  -0.037  23.843  0.00  0.00    +0.047 C 
ATOM     15  C   UNL     1      -3.244  -2.255  25.589  0.00  0.00    +0.161 C 
ATOM     16  C   UNL     1      -4.572  -1.350  23.847  0.00  0.00    +0.161 C 
ENDBRANCH   3   8
ENDBRANCH  17   9
TORSDOF 4
ENDMDL
