MODEL 1
REMARK VINA RESULT:      -0.6      0.000      0.000
REMARK  Name = 45361604
REMARK  10 active torsions:
REMARK  status: ('A' for Active; 'I' for Inactive)
REMARK    1  A    between atoms: O_2  and  C_11
REMARK    2  A    between atoms: N_5  and  C_15
REMARK    3  A    between atoms: N_6  and  C_25
REMARK    4  A    between atoms: C_8  and  C_18
REMARK    5  A    between atoms: C_10  and  C_20
REMARK    6  A    between atoms: C_14  and  C_19
REMARK    7  A    between atoms: C_19  and  C_21
REMARK    8  A    between atoms: C_19  and  C_22
REMARK    9  A    between atoms: C_23  and  C_24
REMARK   10  A    between atoms: C_25  and  C_27
REMARK                            x       y       z     vdW  Elec       q    Type
REMARK                         _______ _______ _______ _____ _____    ______ ____
ROOT
ATOM      8  C   UNL     1      -3.017  -1.383  24.858  0.00  0.00    -0.027 C 
ATOM      9  C   UNL     1      -2.650  -0.060  24.110  0.00  0.00    +0.028 C 
ATOM     10  C   UNL     1      -1.107   0.225  24.203  0.00  0.00    +0.012 C 
ATOM     11  C   UNL     1      -3.573   1.112  24.550  0.00  0.00    +0.122 C 
ATOM     12  C   UNL     1      -4.519  -1.693  24.651  0.00  0.00    +0.007 C 
ATOM     13  C   UNL     1      -2.208  -2.550  24.246  0.00  0.00    +0.009 C 
ATOM     14  C   UNL     1      -5.075   0.759  24.439  0.00  0.00    +0.029 C 
ATOM     15  C   UNL     1      -0.302  -0.986  23.654  0.00  0.00    +0.076 C 
ATOM     16  C   UNL     1      -5.428  -0.564  25.118  0.00  0.00    +0.007 C 
ATOM     17  C   UNL     1      -0.704  -2.318  24.284  0.00  0.00    +0.023 C 
ATOM     18  C   UNL     1      -2.730  -1.306  26.379  0.00  0.00    +0.011 C 
ATOM     20  C   UNL     1      -0.671   1.500  23.462  0.00  0.00    +0.010 C 
ENDROOT
BRANCH  15   5
ATOM      4  O   UNL     1       1.599  -0.256  21.629  0.00  0.00    -0.269 OA
ATOM      5  N   UNL     1       1.124  -0.806  23.830  0.00  0.00    -0.307 N 
ATOM     23  C   UNL     1       1.961  -0.452  22.787  0.00  0.00    +0.263 C 
ATOM     36  H   UNL     1       1.526  -1.005  24.743  0.00  0.00    +0.149 HD
BRANCH  23  24
ATOM      7  N   UNL     1       3.964  -1.429  23.686  0.00  0.00    -0.250 NA
ATOM     24  C   UNL     1       3.402  -0.334  23.126  0.00  0.00    +0.125 A 
ATOM     26  C   UNL     1       4.087   0.842  22.867  0.00  0.00    +0.033 A 
ATOM     28  C   UNL     1       5.435   0.898  23.202  0.00  0.00    +0.004 A 
ATOM     29  C   UNL     1       5.276  -1.337  23.999  0.00  0.00    +0.111 A 
ATOM     32  C   UNL     1       6.048  -0.208  23.780  0.00  0.00    +0.020 A 
ENDBRANCH  23  24
ENDBRANCH  15   5
BRANCH  11   2
ATOM      2  O   UNL     1      -3.355   2.238  23.699  0.00  0.00    -0.391 OA
ATOM     37  H   UNL     1      -3.646   2.000  22.802  0.00  0.00    +0.210 HD
ENDBRANCH  11   2
BRANCH  14  19
ATOM     19  C   UNL     1      -5.964   1.876  25.000  0.00  0.00    +0.077 C 
ATOM     21  C   UNL     1      -7.175   2.086  24.096  0.00  0.00    +0.017 C 
BRANCH  19  22
ATOM      3  O   UNL     1      -5.194   4.071  24.327  0.00  0.00    -0.276 OA
ATOM      6  N   UNL     1      -4.385   3.170  26.305  0.00  0.00    -0.311 N 
ATOM     22  C   UNL     1      -5.155   3.160  25.151  0.00  0.00    +0.216 C 
ATOM     38  H   UNL     1      -4.447   2.400  26.963  0.00  0.00    +0.149 HD
BRANCH   6  25
ATOM     25  C   UNL     1      -3.531   4.278  26.664  0.00  0.00    +0.141 C 
BRANCH  25  27
ATOM      1 CL   UNL     1      -2.487   6.282  24.560  0.00  0.00    -0.083 Cl
ATOM     27  C   UNL     1      -2.131   4.098  26.153  0.00  0.00    -0.012 A 
ATOM     30  C   UNL     1      -1.582   4.959  25.202  0.00  0.00    +0.046 A 
ATOM     31  C   UNL     1      -1.375   3.037  26.651  0.00  0.00    +0.006 A 
ATOM     33  C   UNL     1      -0.277   4.758  24.750  0.00  0.00    +0.020 A 
ATOM     34  C   UNL     1      -0.071   2.838  26.200  0.00  0.00    +0.000 A 
ATOM     35  C   UNL     1       0.478   3.698  25.249  0.00  0.00    +0.001 A 
ENDBRANCH  25  27
ENDBRANCH   6  25
ENDBRANCH  19  22
ENDBRANCH  14  19
TORSDOF 7
ENDMDL
