MODEL 1
REMARK VINA RESULT:      -4.3      0.000      0.000
REMARK  Name = 38027823
REMARK  13 active torsions:
REMARK  status: ('A' for Active; 'I' for Inactive)
REMARK    1  A    between atoms: O_3  and  C_27
REMARK    2  A    between atoms: O_3  and  C_28
REMARK    3  A    between atoms: N_4  and  C_13
REMARK    4  A    between atoms: N_5  and  C_20
REMARK    5  A    between atoms: C_6  and  C_10
REMARK    6  A    between atoms: C_7  and  C_13
REMARK    7  A    between atoms: C_9  and  C_14
REMARK    8  A    between atoms: C_10  and  C_15
REMARK    9  A    between atoms: C_10  and  C_16
REMARK   10  A    between atoms: C_11  and  C_17
REMARK   11  A    between atoms: C_14  and  C_18
REMARK   12  A    between atoms: C_19  and  C_21
REMARK   13  A    between atoms: C_20  and  C_22
REMARK                            x       y       z     vdW  Elec       q    Type
REMARK                         _______ _______ _______ _____ _____    ______ ____
ROOT
ATOM      6  C   UNL     1      -1.252   0.203  24.629  0.00  0.00    +0.000 C 
ATOM      7  C   UNL     1      -0.383  -1.067  24.443  0.00  0.00    +0.032 C 
ATOM      8  C   UNL     1      -2.342  -0.044  25.681  0.00  0.00    +0.012 C 
ATOM      9  C   UNL     1      -3.266  -1.216  25.300  0.00  0.00    +0.023 C 
ATOM     11  C   UNL     1      -2.479  -2.428  24.845  0.00  0.00    -0.073 C 
ATOM     12  C   UNL     1      -1.188  -2.344  24.479  0.00  0.00    -0.022 C 
ATOM     17  C   UNL     1      -3.199  -3.748  24.865  0.00  0.00    +0.039 C 
ENDROOT
BRANCH   6  10
ATOM     10  C   UNL     1      -0.407   1.416  25.030  0.00  0.00    -0.013 C 
ATOM     15  C   UNL     1      -0.562   2.535  24.005  0.00  0.00    +0.007 C 
ATOM     16  C   UNL     1      -0.799   1.899  26.423  0.00  0.00    +0.007 C 
ENDBRANCH   6  10
BRANCH   7  13
ATOM     13  C   UNL     1       0.417  -1.004  23.136  0.00  0.00    +0.112 C 
BRANCH  13   4
ATOM      2  O   UNL     1       2.317  -0.184  21.100  0.00  0.00    -0.276 OA
ATOM      4  N   UNL     1       1.649  -0.303  23.330  0.00  0.00    -0.315 N 
ATOM     19  C   UNL     1       2.506   0.054  22.291  0.00  0.00    +0.210 C 
ATOM     21  C   UNL     1       3.720   0.805  22.769  0.00  0.00    +0.109 C 
ATOM     29  H   UNL     1       1.879   0.005  24.270  0.00  0.00    +0.149 HD
ENDBRANCH  13   4
ENDBRANCH   7  13
BRANCH   9  14
ATOM     14  C   UNL     1      -4.285  -0.792  24.236  0.00  0.00    +0.103 C 
BRANCH  14  18
ATOM      1  O   UNL     1      -3.889   1.463  23.454  0.00  0.00    -0.276 OA
ATOM      5  N   UNL     1      -5.438   1.094  25.146  0.00  0.00    -0.311 N 
ATOM     18  C   UNL     1      -4.491   0.705  24.210  0.00  0.00    +0.214 C 
ATOM     30  H   UNL     1      -5.886   0.392  25.727  0.00  0.00    +0.149 HD
BRANCH   5  20
ATOM     20  C   UNL     1      -5.835   2.469  25.344  0.00  0.00    +0.139 C 
BRANCH  20  22
ATOM     22  C   UNL     1      -4.662   3.405  25.298  0.00  0.00    -0.030 A 
ATOM     23  C   UNL     1      -3.878   3.599  26.436  0.00  0.00    +0.009 A 
ATOM     24  C   UNL     1      -4.354   4.079  24.116  0.00  0.00    +0.009 A 
ATOM     25  C   UNL     1      -2.789   4.468  26.393  0.00  0.00    +0.046 A 
ATOM     26  C   UNL     1      -3.264   4.948  24.073  0.00  0.00    +0.046 A 
ATOM     27  C   UNL     1      -2.481   5.142  25.211  0.00  0.00    +0.120 A 
BRANCH  27   3
ATOM      3  O   UNL     1      -1.417   5.990  25.168  0.00  0.00    -0.495 OA
ATOM     28  C   UNL     1      -0.213   5.492  24.585  0.00  0.00    +0.277 C 
ENDBRANCH  27   3
ENDBRANCH  20  22
ENDBRANCH   5  20
ENDBRANCH  14  18
ENDBRANCH   9  14
TORSDOF 8
ENDMDL
MODEL 2
REMARK VINA RESULT:      -3.9      1.951      5.601
REMARK  Name = 38027823
REMARK  13 active torsions:
REMARK  status: ('A' for Active; 'I' for Inactive)
REMARK    1  A    between atoms: O_3  and  C_27
REMARK    2  A    between atoms: O_3  and  C_28
REMARK    3  A    between atoms: N_4  and  C_13
REMARK    4  A    between atoms: N_5  and  C_20
REMARK    5  A    between atoms: C_6  and  C_10
REMARK    6  A    between atoms: C_7  and  C_13
REMARK    7  A    between atoms: C_9  and  C_14
REMARK    8  A    between atoms: C_10  and  C_15
REMARK    9  A    between atoms: C_10  and  C_16
REMARK   10  A    between atoms: C_11  and  C_17
REMARK   11  A    between atoms: C_14  and  C_18
REMARK   12  A    between atoms: C_19  and  C_21
REMARK   13  A    between atoms: C_20  and  C_22
REMARK                            x       y       z     vdW  Elec       q    Type
REMARK                         _______ _______ _______ _____ _____    ______ ____
ROOT
ATOM      6  C   UNL     1      -3.571   2.433  24.004  0.00  0.00    +0.000 C 
ATOM      7  C   UNL     1      -4.246   3.617  24.741  0.00  0.00    +0.032 C 
ATOM      8  C   UNL     1      -4.593   1.320  23.731  0.00  0.00    +0.012 C 
ATOM      9  C   UNL     1      -5.234   0.787  25.026  0.00  0.00    +0.023 C 
ATOM     11  C   UNL     1      -5.688   1.912  25.934  0.00  0.00    -0.073 C 
ATOM     12  C   UNL     1      -5.246   3.173  25.783  0.00  0.00    -0.022 C 
ATOM     17  C   UNL     1      -6.697   1.562  26.992  0.00  0.00    +0.039 C 
ENDROOT
BRANCH   6  10
ATOM     10  C   UNL     1      -2.922   2.877  22.690  0.00  0.00    -0.013 C 
ATOM     15  C   UNL     1      -2.337   1.677  21.953  0.00  0.00    +0.007 C 
ATOM     16  C   UNL     1      -3.937   3.607  21.816  0.00  0.00    +0.007 C 
ENDBRANCH   6  10
BRANCH   7  13
ATOM     13  C   UNL     1      -3.203   4.533  25.392  0.00  0.00    +0.112 C 
BRANCH  13   4
ATOM      2  O   UNL     1      -0.403   4.177  24.714  0.00  0.00    -0.276 OA
ATOM      4  N   UNL     1      -2.228   3.765  26.103  0.00  0.00    -0.315 N 
ATOM     19  C   UNL     1      -0.898   3.647  25.706  0.00  0.00    +0.210 C 
ATOM     21  C   UNL     1      -0.082   2.801  26.646  0.00  0.00    +0.109 C 
ATOM     29  H   UNL     1      -2.509   3.333  26.978  0.00  0.00    +0.149 HD
ENDBRANCH  13   4
ENDBRANCH   7  13
BRANCH   9  14
ATOM     14  C   UNL     1      -4.285  -0.164  25.762  0.00  0.00    +0.103 C 
BRANCH  14  18
ATOM      1  O   UNL     1      -4.109  -2.039  24.243  0.00  0.00    -0.276 OA
ATOM      5  N   UNL     1      -2.231  -0.746  24.686  0.00  0.00    -0.311 N 
ATOM     18  C   UNL     1      -3.567  -1.098  24.814  0.00  0.00    +0.214 C 
ATOM     30  H   UNL     1      -1.872   0.054  25.199  0.00  0.00    +0.149 HD
BRANCH   5  20
ATOM     20  C   UNL     1      -1.302  -1.464  23.844  0.00  0.00    +0.139 C 
BRANCH  20  22
ATOM     22  C   UNL     1      -0.055  -0.672  23.578  0.00  0.00    -0.030 A 
ATOM     23  C   UNL     1       0.174   0.521  24.264  0.00  0.00    +0.009 A 
ATOM     24  C   UNL     1       0.876  -1.130  22.646  0.00  0.00    +0.009 A 
ATOM     25  C   UNL     1       1.332   1.257  24.016  0.00  0.00    +0.046 A 
ATOM     26  C   UNL     1       2.035  -0.394  22.398  0.00  0.00    +0.046 A 
ATOM     27  C   UNL     1       2.263   0.799  23.084  0.00  0.00    +0.120 A 
BRANCH  27   3
ATOM      3  O   UNL     1       3.394   1.517  22.842  0.00  0.00    -0.495 OA
ATOM     28  C   UNL     1       4.640   0.842  23.013  0.00  0.00    +0.277 C 
ENDBRANCH  27   3
ENDBRANCH  20  22
ENDBRANCH   5  20
ENDBRANCH  14  18
ENDBRANCH   9  14
TORSDOF 8
ENDMDL
MODEL 3
REMARK VINA RESULT:      -3.4      2.420      5.704
REMARK  Name = 38027823
REMARK  13 active torsions:
REMARK  status: ('A' for Active; 'I' for Inactive)
REMARK    1  A    between atoms: O_3  and  C_27
REMARK    2  A    between atoms: O_3  and  C_28
REMARK    3  A    between atoms: N_4  and  C_13
REMARK    4  A    between atoms: N_5  and  C_20
REMARK    5  A    between atoms: C_6  and  C_10
REMARK    6  A    between atoms: C_7  and  C_13
REMARK    7  A    between atoms: C_9  and  C_14
REMARK    8  A    between atoms: C_10  and  C_15
REMARK    9  A    between atoms: C_10  and  C_16
REMARK   10  A    between atoms: C_11  and  C_17
REMARK   11  A    between atoms: C_14  and  C_18
REMARK   12  A    between atoms: C_19  and  C_21
REMARK   13  A    between atoms: C_20  and  C_22
REMARK                            x       y       z     vdW  Elec       q    Type
REMARK                         _______ _______ _______ _____ _____    ______ ____
ROOT
ATOM      6  C   UNL     1      -1.348   1.884  24.974  0.00  0.00    +0.000 C 
ATOM      7  C   UNL     1      -0.115   2.587  25.595  0.00  0.00    +0.032 C 
ATOM      8  C   UNL     1      -1.820   2.637  23.722  0.00  0.00    +0.012 C 
ATOM      9  C   UNL     1      -2.195   4.100  24.028  0.00  0.00    +0.023 C 
ATOM     11  C   UNL     1      -1.140   4.786  24.872  0.00  0.00    -0.073 C 
ATOM     12  C   UNL     1      -0.211   4.094  25.554  0.00  0.00    -0.022 C 
ATOM     17  C   UNL     1      -1.151   6.290  24.877  0.00  0.00    +0.039 C 
ENDROOT
BRANCH   6  10
ATOM     10  C   UNL     1      -1.052   0.424  24.621  0.00  0.00    -0.013 C 
ATOM     15  C   UNL     1       0.088   0.341  23.612  0.00  0.00    +0.007 C 
ATOM     16  C   UNL     1      -0.720  -0.371  25.880  0.00  0.00    +0.007 C 
ENDBRANCH   6  10
BRANCH   7  13
ATOM     13  C   UNL     1       0.115   2.128  27.040  0.00  0.00    +0.112 C 
BRANCH  13   4
ATOM      2  O   UNL     1       0.968   2.400  29.801  0.00  0.00    -0.276 OA
ATOM      4  N   UNL     1       1.389   2.569  27.515  0.00  0.00    -0.315 N 
ATOM     19  C   UNL     1       1.717   2.671  28.865  0.00  0.00    +0.210 C 
ATOM     21  C   UNL     1       3.131   3.137  29.088  0.00  0.00    +0.109 C 
ATOM     29  H   UNL     1       2.113   2.760  26.829  0.00  0.00    +0.149 HD
ENDBRANCH  13   4
ENDBRANCH   7  13
BRANCH   9  14
ATOM     14  C   UNL     1      -3.573   4.190  24.691  0.00  0.00    +0.103 C 
BRANCH  14  18
ATOM      1  O   UNL     1      -4.738   2.610  23.276  0.00  0.00    -0.276 OA
ATOM      5  N   UNL     1      -4.788   2.333  25.582  0.00  0.00    -0.311 N 
ATOM     18  C   UNL     1      -4.422   2.972  24.406  0.00  0.00    +0.214 C 
ATOM     30  H   UNL     1      -4.475   2.708  26.473  0.00  0.00    +0.149 HD
BRANCH   5  20
ATOM     20  C   UNL     1      -5.603   1.141  25.614  0.00  0.00    +0.139 C 
BRANCH  20  22
ATOM     22  C   UNL     1      -4.814  -0.088  25.264  0.00  0.00    -0.030 A 
ATOM     23  C   UNL     1      -4.077  -0.748  26.246  0.00  0.00    +0.009 A 
ATOM     24  C   UNL     1      -4.821  -0.570  23.954  0.00  0.00    +0.009 A 
ATOM     25  C   UNL     1      -3.345  -1.890  25.920  0.00  0.00    +0.046 A 
ATOM     26  C   UNL     1      -4.089  -1.712  23.628  0.00  0.00    +0.046 A 
ATOM     27  C   UNL     1      -3.352  -2.372  24.611  0.00  0.00    +0.120 A 
BRANCH  27   3
ATOM      3  O   UNL     1      -2.638  -3.486  24.293  0.00  0.00    -0.495 OA
ATOM     28  C   UNL     1      -1.324  -3.290  23.773  0.00  0.00    +0.277 C 
ENDBRANCH  27   3
ENDBRANCH  20  22
ENDBRANCH   5  20
ENDBRANCH  14  18
ENDBRANCH   9  14
TORSDOF 8
ENDMDL
MODEL 4
REMARK VINA RESULT:      -3.4     14.750     16.304
REMARK  Name = 38027823
REMARK  13 active torsions:
REMARK  status: ('A' for Active; 'I' for Inactive)
REMARK    1  A    between atoms: O_3  and  C_27
REMARK    2  A    between atoms: O_3  and  C_28
REMARK    3  A    between atoms: N_4  and  C_13
REMARK    4  A    between atoms: N_5  and  C_20
REMARK    5  A    between atoms: C_6  and  C_10
REMARK    6  A    between atoms: C_7  and  C_13
REMARK    7  A    between atoms: C_9  and  C_14
REMARK    8  A    between atoms: C_10  and  C_15
REMARK    9  A    between atoms: C_10  and  C_16
REMARK   10  A    between atoms: C_11  and  C_17
REMARK   11  A    between atoms: C_14  and  C_18
REMARK   12  A    between atoms: C_19  and  C_21
REMARK   13  A    between atoms: C_20  and  C_22
REMARK                            x       y       z     vdW  Elec       q    Type
REMARK                         _______ _______ _______ _____ _____    ______ ____
ROOT
ATOM      6  C   UNL     1      -3.242 -10.066  13.509  0.00  0.00    +0.000 C 
ATOM      7  C   UNL     1      -2.022 -10.012  12.556  0.00  0.00    +0.032 C 
ATOM      8  C   UNL     1      -4.426 -10.763  12.823  0.00  0.00    +0.012 C 
ATOM      9  C   UNL     1      -4.851 -10.050  11.526  0.00  0.00    +0.023 C 
ATOM     11  C   UNL     1      -3.660  -9.720  10.649  0.00  0.00    -0.073 C 
ATOM     12  C   UNL     1      -2.402  -9.722  11.123  0.00  0.00    -0.022 C 
ATOM     17  C   UNL     1      -3.946  -9.434   9.200  0.00  0.00    +0.039 C 
ENDROOT
BRANCH   6  10
ATOM     10  C   UNL     1      -2.907 -10.781  14.821  0.00  0.00    -0.013 C 
ATOM     15  C   UNL     1      -1.664 -10.169  15.459  0.00  0.00    +0.007 C 
ATOM     16  C   UNL     1      -4.093 -10.719  15.778  0.00  0.00    +0.007 C 
ENDBRANCH   6  10
BRANCH   7  13
ATOM     13  C   UNL     1      -0.994  -8.978  13.031  0.00  0.00    +0.112 C 
BRANCH  13   4
ATOM      2  O   UNL     1       0.834  -6.744  12.725  0.00  0.00    -0.276 OA
ATOM      4  N   UNL     1       0.072  -8.851  12.086  0.00  0.00    -0.315 N 
ATOM     19  C   UNL     1       0.906  -7.738  12.008  0.00  0.00    +0.210 C 
ATOM     21  C   UNL     1       1.959  -7.874  10.940  0.00  0.00    +0.109 C 
ATOM     29  H   UNL     1       0.268  -9.643  11.480  0.00  0.00    +0.149 HD
ENDBRANCH  13   4
ENDBRANCH   7  13
BRANCH   9  14
ATOM     14  C   UNL     1      -5.673  -8.793  11.831  0.00  0.00    +0.103 C 
BRANCH  14  18
ATOM      1  O   UNL     1      -7.987  -8.822  11.127  0.00  0.00    -0.276 OA
ATOM      5  N   UNL     1      -7.407  -9.723  13.188  0.00  0.00    -0.311 N 
ATOM     18  C   UNL     1      -7.146  -9.098  11.977  0.00  0.00    +0.214 C 
ATOM     30  H   UNL     1      -6.642  -9.913  13.829  0.00  0.00    +0.149 HD
BRANCH   5  20
ATOM     20  C   UNL     1      -8.731 -10.129  13.598  0.00  0.00    +0.139 C 
BRANCH  20  22
ATOM     22  C   UNL     1      -8.846 -10.248  15.090  0.00  0.00    -0.030 A 
ATOM     23  C   UNL     1     -10.088 -10.103  15.709  0.00  0.00    +0.009 A 
ATOM     24  C   UNL     1      -7.710 -10.507  15.858  0.00  0.00    +0.009 A 
ATOM     25  C   UNL     1     -10.194 -10.214  17.095  0.00  0.00    +0.046 A 
ATOM     26  C   UNL     1      -7.816 -10.618  17.244  0.00  0.00    +0.046 A 
ATOM     27  C   UNL     1      -9.058 -10.472  17.863  0.00  0.00    +0.120 A 
BRANCH  27   3
ATOM      3  O   UNL     1      -9.161 -10.581  19.215  0.00  0.00    -0.495 OA
ATOM     28  C   UNL     1     -10.435 -10.301  19.794  0.00  0.00    +0.277 C 
ENDBRANCH  27   3
ENDBRANCH  20  22
ENDBRANCH   5  20
ENDBRANCH  14  18
ENDBRANCH   9  14
TORSDOF 8
ENDMDL
MODEL 5
REMARK VINA RESULT:      -3.3      2.389      5.752
REMARK  Name = 38027823
REMARK  13 active torsions:
REMARK  status: ('A' for Active; 'I' for Inactive)
REMARK    1  A    between atoms: O_3  and  C_27
REMARK    2  A    between atoms: O_3  and  C_28
REMARK    3  A    between atoms: N_4  and  C_13
REMARK    4  A    between atoms: N_5  and  C_20
REMARK    5  A    between atoms: C_6  and  C_10
REMARK    6  A    between atoms: C_7  and  C_13
REMARK    7  A    between atoms: C_9  and  C_14
REMARK    8  A    between atoms: C_10  and  C_15
REMARK    9  A    between atoms: C_10  and  C_16
REMARK   10  A    between atoms: C_11  and  C_17
REMARK   11  A    between atoms: C_14  and  C_18
REMARK   12  A    between atoms: C_19  and  C_21
REMARK   13  A    between atoms: C_20  and  C_22
REMARK                            x       y       z     vdW  Elec       q    Type
REMARK                         _______ _______ _______ _____ _____    ______ ____
ROOT
ATOM      6  C   UNL     1      -1.312   2.158  24.680  0.00  0.00    +0.000 C 
ATOM      7  C   UNL     1      -0.233   2.936  25.474  0.00  0.00    +0.032 C 
ATOM      8  C   UNL     1      -1.827   3.003  23.506  0.00  0.00    +0.012 C 
ATOM      9  C   UNL     1      -2.434   4.339  23.972  0.00  0.00    +0.023 C 
ATOM     11  C   UNL     1      -1.541   5.045  24.972  0.00  0.00    -0.073 C 
ATOM     12  C   UNL     1      -0.554   4.405  25.623  0.00  0.00    -0.022 C 
ATOM     17  C   UNL     1      -1.779   6.516  25.173  0.00  0.00    +0.039 C 
ENDROOT
BRANCH   6  10
ATOM     10  C   UNL     1      -0.780   0.818  24.162  0.00  0.00    -0.013 C 
ATOM     15  C   UNL     1      -1.487   0.430  22.867  0.00  0.00    +0.007 C 
ATOM     16  C   UNL     1       0.730   0.890  23.954  0.00  0.00    +0.007 C 
ENDBRANCH   6  10
BRANCH   7  13
ATOM     13  C   UNL     1      -0.011   2.318  26.859  0.00  0.00    +0.112 C 
BRANCH  13   4
ATOM      2  O   UNL     1       0.849   2.397  29.631  0.00  0.00    -0.276 OA
ATOM      4  N   UNL     1       1.291   2.639  27.355  0.00  0.00    -0.315 N 
ATOM     19  C   UNL     1       1.620   2.653  28.709  0.00  0.00    +0.210 C 
ATOM     21  C   UNL     1       3.064   3.001  28.953  0.00  0.00    +0.109 C 
ATOM     29  H   UNL     1       2.030   2.806  26.679  0.00  0.00    +0.149 HD
ENDBRANCH  13   4
ENDBRANCH   7  13
BRANCH   9  14
ATOM     14  C   UNL     1      -3.843   4.138  24.541  0.00  0.00    +0.103 C 
BRANCH  14  18
ATOM      1  O   UNL     1      -4.363   2.276  23.086  0.00  0.00    -0.276 OA
ATOM      5  N   UNL     1      -4.953   2.173  25.331  0.00  0.00    -0.311 N 
ATOM     18  C   UNL     1      -4.401   2.773  24.208  0.00  0.00    +0.214 C 
ATOM     30  H   UNL     1      -4.935   2.663  26.220  0.00  0.00    +0.149 HD
BRANCH   5  20
ATOM     20  C   UNL     1      -5.562   0.863  25.307  0.00  0.00    +0.139 C 
BRANCH  20  22
ATOM     22  C   UNL     1      -4.544  -0.228  25.148  0.00  0.00    -0.030 A 
ATOM     23  C   UNL     1      -4.629  -1.113  24.074  0.00  0.00    +0.009 A 
ATOM     24  C   UNL     1      -3.509  -0.356  26.076  0.00  0.00    +0.009 A 
ATOM     25  C   UNL     1      -3.683  -2.126  23.926  0.00  0.00    +0.046 A 
ATOM     26  C   UNL     1      -2.562  -1.369  25.929  0.00  0.00    +0.046 A 
ATOM     27  C   UNL     1      -2.649  -2.254  24.854  0.00  0.00    +0.120 A 
BRANCH  27   3
ATOM      3  O   UNL     1      -1.724  -3.242  24.710  0.00  0.00    -0.495 OA
ATOM     28  C   UNL     1      -0.367  -2.909  24.999  0.00  0.00    +0.277 C 
ENDBRANCH  27   3
ENDBRANCH  20  22
ENDBRANCH   5  20
ENDBRANCH  14  18
ENDBRANCH   9  14
TORSDOF 8
ENDMDL
MODEL 6
REMARK VINA RESULT:      -2.3      2.113      6.721
REMARK  Name = 38027823
REMARK  13 active torsions:
REMARK  status: ('A' for Active; 'I' for Inactive)
REMARK    1  A    between atoms: O_3  and  C_27
REMARK    2  A    between atoms: O_3  and  C_28
REMARK    3  A    between atoms: N_4  and  C_13
REMARK    4  A    between atoms: N_5  and  C_20
REMARK    5  A    between atoms: C_6  and  C_10
REMARK    6  A    between atoms: C_7  and  C_13
REMARK    7  A    between atoms: C_9  and  C_14
REMARK    8  A    between atoms: C_10  and  C_15
REMARK    9  A    between atoms: C_10  and  C_16
REMARK   10  A    between atoms: C_11  and  C_17
REMARK   11  A    between atoms: C_14  and  C_18
REMARK   12  A    between atoms: C_19  and  C_21
REMARK   13  A    between atoms: C_20  and  C_22
REMARK                            x       y       z     vdW  Elec       q    Type
REMARK                         _______ _______ _______ _____ _____    ______ ____
ROOT
ATOM      6  C   UNL     1      -4.045   2.464  25.267  0.00  0.00    +0.000 C 
ATOM      7  C   UNL     1      -4.564   1.301  24.385  0.00  0.00    +0.032 C 
ATOM      8  C   UNL     1      -3.541   3.618  24.389  0.00  0.00    +0.012 C 
ATOM      9  C   UNL     1      -2.407   3.179  23.445  0.00  0.00    +0.023 C 
ATOM     11  C   UNL     1      -2.737   1.883  22.733  0.00  0.00    -0.073 C 
ATOM     12  C   UNL     1      -3.713   1.063  23.160  0.00  0.00    -0.022 C 
ATOM     17  C   UNL     1      -1.948   1.573  21.491  0.00  0.00    +0.039 C 
ENDROOT
BRANCH   6  10
ATOM     10  C   UNL     1      -5.124   2.974  26.227  0.00  0.00    -0.013 C 
ATOM     15  C   UNL     1      -5.709   4.289  25.720  0.00  0.00    +0.007 C 
ATOM     16  C   UNL     1      -6.220   1.927  26.401  0.00  0.00    +0.007 C 
ENDBRANCH   6  10
BRANCH   7  13
ATOM     13  C   UNL     1      -4.673   0.001  25.192  0.00  0.00    +0.112 C 
BRANCH  13   4
ATOM      2  O   UNL     1      -4.167  -2.578  23.959  0.00  0.00    -0.276 OA
ATOM      4  N   UNL     1      -3.439  -0.720  25.162  0.00  0.00    -0.315 N 
ATOM     19  C   UNL     1      -3.282  -1.958  24.544  0.00  0.00    +0.210 C 
ATOM     21  C   UNL     1      -1.875  -2.483  24.640  0.00  0.00    +0.109 C 
ATOM     29  H   UNL     1      -2.618  -0.274  25.560  0.00  0.00    +0.149 HD
ENDBRANCH  13   4
ENDBRANCH   7  13
BRANCH   9  14
ATOM     14  C   UNL     1      -1.074   3.070  24.194  0.00  0.00    +0.103 C 
BRANCH  14  18
ATOM      1  O   UNL     1      -0.955   0.902  25.261  0.00  0.00    -0.276 OA
ATOM      5  N   UNL     1       0.223   1.275  23.293  0.00  0.00    -0.311 N 
ATOM     18  C   UNL     1      -0.618   1.636  24.336  0.00  0.00    +0.214 C 
ATOM     30  H   UNL     1       0.443   1.953  22.570  0.00  0.00    +0.149 HD
BRANCH   5  20
ATOM     20  C   UNL     1       0.813  -0.038  23.172  0.00  0.00    +0.139 C 
BRANCH  20  22
ATOM     22  C   UNL     1       2.312   0.014  23.204  0.00  0.00    -0.030 A 
ATOM     23  C   UNL     1       2.979   1.178  22.821  0.00  0.00    +0.009 A 
ATOM     24  C   UNL     1       3.040  -1.102  23.620  0.00  0.00    +0.009 A 
ATOM     25  C   UNL     1       4.373   1.226  22.851  0.00  0.00    +0.046 A 
ATOM     26  C   UNL     1       4.434  -1.054  23.650  0.00  0.00    +0.046 A 
ATOM     27  C   UNL     1       5.100   0.110  23.267  0.00  0.00    +0.120 A 
BRANCH  27   3
ATOM      3  O   UNL     1       6.460   0.157  23.297  0.00  0.00    -0.495 OA
ATOM     28  C   UNL     1       7.161  -0.956  22.744  0.00  0.00    +0.277 C 
ENDBRANCH  27   3
ENDBRANCH  20  22
ENDBRANCH   5  20
ENDBRANCH  14  18
ENDBRANCH   9  14
TORSDOF 8
ENDMDL
MODEL 7
REMARK VINA RESULT:      -2.0      1.902      5.314
REMARK  Name = 38027823
REMARK  13 active torsions:
REMARK  status: ('A' for Active; 'I' for Inactive)
REMARK    1  A    between atoms: O_3  and  C_27
REMARK    2  A    between atoms: O_3  and  C_28
REMARK    3  A    between atoms: N_4  and  C_13
REMARK    4  A    between atoms: N_5  and  C_20
REMARK    5  A    between atoms: C_6  and  C_10
REMARK    6  A    between atoms: C_7  and  C_13
REMARK    7  A    between atoms: C_9  and  C_14
REMARK    8  A    between atoms: C_10  and  C_15
REMARK    9  A    between atoms: C_10  and  C_16
REMARK   10  A    between atoms: C_11  and  C_17
REMARK   11  A    between atoms: C_14  and  C_18
REMARK   12  A    between atoms: C_19  and  C_21
REMARK   13  A    between atoms: C_20  and  C_22
REMARK                            x       y       z     vdW  Elec       q    Type
REMARK                         _______ _______ _______ _____ _____    ______ ____
ROOT
ATOM      6  C   UNL     1      -2.380   2.275  23.653  0.00  0.00    +0.000 C 
ATOM      7  C   UNL     1      -0.993   2.867  24.011  0.00  0.00    +0.032 C 
ATOM      8  C   UNL     1      -3.357   3.395  23.267  0.00  0.00    +0.012 C 
ATOM      9  C   UNL     1      -3.543   4.422  24.400  0.00  0.00    +0.023 C 
ATOM     11  C   UNL     1      -2.216   4.856  24.989  0.00  0.00    -0.073 C 
ATOM     12  C   UNL     1      -1.085   4.156  24.793  0.00  0.00    -0.022 C 
ATOM     17  C   UNL     1      -2.211   6.140  25.772  0.00  0.00    +0.039 C 
ENDROOT
BRANCH   6  10
ATOM     10  C   UNL     1      -2.285   1.253  22.516  0.00  0.00    -0.013 C 
ATOM     15  C   UNL     1      -3.359   0.182  22.673  0.00  0.00    +0.007 C 
ATOM     16  C   UNL     1      -2.408   1.949  21.164  0.00  0.00    +0.007 C 
ENDBRANCH   6  10
BRANCH   7  13
ATOM     13  C   UNL     1      -0.143   1.856  24.789  0.00  0.00    +0.112 C 
BRANCH  13   4
ATOM      2  O   UNL     1       0.578  -0.370  23.072  0.00  0.00    -0.276 OA
ATOM      4  N   UNL     1       1.108   1.636  24.134  0.00  0.00    -0.315 N 
ATOM     19  C   UNL     1       1.371   0.534  23.322  0.00  0.00    +0.210 C 
ATOM     21  C   UNL     1       2.758   0.560  22.738  0.00  0.00    +0.109 C 
ATOM     29  H   UNL     1       1.822   2.353  24.216  0.00  0.00    +0.149 HD
ENDBRANCH  13   4
ENDBRANCH   7  13
BRANCH   9  14
ATOM     14  C   UNL     1      -4.476   3.882  25.488  0.00  0.00    +0.103 C 
BRANCH  14  18
ATOM      1  O   UNL     1      -5.986   2.451  24.251  0.00  0.00    -0.276 OA
ATOM      5  N   UNL     1      -4.548   1.515  25.818  0.00  0.00    -0.311 N 
ATOM     18  C   UNL     1      -5.103   2.562  25.097  0.00  0.00    +0.214 C 
ATOM     30  H   UNL     1      -3.818   1.706  26.498  0.00  0.00    +0.149 HD
BRANCH   5  20
ATOM     20  C   UNL     1      -4.957   0.139  25.653  0.00  0.00    +0.139 C 
BRANCH  20  22
ATOM     22  C   UNL     1      -3.784  -0.775  25.448  0.00  0.00    -0.030 A 
ATOM     23  C   UNL     1      -3.951  -1.987  24.777  0.00  0.00    +0.009 A 
ATOM     24  C   UNL     1      -2.525  -0.411  25.926  0.00  0.00    +0.009 A 
ATOM     25  C   UNL     1      -2.862  -2.835  24.586  0.00  0.00    +0.046 A 
ATOM     26  C   UNL     1      -1.434  -1.259  25.735  0.00  0.00    +0.046 A 
ATOM     27  C   UNL     1      -1.602  -2.471  25.064  0.00  0.00    +0.120 A 
BRANCH  27   3
ATOM      3  O   UNL     1      -0.538  -3.298  24.877  0.00  0.00    -0.495 OA
ATOM     28  C   UNL     1       0.699  -2.910  25.472  0.00  0.00    +0.277 C 
ENDBRANCH  27   3
ENDBRANCH  20  22
ENDBRANCH   5  20
ENDBRANCH  14  18
ENDBRANCH   9  14
TORSDOF 8
ENDMDL
MODEL 8
REMARK VINA RESULT:      -1.9      2.310      4.875
REMARK  Name = 38027823
REMARK  13 active torsions:
REMARK  status: ('A' for Active; 'I' for Inactive)
REMARK    1  A    between atoms: O_3  and  C_27
REMARK    2  A    between atoms: O_3  and  C_28
REMARK    3  A    between atoms: N_4  and  C_13
REMARK    4  A    between atoms: N_5  and  C_20
REMARK    5  A    between atoms: C_6  and  C_10
REMARK    6  A    between atoms: C_7  and  C_13
REMARK    7  A    between atoms: C_9  and  C_14
REMARK    8  A    between atoms: C_10  and  C_15
REMARK    9  A    between atoms: C_10  and  C_16
REMARK   10  A    between atoms: C_11  and  C_17
REMARK   11  A    between atoms: C_14  and  C_18
REMARK   12  A    between atoms: C_19  and  C_21
REMARK   13  A    between atoms: C_20  and  C_22
REMARK                            x       y       z     vdW  Elec       q    Type
REMARK                         _______ _______ _______ _____ _____    ______ ____
ROOT
ATOM      6  C   UNL     1      -1.355   0.382  24.086  0.00  0.00    +0.000 C 
ATOM      7  C   UNL     1      -0.685  -0.895  23.520  0.00  0.00    +0.032 C 
ATOM      8  C   UNL     1      -0.781   1.634  23.406  0.00  0.00    +0.012 C 
ATOM      9  C   UNL     1       0.742   1.755  23.600  0.00  0.00    +0.023 C 
ATOM     11  C   UNL     1       1.451   0.447  23.316  0.00  0.00    -0.073 C 
ATOM     12  C   UNL     1       0.795  -0.726  23.271  0.00  0.00    -0.022 C 
ATOM     17  C   UNL     1       2.928   0.524  23.041  0.00  0.00    +0.039 C 
ENDROOT
BRANCH   6  10
ATOM     10  C   UNL     1      -2.877   0.349  23.914  0.00  0.00    -0.013 C 
ATOM     15  C   UNL     1      -3.569   0.630  25.244  0.00  0.00    +0.007 C 
ATOM     16  C   UNL     1      -3.314   1.353  22.853  0.00  0.00    +0.007 C 
ENDBRANCH   6  10
BRANCH   7  13
ATOM     13  C   UNL     1      -0.913  -2.097  24.445  0.00  0.00    +0.112 C 
BRANCH  13   4
ATOM      2  O   UNL     1      -3.456  -2.349  25.822  0.00  0.00    -0.276 OA
ATOM      4  N   UNL     1      -2.056  -2.848  24.027  0.00  0.00    -0.315 N 
ATOM     19  C   UNL     1      -3.243  -2.915  24.752  0.00  0.00    +0.210 C 
ATOM     21  C   UNL     1      -4.293  -3.755  24.075  0.00  0.00    +0.109 C 
ATOM     29  H   UNL     1      -2.019  -3.307  23.122  0.00  0.00    +0.149 HD
ENDBRANCH  13   4
ENDBRANCH   7  13
BRANCH   9  14
ATOM     14  C   UNL     1       1.081   2.271  25.002  0.00  0.00    +0.103 C 
BRANCH  14  18
ATOM      1  O   UNL     1      -0.652   2.787  26.610  0.00  0.00    -0.276 OA
ATOM      5  N   UNL     1      -0.276   4.232  24.830  0.00  0.00    -0.311 N 
ATOM     18  C   UNL     1      -0.040   3.097  25.592  0.00  0.00    +0.214 C 
ATOM     30  H   UNL     1       0.286   4.405  24.002  0.00  0.00    +0.149 HD
BRANCH   5  20
ATOM     20  C   UNL     1      -1.294   5.204  25.156  0.00  0.00    +0.139 C 
BRANCH  20  22
ATOM     22  C   UNL     1      -2.658   4.584  25.239  0.00  0.00    -0.030 A 
ATOM     23  C   UNL     1      -3.194   4.240  26.480  0.00  0.00    +0.009 A 
ATOM     24  C   UNL     1      -3.390   4.352  24.075  0.00  0.00    +0.009 A 
ATOM     25  C   UNL     1      -4.462   3.663  26.557  0.00  0.00    +0.046 A 
ATOM     26  C   UNL     1      -4.658   3.775  24.151  0.00  0.00    +0.046 A 
ATOM     27  C   UNL     1      -5.194   3.431  25.393  0.00  0.00    +0.120 A 
BRANCH  27   3
ATOM      3  O   UNL     1      -6.431   2.870  25.468  0.00  0.00    -0.495 OA
ATOM     28  C   UNL     1      -6.632   1.871  26.467  0.00  0.00    +0.277 C 
ENDBRANCH  27   3
ENDBRANCH  20  22
ENDBRANCH   5  20
ENDBRANCH  14  18
ENDBRANCH   9  14
TORSDOF 8
ENDMDL
MODEL 9
REMARK VINA RESULT:      -1.5      1.899      6.061
REMARK  Name = 38027823
REMARK  13 active torsions:
REMARK  status: ('A' for Active; 'I' for Inactive)
REMARK    1  A    between atoms: O_3  and  C_27
REMARK    2  A    between atoms: O_3  and  C_28
REMARK    3  A    between atoms: N_4  and  C_13
REMARK    4  A    between atoms: N_5  and  C_20
REMARK    5  A    between atoms: C_6  and  C_10
REMARK    6  A    between atoms: C_7  and  C_13
REMARK    7  A    between atoms: C_9  and  C_14
REMARK    8  A    between atoms: C_10  and  C_15
REMARK    9  A    between atoms: C_10  and  C_16
REMARK   10  A    between atoms: C_11  and  C_17
REMARK   11  A    between atoms: C_14  and  C_18
REMARK   12  A    between atoms: C_19  and  C_21
REMARK   13  A    between atoms: C_20  and  C_22
REMARK                            x       y       z     vdW  Elec       q    Type
REMARK                         _______ _______ _______ _____ _____    ______ ____
ROOT
ATOM      6  C   UNL     1      -5.074   2.621  25.311  0.00  0.00    +0.000 C 
ATOM      7  C   UNL     1      -4.470   1.492  24.438  0.00  0.00    +0.032 C 
ATOM      8  C   UNL     1      -5.020   3.962  24.564  0.00  0.00    +0.012 C 
ATOM      9  C   UNL     1      -3.581   4.357  24.181  0.00  0.00    +0.023 C 
ATOM     11  C   UNL     1      -2.829   3.202  23.551  0.00  0.00    -0.073 C 
ATOM     12  C   UNL     1      -3.249   1.930  23.666  0.00  0.00    -0.022 C 
ATOM     17  C   UNL     1      -1.606   3.549  22.748  0.00  0.00    +0.039 C 
ENDROOT
BRANCH   6  10
ATOM     10  C   UNL     1      -6.517   2.312  25.721  0.00  0.00    -0.013 C 
ATOM     15  C   UNL     1      -7.242   1.572  24.602  0.00  0.00    +0.007 C 
ATOM     16  C   UNL     1      -6.540   1.500  27.012  0.00  0.00    +0.007 C 
ENDBRANCH   6  10
BRANCH   7  13
ATOM     13  C   UNL     1      -4.125   0.261  25.286  0.00  0.00    +0.112 C 
BRANCH  13   4
ATOM      2  O   UNL     1      -3.189  -2.371  26.075  0.00  0.00    -0.276 OA
ATOM      4  N   UNL     1      -4.029  -0.907  24.467  0.00  0.00    -0.315 N 
ATOM     19  C   UNL     1      -3.567  -2.137  24.929  0.00  0.00    +0.210 C 
ATOM     21  C   UNL     1      -3.591  -3.204  23.867  0.00  0.00    +0.109 C 
ATOM     29  H   UNL     1      -4.375  -0.851  23.514  0.00  0.00    +0.149 HD
ENDBRANCH  13   4
ENDBRANCH   7  13
BRANCH   9  14
ATOM     14  C   UNL     1      -2.821   4.915  25.388  0.00  0.00    +0.103 C 
BRANCH  14  18
ATOM      1  O   UNL     1      -0.419   4.717  25.176  0.00  0.00    -0.276 OA
ATOM      5  N   UNL     1      -1.615   3.038  26.248  0.00  0.00    -0.311 N 
ATOM     18  C   UNL     1      -1.479   4.244  25.575  0.00  0.00    +0.214 C 
ATOM     30  H   UNL     1      -2.537   2.729  26.541  0.00  0.00    +0.149 HD
BRANCH   5  20
ATOM     20  C   UNL     1      -0.497   2.179  26.564  0.00  0.00    +0.139 C 
BRANCH  20  22
ATOM     22  C   UNL     1      -0.019   1.415  25.363  0.00  0.00    -0.030 A 
ATOM     23  C   UNL     1       0.954   1.964  24.528  0.00  0.00    +0.009 A 
ATOM     24  C   UNL     1      -0.547   0.154  25.084  0.00  0.00    +0.009 A 
ATOM     25  C   UNL     1       1.398   1.254  23.413  0.00  0.00    +0.046 A 
ATOM     26  C   UNL     1      -0.103  -0.557  23.969  0.00  0.00    +0.046 A 
ATOM     27  C   UNL     1       0.870  -0.007  23.134  0.00  0.00    +0.120 A 
BRANCH  27   3
ATOM      3  O   UNL     1       1.304  -0.701  22.047  0.00  0.00    -0.495 OA
ATOM     28  C   UNL     1       2.552  -0.305  21.479  0.00  0.00    +0.277 C 
ENDBRANCH  27   3
ENDBRANCH  20  22
ENDBRANCH   5  20
ENDBRANCH  14  18
ENDBRANCH   9  14
TORSDOF 8
ENDMDL
MODEL 10
REMARK VINA RESULT:      -0.6      1.664      3.519
REMARK  Name = 38027823
REMARK  13 active torsions:
REMARK  status: ('A' for Active; 'I' for Inactive)
REMARK    1  A    between atoms: O_3  and  C_27
REMARK    2  A    between atoms: O_3  and  C_28
REMARK    3  A    between atoms: N_4  and  C_13
REMARK    4  A    between atoms: N_5  and  C_20
REMARK    5  A    between atoms: C_6  and  C_10
REMARK    6  A    between atoms: C_7  and  C_13
REMARK    7  A    between atoms: C_9  and  C_14
REMARK    8  A    between atoms: C_10  and  C_15
REMARK    9  A    between atoms: C_10  and  C_16
REMARK   10  A    between atoms: C_11  and  C_17
REMARK   11  A    between atoms: C_14  and  C_18
REMARK   12  A    between atoms: C_19  and  C_21
REMARK   13  A    between atoms: C_20  and  C_22
REMARK                            x       y       z     vdW  Elec       q    Type
REMARK                         _______ _______ _______ _____ _____    ______ ____
ROOT
ATOM      6  C   UNL     1      -3.425  -0.852  25.074  0.00  0.00    +0.000 C 
ATOM      7  C   UNL     1      -2.222  -0.147  24.400  0.00  0.00    +0.032 C 
ATOM      8  C   UNL     1      -4.710  -0.606  24.269  0.00  0.00    +0.012 C 
ATOM      9  C   UNL     1      -5.035   0.893  24.136  0.00  0.00    +0.023 C 
ATOM     11  C   UNL     1      -3.818   1.699  23.729  0.00  0.00    -0.073 C 
ATOM     12  C   UNL     1      -2.570   1.213  23.842  0.00  0.00    -0.022 C 
ATOM     17  C   UNL     1      -4.073   3.062  23.147  0.00  0.00    +0.039 C 
ENDROOT
BRANCH   6  10
ATOM     10  C   UNL     1      -3.189  -2.358  25.227  0.00  0.00    -0.013 C 
ATOM     15  C   UNL     1      -4.066  -3.136  24.252  0.00  0.00    +0.007 C 
ATOM     16  C   UNL     1      -1.715  -2.689  25.013  0.00  0.00    +0.007 C 
ENDBRANCH   6  10
BRANCH   7  13
ATOM     13  C   UNL     1      -1.042  -0.015  25.371  0.00  0.00    +0.112 C 
BRANCH  13   4
ATOM      2  O   UNL     1       0.291  -1.018  22.995  0.00  0.00    -0.276 OA
ATOM      4  N   UNL     1       0.096   0.547  24.712  0.00  0.00    -0.315 N 
ATOM     19  C   UNL     1       0.675  -0.002  23.570  0.00  0.00    +0.210 C 
ATOM     21  C   UNL     1       1.846   0.801  23.068  0.00  0.00    +0.109 C 
ATOM     29  H   UNL     1       0.462   1.427  25.061  0.00  0.00    +0.149 HD
ENDBRANCH  13   4
ENDBRANCH   7  13
BRANCH   9  14
ATOM     14  C   UNL     1      -5.651   1.442  25.427  0.00  0.00    +0.103 C 
BRANCH  14  18
ATOM      1  O   UNL     1      -5.829   3.855  25.464  0.00  0.00    -0.276 OA
ATOM      5  N   UNL     1      -3.933   2.834  26.336  0.00  0.00    -0.311 N 
ATOM     18  C   UNL     1      -5.180   2.847  25.729  0.00  0.00    +0.214 C 
ATOM     30  H   UNL     1      -3.473   1.947  26.518  0.00  0.00    +0.149 HD
BRANCH   5  20
ATOM     20  C   UNL     1      -3.236   4.035  26.735  0.00  0.00    +0.139 C 
BRANCH  20  22
ATOM     22  C   UNL     1      -2.104   4.363  25.807  0.00  0.00    -0.030 A 
ATOM     23  C   UNL     1      -1.058   3.456  25.633  0.00  0.00    +0.009 A 
ATOM     24  C   UNL     1      -2.097   5.575  25.116  0.00  0.00    +0.009 A 
ATOM     25  C   UNL     1      -0.006   3.761  24.770  0.00  0.00    +0.046 A 
ATOM     26  C   UNL     1      -1.045   5.881  24.252  0.00  0.00    +0.046 A 
ATOM     27  C   UNL     1       0.000   4.973  24.079  0.00  0.00    +0.120 A 
BRANCH  27   3
ATOM      3  O   UNL     1       1.026   5.271  23.236  0.00  0.00    -0.495 OA
ATOM     28  C   UNL     1       0.682   5.781  21.948  0.00  0.00    +0.277 C 
ENDBRANCH  27   3
ENDBRANCH  20  22
ENDBRANCH   5  20
ENDBRANCH  14  18
ENDBRANCH   9  14
TORSDOF 8
ENDMDL
