MODEL 1
REMARK VINA RESULT:      -3.6      0.000      0.000
REMARK  Name = 75536888
REMARK  5 active torsions:
REMARK  status: ('A' for Active; 'I' for Inactive)
REMARK    1  A    between atoms: S_1  and  C_18
REMARK    2  A    between atoms: S_1  and  C_21
REMARK    3  A    between atoms: O_3  and  C_8
REMARK    4  A    between atoms: O_3  and  C_14
REMARK    5  A    between atoms: C_13  and  C_15
REMARK                            x       y       z     vdW  Elec       q    Type
REMARK                         _______ _______ _______ _____ _____    ______ ____
ROOT
ATOM      3  O   UNL     1      -7.883 -10.122  11.047  0.00  0.00    -0.485 OA
ENDROOT
BRANCH   3   8
ATOM      2  O   UNL     1      -5.311 -10.281   8.423  0.00  0.00    -0.375 OA
ATOM      4  O   UNL     1      -4.169 -10.241  13.489  0.00  0.00    -0.276 OA
ATOM      7  N   UNL     1      -4.241  -9.699  11.220  0.00  0.00    -0.296 N 
ATOM      8  C   UNL     1      -6.558 -10.293  10.547  0.00  0.00    +0.216 C 
ATOM      9  C   UNL     1      -5.650  -9.306  11.282  0.00  0.00    +0.154 C 
ATOM     10  C   UNL     1      -6.578 -10.082   9.036  0.00  0.00    +0.206 C 
ATOM     11  C   UNL     1      -3.533  -9.621   9.935  0.00  0.00    +0.136 C 
ATOM     12  C   UNL     1      -4.369  -9.253   8.716  0.00  0.00    +0.179 C 
ATOM     13  C   UNL     1      -3.615 -10.158  12.390  0.00  0.00    +0.213 C 
ATOM     15  C   UNL     1      -2.170 -10.575  12.256  0.00  0.00    +0.109 C 
ENDBRANCH   3   8
BRANCH   3  14
ATOM     14  C   UNL     1      -8.021 -10.063  12.406  0.00  0.00    +0.121 A 
ATOM     16  C   UNL     1      -9.049  -9.310  12.971  0.00  0.00    +0.047 A 
ATOM     17  C   UNL     1      -7.131 -10.756  13.228  0.00  0.00    +0.047 A 
ATOM     18  C   UNL     1      -8.301  -9.943  15.178  0.00  0.00    +0.088 A 
ATOM     19  C   UNL     1      -9.190  -9.250  14.358  0.00  0.00    +0.030 A 
ATOM     20  C   UNL     1      -7.271 -10.696  14.614  0.00  0.00    +0.030 A 
BRANCH  18   1
ATOM      1  S   UNL     1      -8.479  -9.871  16.914  0.00  0.00    -0.006 S 
ATOM      5  O   UNL     1      -7.519 -10.780  17.525  0.00  0.00    -0.170 OA
ATOM      6  O   UNL     1      -8.495  -8.469  17.306  0.00  0.00    -0.170 OA
ATOM     21  C   UNL     1     -10.097 -10.542  17.222  0.00  0.00    +0.200 C 
ENDBRANCH  18   1
ENDBRANCH   3  14
TORSDOF 3
ENDMDL
MODEL 2
REMARK VINA RESULT:      -3.4     16.326     18.318
REMARK  Name = 75536888
REMARK  5 active torsions:
REMARK  status: ('A' for Active; 'I' for Inactive)
REMARK    1  A    between atoms: S_1  and  C_18
REMARK    2  A    between atoms: S_1  and  C_21
REMARK    3  A    between atoms: O_3  and  C_8
REMARK    4  A    between atoms: O_3  and  C_14
REMARK    5  A    between atoms: C_13  and  C_15
REMARK                            x       y       z     vdW  Elec       q    Type
REMARK                         _______ _______ _______ _____ _____    ______ ____
ROOT
ATOM      3  O   UNL     1      -2.478   0.133  24.746  0.00  0.00    -0.485 OA
ENDROOT
BRANCH   3   8
ATOM      2  O   UNL     1      -5.524   2.194  24.656  0.00  0.00    -0.375 OA
ATOM      4  O   UNL     1      -0.777   4.207  25.278  0.00  0.00    -0.276 OA
ATOM      7  N   UNL     1      -3.023   3.661  25.603  0.00  0.00    -0.296 N 
ATOM      8  C   UNL     1      -3.206   1.358  24.687  0.00  0.00    +0.216 C 
ATOM      9  C   UNL     1      -2.723   2.247  25.834  0.00  0.00    +0.154 C 
ATOM     10  C   UNL     1      -4.697   1.042  24.760  0.00  0.00    +0.206 C 
ATOM     11  C   UNL     1      -4.421   4.111  25.649  0.00  0.00    +0.136 C 
ATOM     12  C   UNL     1      -5.481   3.030  25.807  0.00  0.00    +0.179 C 
ATOM     13  C   UNL     1      -1.964   4.540  25.326  0.00  0.00    +0.213 C 
ATOM     15  C   UNL     1      -2.340   5.979  25.069  0.00  0.00    +0.109 C 
ENDBRANCH   3   8
BRANCH   3  14
ATOM     14  C   UNL     1      -1.198   0.159  24.267  0.00  0.00    +0.121 A 
ATOM     16  C   UNL     1      -0.521  -1.035  24.021  0.00  0.00    +0.047 A 
ATOM     17  C   UNL     1      -0.569   1.381  24.024  0.00  0.00    +0.047 A 
ATOM     18  C   UNL     1       1.413   0.213  23.288  0.00  0.00    +0.088 A 
ATOM     19  C   UNL     1       0.785  -1.008  23.531  0.00  0.00    +0.030 A 
ATOM     20  C   UNL     1       0.736   1.408  23.535  0.00  0.00    +0.030 A 
BRANCH  18   1
ATOM      1  S   UNL     1       3.047   0.247  22.672  0.00  0.00    -0.006 S 
ATOM      5  O   UNL     1       3.022  -0.072  21.251  0.00  0.00    -0.170 OA
ATOM      6  O   UNL     1       3.672   1.481  23.124  0.00  0.00    -0.170 OA
ATOM     21  C   UNL     1       3.857  -1.108  23.492  0.00  0.00    +0.200 C 
ENDBRANCH  18   1
ENDBRANCH   3  14
TORSDOF 3
ENDMDL
MODEL 3
REMARK VINA RESULT:      -2.2      1.679      2.128
REMARK  Name = 75536888
REMARK  5 active torsions:
REMARK  status: ('A' for Active; 'I' for Inactive)
REMARK    1  A    between atoms: S_1  and  C_18
REMARK    2  A    between atoms: S_1  and  C_21
REMARK    3  A    between atoms: O_3  and  C_8
REMARK    4  A    between atoms: O_3  and  C_14
REMARK    5  A    between atoms: C_13  and  C_15
REMARK                            x       y       z     vdW  Elec       q    Type
REMARK                         _______ _______ _______ _____ _____    ______ ____
ROOT
ATOM      3  O   UNL     1      -6.266 -10.281  11.648  0.00  0.00    -0.485 OA
ENDROOT
BRANCH   3   8
ATOM      2  O   UNL     1      -2.894 -10.568  10.207  0.00  0.00    -0.375 OA
ATOM      4  O   UNL     1      -3.762 -10.353  15.323  0.00  0.00    -0.276 OA
ATOM      7  N   UNL     1      -2.953  -9.896  13.182  0.00  0.00    -0.296 N 
ATOM      8  C   UNL     1      -4.855 -10.486  11.696  0.00  0.00    +0.216 C 
ATOM      9  C   UNL     1      -4.269  -9.484  12.691  0.00  0.00    +0.154 C 
ATOM     10  C   UNL     1      -4.293 -10.332  10.286  0.00  0.00    +0.206 C 
ATOM     11  C   UNL     1      -1.808  -9.874  12.261  0.00  0.00    +0.136 C 
ATOM     12  C   UNL     1      -2.109  -9.542  10.806  0.00  0.00    +0.179 C 
ATOM     13  C   UNL     1      -2.830 -10.318  14.515  0.00  0.00    +0.213 C 
ATOM     15  C   UNL     1      -1.455 -10.758  14.954  0.00  0.00    +0.109 C 
ENDBRANCH   3   8
BRANCH   3  14
ATOM     14  C   UNL     1      -6.906 -10.156  12.849  0.00  0.00    +0.121 A 
ATOM     16  C   UNL     1      -8.080  -9.410  12.940  0.00  0.00    +0.047 A 
ATOM     17  C   UNL     1      -6.384 -10.776  13.985  0.00  0.00    +0.047 A 
ATOM     18  C   UNL     1      -8.212  -9.903  15.301  0.00  0.00    +0.088 A 
ATOM     19  C   UNL     1      -8.734  -9.283  14.166  0.00  0.00    +0.030 A 
ATOM     20  C   UNL     1      -7.037 -10.649  15.211  0.00  0.00    +0.030 A 
BRANCH  18   1
ATOM      1  S   UNL     1      -9.032  -9.747  16.836  0.00  0.00    -0.006 S 
ATOM      5  O   UNL     1      -9.335  -8.341  17.067  0.00  0.00    -0.170 OA
ATOM      6  O   UNL     1     -10.102 -10.732  16.875  0.00  0.00    -0.170 OA
ATOM     21  C   UNL     1      -7.811 -10.219  18.040  0.00  0.00    +0.200 C 
ENDBRANCH  18   1
ENDBRANCH   3  14
TORSDOF 3
ENDMDL
MODEL 4
REMARK VINA RESULT:      -1.4     16.290     17.694
REMARK  Name = 75536888
REMARK  5 active torsions:
REMARK  status: ('A' for Active; 'I' for Inactive)
REMARK    1  A    between atoms: S_1  and  C_18
REMARK    2  A    between atoms: S_1  and  C_21
REMARK    3  A    between atoms: O_3  and  C_8
REMARK    4  A    between atoms: O_3  and  C_14
REMARK    5  A    between atoms: C_13  and  C_15
REMARK                            x       y       z     vdW  Elec       q    Type
REMARK                         _______ _______ _______ _____ _____    ______ ____
ROOT
ATOM      3  O   UNL     1      -0.148   2.952  24.296  0.00  0.00    -0.485 OA
ENDROOT
BRANCH   3   8
ATOM      2  O   UNL     1      -0.019  -0.673  24.904  0.00  0.00    -0.375 OA
ATOM      4  O   UNL     1       3.911   1.967  22.768  0.00  0.00    -0.276 OA
ATOM      7  N   UNL     1       2.220   0.400  23.130  0.00  0.00    -0.296 N 
ATOM      8  C   UNL     1       0.490   1.678  24.375  0.00  0.00    +0.216 C 
ATOM      9  C   UNL     1       1.162   1.407  23.028  0.00  0.00    +0.154 C 
ATOM     10  C   UNL     1      -0.557   0.633  24.746  0.00  0.00    +0.206 C 
ATOM     11  C   UNL     1       1.852  -0.998  23.395  0.00  0.00    +0.136 C 
ATOM     12  C   UNL     1       0.381  -1.276  23.677  0.00  0.00    +0.179 C 
ATOM     13  C   UNL     1       3.556   0.806  22.990  0.00  0.00    +0.213 C 
ATOM     15  C   UNL     1       4.602  -0.272  23.134  0.00  0.00    +0.109 C 
ENDBRANCH   3   8
BRANCH   3  14
ATOM     14  C   UNL     1      -1.468   2.996  24.646  0.00  0.00    +0.121 A 
ATOM     16  C   UNL     1      -2.423   2.366  23.849  0.00  0.00    +0.047 A 
ATOM     17  C   UNL     1      -1.862   3.673  25.801  0.00  0.00    +0.047 A 
ATOM     18  C   UNL     1      -4.163   3.087  25.361  0.00  0.00    +0.088 A 
ATOM     19  C   UNL     1      -3.771   2.411  24.206  0.00  0.00    +0.030 A 
ATOM     20  C   UNL     1      -3.209   3.719  26.159  0.00  0.00    +0.030 A 
BRANCH  18   1
ATOM      1  S   UNL     1      -5.850   3.141  25.811  0.00  0.00    -0.006 S 
ATOM      5  O   UNL     1      -6.009   2.523  27.120  0.00  0.00    -0.170 OA
ATOM      6  O   UNL     1      -6.331   4.496  25.589  0.00  0.00    -0.170 OA
ATOM     21  C   UNL     1      -6.655   2.077  24.635  0.00  0.00    +0.200 C 
ENDBRANCH  18   1
ENDBRANCH   3  14
TORSDOF 3
ENDMDL
MODEL 5
REMARK VINA RESULT:      -1.4     15.786     17.957
REMARK  Name = 75536888
REMARK  5 active torsions:
REMARK  status: ('A' for Active; 'I' for Inactive)
REMARK    1  A    between atoms: S_1  and  C_18
REMARK    2  A    between atoms: S_1  and  C_21
REMARK    3  A    between atoms: O_3  and  C_8
REMARK    4  A    between atoms: O_3  and  C_14
REMARK    5  A    between atoms: C_13  and  C_15
REMARK                            x       y       z     vdW  Elec       q    Type
REMARK                         _______ _______ _______ _____ _____    ______ ____
ROOT
ATOM      3  O   UNL     1      -1.564   2.970  25.629  0.00  0.00    -0.485 OA
ENDROOT
BRANCH   3   8
ATOM      2  O   UNL     1      -5.185   2.926  26.276  0.00  0.00    -0.375 OA
ATOM      4  O   UNL     1      -2.702  -0.964  23.894  0.00  0.00    -0.276 OA
ATOM      7  N   UNL     1      -4.208   0.755  24.369  0.00  0.00    -0.296 N 
ATOM      8  C   UNL     1      -2.858   2.370  25.689  0.00  0.00    +0.216 C 
ATOM      9  C   UNL     1      -3.167   1.784  24.312  0.00  0.00    +0.154 C 
ATOM     10  C   UNL     1      -3.863   3.430  26.131  0.00  0.00    +0.206 C 
ATOM     11  C   UNL     1      -5.589   1.153  24.672  0.00  0.00    +0.136 C 
ATOM     12  C   UNL     1      -5.814   2.614  25.038  0.00  0.00    +0.179 C 
ATOM     13  C   UNL     1      -3.847  -0.583  24.151  0.00  0.00    +0.213 C 
ATOM     15  C   UNL     1      -4.959  -1.600  24.251  0.00  0.00    +0.109 C 
ENDBRANCH   3   8
BRANCH   3  14
ATOM     14  C   UNL     1      -0.602   2.279  24.946  0.00  0.00    +0.121 A 
ATOM     16  C   UNL     1      -0.556   0.888  25.020  0.00  0.00    +0.047 A 
ATOM     17  C   UNL     1       0.335   2.968  24.174  0.00  0.00    +0.047 A 
ATOM     18  C   UNL     1       1.361   0.872  23.551  0.00  0.00    +0.088 A 
ATOM     19  C   UNL     1       0.426   0.183  24.323  0.00  0.00    +0.030 A 
ATOM     20  C   UNL     1       1.316   2.264  23.477  0.00  0.00    +0.030 A 
BRANCH  18   1
ATOM      1  S   UNL     1       2.588  -0.010  22.675  0.00  0.00    -0.006 S 
ATOM      5  O   UNL     1       3.020  -1.144  23.481  0.00  0.00    -0.170 OA
ATOM      6  O   UNL     1       2.102  -0.231  21.321  0.00  0.00    -0.170 OA
ATOM     21  C   UNL     1       3.963   1.115  22.586  0.00  0.00    +0.200 C 
ENDBRANCH  18   1
ENDBRANCH   3  14
TORSDOF 3
ENDMDL
MODEL 6
REMARK VINA RESULT:      -0.8     15.812     17.311
REMARK  Name = 75536888
REMARK  5 active torsions:
REMARK  status: ('A' for Active; 'I' for Inactive)
REMARK    1  A    between atoms: S_1  and  C_18
REMARK    2  A    between atoms: S_1  and  C_21
REMARK    3  A    between atoms: O_3  and  C_8
REMARK    4  A    between atoms: O_3  and  C_14
REMARK    5  A    between atoms: C_13  and  C_15
REMARK                            x       y       z     vdW  Elec       q    Type
REMARK                         _______ _______ _______ _____ _____    ______ ____
ROOT
ATOM      3  O   UNL     1      -0.341   2.781  24.105  0.00  0.00    -0.485 OA
ENDROOT
BRANCH   3   8
ATOM      2  O   UNL     1       2.077   0.400  22.688  0.00  0.00    -0.375 OA
ATOM      4  O   UNL     1      -2.413  -1.086  24.835  0.00  0.00    -0.276 OA
ATOM      7  N   UNL     1      -0.139  -0.876  24.352  0.00  0.00    -0.296 N 
ATOM      8  C   UNL     1       0.098   1.499  23.661  0.00  0.00    +0.216 C 
ATOM      9  C   UNL     1      -0.092   0.513  24.813  0.00  0.00    +0.154 C 
ATOM     10  C   UNL     1       1.549   1.615  23.204  0.00  0.00    +0.206 C 
ATOM     11  C   UNL     1       1.086  -1.496  23.830  0.00  0.00    +0.136 C 
ATOM     12  C   UNL     1       2.302  -0.590  23.686  0.00  0.00    +0.179 C 
ATOM     13  C   UNL     1      -1.360  -1.565  24.405  0.00  0.00    +0.213 C 
ATOM     15  C   UNL     1      -1.351  -2.984  23.889  0.00  0.00    +0.109 C 
ENDBRANCH   3   8
BRANCH   3  14
ATOM     14  C   UNL     1      -1.645   2.874  24.508  0.00  0.00    +0.121 A 
ATOM     16  C   UNL     1      -2.647   2.232  23.782  0.00  0.00    +0.047 A 
ATOM     17  C   UNL     1      -1.972   3.614  25.645  0.00  0.00    +0.047 A 
ATOM     18  C   UNL     1      -4.303   3.065  25.330  0.00  0.00    +0.088 A 
ATOM     19  C   UNL     1      -3.977   2.327  24.193  0.00  0.00    +0.030 A 
ATOM     20  C   UNL     1      -3.301   3.709  26.056  0.00  0.00    +0.030 A 
BRANCH  18   1
ATOM      1  S   UNL     1      -5.968   3.182  25.847  0.00  0.00    -0.006 S 
ATOM      5  O   UNL     1      -6.106   2.532  27.143  0.00  0.00    -0.170 OA
ATOM      6  O   UNL     1      -6.392   4.564  25.684  0.00  0.00    -0.170 OA
ATOM     21  C   UNL     1      -6.866   2.192  24.673  0.00  0.00    +0.200 C 
ENDBRANCH  18   1
ENDBRANCH   3  14
TORSDOF 3
ENDMDL
MODEL 7
REMARK VINA RESULT:      -0.6     16.372     18.454
REMARK  Name = 75536888
REMARK  5 active torsions:
REMARK  status: ('A' for Active; 'I' for Inactive)
REMARK    1  A    between atoms: S_1  and  C_18
REMARK    2  A    between atoms: S_1  and  C_21
REMARK    3  A    between atoms: O_3  and  C_8
REMARK    4  A    between atoms: O_3  and  C_14
REMARK    5  A    between atoms: C_13  and  C_15
REMARK                            x       y       z     vdW  Elec       q    Type
REMARK                         _______ _______ _______ _____ _____    ______ ____
ROOT
ATOM      3  O   UNL     1      -1.420   1.034  23.188  0.00  0.00    -0.485 OA
ENDROOT
BRANCH   3   8
ATOM      2  O   UNL     1      -1.367   3.606  25.817  0.00  0.00    -0.375 OA
ATOM      4  O   UNL     1      -5.642   0.927  24.584  0.00  0.00    -0.276 OA
ATOM      7  N   UNL     1      -4.156   2.678  25.002  0.00  0.00    -0.296 N 
ATOM      8  C   UNL     1      -1.958   1.767  24.288  0.00  0.00    +0.216 C 
ATOM      9  C   UNL     1      -3.311   2.333  23.858  0.00  0.00    +0.154 C 
ATOM     10  C   UNL     1      -0.955   2.844  24.689  0.00  0.00    +0.206 C 
ATOM     11  C   UNL     1      -3.782   3.819  25.848  0.00  0.00    +0.136 C 
ATOM     12  C   UNL     1      -2.450   4.489  25.541  0.00  0.00    +0.179 C 
ATOM     13  C   UNL     1      -5.289   1.893  25.266  0.00  0.00    +0.213 C 
ATOM     15  C   UNL     1      -6.105   2.280  26.476  0.00  0.00    +0.109 C 
ENDBRANCH   3   8
BRANCH   3  14
ATOM     14  C   UNL     1      -0.068   0.835  23.189  0.00  0.00    +0.121 A 
ATOM     16  C   UNL     1       0.771   1.749  23.825  0.00  0.00    +0.047 A 
ATOM     17  C   UNL     1       0.473  -0.283  22.553  0.00  0.00    +0.047 A 
ATOM     18  C   UNL     1       2.692   0.428  23.190  0.00  0.00    +0.088 A 
ATOM     19  C   UNL     1       2.152   1.546  23.826  0.00  0.00    +0.030 A 
ATOM     20  C   UNL     1       1.852  -0.486  22.553  0.00  0.00    +0.030 A 
BRANCH  18   1
ATOM      1  S   UNL     1       4.420   0.172  23.194  0.00  0.00    -0.006 S 
ATOM      5  O   UNL     1       4.901   0.183  21.819  0.00  0.00    -0.170 OA
ATOM      6  O   UNL     1       5.005   1.077  24.171  0.00  0.00    -0.170 OA
ATOM     21  C   UNL     1       4.619  -1.489  23.799  0.00  0.00    +0.200 C 
ENDBRANCH  18   1
ENDBRANCH   3  14
TORSDOF 3
ENDMDL
MODEL 8
REMARK VINA RESULT:      -0.6     16.267     17.644
REMARK  Name = 75536888
REMARK  5 active torsions:
REMARK  status: ('A' for Active; 'I' for Inactive)
REMARK    1  A    between atoms: S_1  and  C_18
REMARK    2  A    between atoms: S_1  and  C_21
REMARK    3  A    between atoms: O_3  and  C_8
REMARK    4  A    between atoms: O_3  and  C_14
REMARK    5  A    between atoms: C_13  and  C_15
REMARK                            x       y       z     vdW  Elec       q    Type
REMARK                         _______ _______ _______ _____ _____    ______ ____
ROOT
ATOM      3  O   UNL     1      -0.166   2.874  24.263  0.00  0.00    -0.485 OA
ENDROOT
BRANCH   3   8
ATOM      2  O   UNL     1       0.066  -0.732  24.951  0.00  0.00    -0.375 OA
ATOM      4  O   UNL     1       3.884   1.953  22.675  0.00  0.00    -0.276 OA
ATOM      7  N   UNL     1       2.241   0.354  23.108  0.00  0.00    -0.296 N 
ATOM      8  C   UNL     1       0.505   1.618  24.358  0.00  0.00    +0.216 C 
ATOM      9  C   UNL     1       1.156   1.332  23.005  0.00  0.00    +0.154 C 
ATOM     10  C   UNL     1      -0.509   0.556  24.774  0.00  0.00    +0.206 C 
ATOM     11  C   UNL     1       1.914  -1.046  23.412  0.00  0.00    +0.136 C 
ATOM     12  C   UNL     1       0.456  -1.353  23.731  0.00  0.00    +0.179 C 
ATOM     13  C   UNL     1       3.563   0.790  22.931  0.00  0.00    +0.213 C 
ATOM     15  C   UNL     1       4.639  -0.259  23.078  0.00  0.00    +0.109 C 
ENDBRANCH   3   8
BRANCH   3  14
ATOM     14  C   UNL     1      -1.493   2.883  24.593  0.00  0.00    +0.121 A 
ATOM     16  C   UNL     1      -1.921   3.546  25.742  0.00  0.00    +0.047 A 
ATOM     17  C   UNL     1      -2.419   2.228  23.780  0.00  0.00    +0.047 A 
ATOM     18  C   UNL     1      -4.200   2.902  25.266  0.00  0.00    +0.088 A 
ATOM     19  C   UNL     1      -3.275   3.556  26.079  0.00  0.00    +0.030 A 
ATOM     20  C   UNL     1      -3.772   2.238  24.116  0.00  0.00    +0.030 A 
BRANCH  18   1
ATOM      1  S   UNL     1      -5.896   2.917  25.685  0.00  0.00    -0.006 S 
ATOM      5  O   UNL     1      -6.641   2.195  24.663  0.00  0.00    -0.170 OA
ATOM      6  O   UNL     1      -6.016   2.522  27.081  0.00  0.00    -0.170 OA
ATOM     21  C   UNL     1      -6.368   4.628  25.559  0.00  0.00    +0.200 C 
ENDBRANCH  18   1
ENDBRANCH   3  14
TORSDOF 3
ENDMDL
