MODEL 1
REMARK VINA RESULT:      -3.4      0.000      0.000
REMARK  Name = 56774711
REMARK  9 active torsions:
REMARK  status: ('A' for Active; 'I' for Inactive)
REMARK    1  A    between atoms: O_2  and  C_8
REMARK    2  A    between atoms: N_5  and  C_9
REMARK    3  A    between atoms: N_6  and  C_21
REMARK    4  A    between atoms: C_7  and  C_8
REMARK    5  A    between atoms: C_8  and  C_14
REMARK    6  A    between atoms: C_9  and  C_11
REMARK    7  A    between atoms: C_11  and  C_15
REMARK    8  A    between atoms: C_11  and  C_16
REMARK    9  A    between atoms: C_22  and  C_23
REMARK                            x       y       z     vdW  Elec       q    Type
REMARK                         _______ _______ _______ _____ _____    ______ ____
ROOT
ATOM     14  C   UNL     1      -3.039   0.424  24.334  0.00  0.00    -0.017 A 
ATOM     17  C   UNL     1      -2.353   0.912  23.221  0.00  0.00    +0.008 A 
ATOM     18  C   UNL     1      -2.341  -0.203  25.365  0.00  0.00    +0.008 A 
ATOM     19  C   UNL     1      -0.967   0.772  23.141  0.00  0.00    +0.023 A 
ATOM     20  C   UNL     1      -0.955  -0.343  25.285  0.00  0.00    +0.023 A 
ATOM     21  C   UNL     1      -0.269   0.144  24.172  0.00  0.00    +0.034 A 
ENDROOT
BRANCH  21   6
ATOM      4  O   UNL     1       1.501  -0.268  21.787  0.00  0.00    -0.270 OA
ATOM      6  N   UNL     1       1.118   0.004  24.091  0.00  0.00    -0.282 N 
ATOM     22  C   UNL     1       1.900  -0.188  22.945  0.00  0.00    +0.248 C 
ATOM     30  H   UNL     1       1.591   0.098  24.985  0.00  0.00    +0.155 HD
BRANCH  22  23
ATOM     23  C   UNL     1       3.365  -0.273  23.180  0.00  0.00    +0.037 A 
ATOM     24  C   UNL     1       4.184   0.816  22.881  0.00  0.00    +0.013 A 
ATOM     25  C   UNL     1       3.920  -1.442  23.699  0.00  0.00    +0.013 A 
ATOM     26  C   UNL     1       5.559   0.736  23.104  0.00  0.00    +0.001 A 
ATOM     27  C   UNL     1       5.295  -1.522  23.922  0.00  0.00    +0.001 A 
ATOM     28  C   UNL     1       6.114  -0.433  23.623  0.00  0.00    +0.000 A 
ENDBRANCH  22  23
ENDBRANCH  21   6
BRANCH  14   8
ATOM      8  C   UNL     1      -4.536   0.577  24.422  0.00  0.00    +0.167 C 
BRANCH   8   7
ATOM      1  O   UNL     1      -6.624   2.002  25.911  0.00  0.00    -0.369 OA
ATOM      3  O   UNL     1      -3.813   3.968  27.038  0.00  0.00    -0.273 OA
ATOM      5  N   UNL     1      -4.159   2.952  24.972  0.00  0.00    -0.291 N 
ATOM      7  C   UNL     1      -4.976   2.023  24.180  0.00  0.00    +0.135 C 
ATOM     10  C   UNL     1      -6.451   2.212  24.514  0.00  0.00    +0.185 C 
ATOM     12  C   UNL     1      -4.529   3.336  26.259  0.00  0.00    +0.242 C 
ATOM     13  C   UNL     1      -5.962   2.998  26.657  0.00  0.00    +0.255 C 
BRANCH   5   9
ATOM      9  C   UNL     1      -2.852   3.318  24.443  0.00  0.00    +0.111 C 
BRANCH   9  11
ATOM     11  C   UNL     1      -1.968   4.000  25.493  0.00  0.00    +0.000 C 
ATOM     15  C   UNL     1      -0.758   3.136  25.859  0.00  0.00    +0.009 C 
ATOM     16  C   UNL     1      -1.501   5.362  24.981  0.00  0.00    +0.009 C 
ENDBRANCH   9  11
ENDBRANCH   5   9
ENDBRANCH   8   7
BRANCH   8   2
ATOM      2  O   UNL     1      -4.982   0.157  25.707  0.00  0.00    -0.385 OA
ATOM     29  H   UNL     1      -5.036  -0.813  25.721  0.00  0.00    +0.210 HD
ENDBRANCH   8   2
ENDBRANCH  14   8
TORSDOF 7
ENDMDL
MODEL 2
REMARK VINA RESULT:      -1.7      1.423      3.054
REMARK  Name = 56774711
REMARK  9 active torsions:
REMARK  status: ('A' for Active; 'I' for Inactive)
REMARK    1  A    between atoms: O_2  and  C_8
REMARK    2  A    between atoms: N_5  and  C_9
REMARK    3  A    between atoms: N_6  and  C_21
REMARK    4  A    between atoms: C_7  and  C_8
REMARK    5  A    between atoms: C_8  and  C_14
REMARK    6  A    between atoms: C_9  and  C_11
REMARK    7  A    between atoms: C_11  and  C_15
REMARK    8  A    between atoms: C_11  and  C_16
REMARK    9  A    between atoms: C_22  and  C_23
REMARK                            x       y       z     vdW  Elec       q    Type
REMARK                         _______ _______ _______ _____ _____    ______ ____
ROOT
ATOM     14  C   UNL     1      -2.140   2.886  24.535  0.00  0.00    -0.017 A 
ATOM     17  C   UNL     1      -1.245   2.949  25.604  0.00  0.00    +0.008 A 
ATOM     18  C   UNL     1      -1.758   2.278  23.340  0.00  0.00    +0.008 A 
ATOM     19  C   UNL     1       0.032   2.401  25.477  0.00  0.00    +0.023 A 
ATOM     20  C   UNL     1      -0.481   1.730  23.213  0.00  0.00    +0.023 A 
ATOM     21  C   UNL     1       0.414   1.793  24.281  0.00  0.00    +0.034 A 
ENDROOT
BRANCH  21   6
ATOM      4  O   UNL     1       1.479  -0.205  22.315  0.00  0.00    -0.270 OA
ATOM      6  N   UNL     1       1.691   1.245  24.154  0.00  0.00    -0.282 N 
ATOM     22  C   UNL     1       2.139   0.310  23.212  0.00  0.00    +0.248 C 
ATOM     30  H   UNL     1       2.366   1.623  24.814  0.00  0.00    +0.155 HD
BRANCH  22  23
ATOM     23  C   UNL     1       3.574  -0.062  23.315  0.00  0.00    +0.037 A 
ATOM     24  C   UNL     1       4.561   0.869  22.989  0.00  0.00    +0.013 A 
ATOM     25  C   UNL     1       3.934  -1.340  23.739  0.00  0.00    +0.013 A 
ATOM     26  C   UNL     1       5.908   0.521  23.088  0.00  0.00    +0.001 A 
ATOM     27  C   UNL     1       5.282  -1.689  23.837  0.00  0.00    +0.001 A 
ATOM     28  C   UNL     1       6.268  -0.758  23.511  0.00  0.00    +0.000 A 
ENDBRANCH  22  23
ENDBRANCH  21   6
BRANCH  14   8
ATOM      8  C   UNL     1      -3.520   3.477  24.673  0.00  0.00    +0.167 C 
BRANCH   8   7
ATOM      1  O   UNL     1      -6.419   3.665  25.079  0.00  0.00    -0.369 OA
ATOM      3  O   UNL     1      -6.272   0.134  24.336  0.00  0.00    -0.273 OA
ATOM      5  N   UNL     1      -4.720   1.465  25.447  0.00  0.00    -0.291 N 
ATOM      7  C   UNL     1      -4.306   2.826  25.814  0.00  0.00    +0.135 C 
ATOM     10  C   UNL     1      -5.526   3.659  26.187  0.00  0.00    +0.185 C 
ATOM     12  C   UNL     1      -5.940   1.217  24.822  0.00  0.00    +0.242 C 
ATOM     13  C   UNL     1      -6.933   2.373  24.838  0.00  0.00    +0.255 C 
BRANCH   5   9
ATOM      9  C   UNL     1      -3.736   0.401  25.590  0.00  0.00    +0.111 C 
BRANCH   9  11
ATOM     11  C   UNL     1      -4.041  -0.800  24.688  0.00  0.00    +0.000 C 
ATOM     15  C   UNL     1      -3.409  -0.640  23.303  0.00  0.00    +0.009 C 
ATOM     16  C   UNL     1      -3.544  -2.089  25.342  0.00  0.00    +0.009 C 
ENDBRANCH   9  11
ENDBRANCH   5   9
ENDBRANCH   8   7
BRANCH   8   2
ATOM      2  O   UNL     1      -4.233   3.307  23.453  0.00  0.00    -0.385 OA
ATOM     29  H   UNL     1      -5.044   3.840  23.485  0.00  0.00    +0.210 HD
ENDBRANCH   8   2
ENDBRANCH  14   8
TORSDOF 7
ENDMDL
MODEL 3
REMARK VINA RESULT:      -1.0      1.615      3.498
REMARK  Name = 56774711
REMARK  9 active torsions:
REMARK  status: ('A' for Active; 'I' for Inactive)
REMARK    1  A    between atoms: O_2  and  C_8
REMARK    2  A    between atoms: N_5  and  C_9
REMARK    3  A    between atoms: N_6  and  C_21
REMARK    4  A    between atoms: C_7  and  C_8
REMARK    5  A    between atoms: C_8  and  C_14
REMARK    6  A    between atoms: C_9  and  C_11
REMARK    7  A    between atoms: C_11  and  C_15
REMARK    8  A    between atoms: C_11  and  C_16
REMARK    9  A    between atoms: C_22  and  C_23
REMARK                            x       y       z     vdW  Elec       q    Type
REMARK                         _______ _______ _______ _____ _____    ______ ____
ROOT
ATOM     14  C   UNL     1      -2.235   2.723  25.630  0.00  0.00    -0.017 A 
ATOM     17  C   UNL     1      -1.915   1.391  25.897  0.00  0.00    +0.008 A 
ATOM     18  C   UNL     1      -1.301   3.555  25.013  0.00  0.00    +0.008 A 
ATOM     19  C   UNL     1      -0.659   0.892  25.547  0.00  0.00    +0.023 A 
ATOM     20  C   UNL     1      -0.047   3.056  24.663  0.00  0.00    +0.023 A 
ATOM     21  C   UNL     1       0.275   1.725  24.931  0.00  0.00    +0.034 A 
ENDROOT
BRANCH  21   6
ATOM      4  O   UNL     1       1.097  -0.009  22.627  0.00  0.00    -0.270 OA
ATOM      6  N   UNL     1       1.530   1.226  24.581  0.00  0.00    -0.282 N 
ATOM     22  C   UNL     1       1.862   0.416  23.487  0.00  0.00    +0.248 C 
ATOM     30  H   UNL     1       2.280   1.541  25.190  0.00  0.00    +0.155 HD
BRANCH  22  23
ATOM     23  C   UNL     1       3.302   0.069  23.365  0.00  0.00    +0.037 A 
ATOM     24  C   UNL     1       3.759  -1.177  23.795  0.00  0.00    +0.013 A 
ATOM     25  C   UNL     1       4.196   0.990  22.819  0.00  0.00    +0.013 A 
ATOM     26  C   UNL     1       5.110  -1.503  23.678  0.00  0.00    +0.001 A 
ATOM     27  C   UNL     1       5.548   0.664  22.702  0.00  0.00    +0.001 A 
ATOM     28  C   UNL     1       6.005  -0.582  23.132  0.00  0.00    +0.000 A 
ENDBRANCH  22  23
ENDBRANCH  21   6
BRANCH  14   8
ATOM      8  C   UNL     1      -3.591   3.261  26.007  0.00  0.00    +0.167 C 
BRANCH   8   7
ATOM      1  O   UNL     1      -3.500   4.034  23.178  0.00  0.00    -0.369 OA
ATOM      3  O   UNL     1      -3.157   0.470  22.707  0.00  0.00    -0.273 OA
ATOM      5  N   UNL     1      -4.363   1.626  24.328  0.00  0.00    -0.291 N 
ATOM      7  C   UNL     1      -4.650   2.923  24.955  0.00  0.00    +0.135 C 
ATOM     10  C   UNL     1      -4.733   4.010  23.889  0.00  0.00    +0.185 C 
ATOM     12  C   UNL     1      -3.577   1.527  23.182  0.00  0.00    +0.242 C 
ATOM     13  C   UNL     1      -3.313   2.839  22.452  0.00  0.00    +0.255 C 
BRANCH   5   9
ATOM      9  C   UNL     1      -4.772   0.426  25.046  0.00  0.00    +0.111 C 
BRANCH   9  11
ATOM     11  C   UNL     1      -3.821  -0.750  24.804  0.00  0.00    +0.000 C 
ATOM     15  C   UNL     1      -3.382  -1.401  26.119  0.00  0.00    +0.009 C 
ATOM     16  C   UNL     1      -4.490  -1.790  23.905  0.00  0.00    +0.009 C 
ENDBRANCH   9  11
ENDBRANCH   5   9
ENDBRANCH   8   7
BRANCH   8   2
ATOM      2  O   UNL     1      -3.515   4.674  26.162  0.00  0.00    -0.385 OA
ATOM     29  H   UNL     1      -3.644   4.896  27.099  0.00  0.00    +0.210 HD
ENDBRANCH   8   2
ENDBRANCH  14   8
TORSDOF 7
ENDMDL
