MODEL 1
REMARK VINA RESULT:      -5.8      0.000      0.000
REMARK  Name = 38029990
REMARK  10 active torsions:
REMARK  status: ('A' for Active; 'I' for Inactive)
REMARK    1  A    between atoms: N_2  and  C_19
REMARK    2  A    between atoms: C_5  and  C_9
REMARK    3  A    between atoms: C_7  and  C_13
REMARK    4  A    between atoms: C_8  and  C_12
REMARK    5  A    between atoms: C_9  and  C_14
REMARK    6  A    between atoms: C_9  and  C_15
REMARK    7  A    between atoms: C_10  and  C_16
REMARK    8  A    between atoms: C_12  and  C_17
REMARK    9  A    between atoms: C_13  and  C_18
REMARK   10  A    between atoms: C_19  and  C_20
REMARK                            x       y       z     vdW  Elec       q    Type
REMARK                         _______ _______ _______ _____ _____    ______ ____
ROOT
ATOM      5  C   UNL     1      -3.230   0.648  24.917  0.00  0.00    -0.000 C 
ATOM      6  C   UNL     1      -1.782   0.513  25.413  0.00  0.00    +0.012 C 
ATOM      7  C   UNL     1      -3.881   1.931  25.491  0.00  0.00    +0.029 C 
ATOM      8  C   UNL     1      -0.915   1.722  25.012  0.00  0.00    +0.023 C 
ATOM     10  C   UNL     1      -1.610   3.036  25.305  0.00  0.00    -0.073 C 
ATOM     11  C   UNL     1      -2.934   3.107  25.529  0.00  0.00    -0.023 C 
ATOM     16  C   UNL     1      -0.741   4.261  25.378  0.00  0.00    +0.039 C 
ENDROOT
BRANCH   5   9
ATOM      9  C   UNL     1      -4.024  -0.608  25.288  0.00  0.00    -0.013 C 
ATOM     14  C   UNL     1      -4.357  -1.416  24.038  0.00  0.00    +0.007 C 
ATOM     15  C   UNL     1      -3.243  -1.455  26.288  0.00  0.00    +0.007 C 
ENDBRANCH   5   9
BRANCH   8  12
ATOM     12  C   UNL     1      -0.496   1.638  23.540  0.00  0.00    +0.103 C 
BRANCH  12  17
ATOM      1  O   UNL     1       0.145  -0.684  23.772  0.00  0.00    -0.276 OA
ATOM      2  N   UNL     1       1.358   0.703  22.355  0.00  0.00    -0.311 N 
ATOM     17  C   UNL     1       0.345   0.413  23.258  0.00  0.00    +0.214 C 
ATOM     25  H   UNL     1       1.442   1.644  21.982  0.00  0.00    +0.149 HD
BRANCH   2  19
ATOM     19  C   UNL     1       2.317  -0.279  21.902  0.00  0.00    +0.141 C 
BRANCH  19  20
ATOM      4  N   UNL     1       4.996  -1.539  24.253  0.00  0.00    -0.263 NA
ATOM     20  C   UNL     1       3.544  -0.306  22.765  0.00  0.00    -0.012 A 
ATOM     21  C   UNL     1       4.355   0.817  22.893  0.00  0.00    +0.008 A 
ATOM     22  C   UNL     1       3.905  -1.449  23.460  0.00  0.00    +0.115 A 
ATOM     23  C   UNL     1       5.486   0.763  23.701  0.00  0.00    +0.020 A 
ATOM     24  C   UNL     1       5.760  -0.428  24.353  0.00  0.00    +0.111 A 
ENDBRANCH  19  20
ENDBRANCH   2  19
ENDBRANCH  12  17
ENDBRANCH   8  12
BRANCH   7  13
ATOM     13  C   UNL     1      -5.139   2.313  24.703  0.00  0.00    +0.126 C 
BRANCH  13  18
ATOM      3  N   UNL     1      -6.221   4.486  25.696  0.00  0.00    -0.197 NA
ATOM     18  C   UNL     1      -5.748   3.523  25.254  0.00  0.00    +0.063 C 
ENDBRANCH  13  18
ENDBRANCH   7  13
TORSDOF 7
ENDMDL
MODEL 2
REMARK VINA RESULT:      -5.7      1.364      2.979
REMARK  Name = 38029990
REMARK  10 active torsions:
REMARK  status: ('A' for Active; 'I' for Inactive)
REMARK    1  A    between atoms: N_2  and  C_19
REMARK    2  A    between atoms: C_5  and  C_9
REMARK    3  A    between atoms: C_7  and  C_13
REMARK    4  A    between atoms: C_8  and  C_12
REMARK    5  A    between atoms: C_9  and  C_14
REMARK    6  A    between atoms: C_9  and  C_15
REMARK    7  A    between atoms: C_10  and  C_16
REMARK    8  A    between atoms: C_12  and  C_17
REMARK    9  A    between atoms: C_13  and  C_18
REMARK   10  A    between atoms: C_19  and  C_20
REMARK                            x       y       z     vdW  Elec       q    Type
REMARK                         _______ _______ _______ _____ _____    ______ ____
ROOT
ATOM      5  C   UNL     1      -3.365   1.780  24.367  0.00  0.00    -0.000 C 
ATOM      6  C   UNL     1      -2.609   0.942  23.325  0.00  0.00    +0.012 C 
ATOM      7  C   UNL     1      -4.637   1.034  24.842  0.00  0.00    +0.029 C 
ATOM      8  C   UNL     1      -2.190  -0.434  23.877  0.00  0.00    +0.023 C 
ATOM     10  C   UNL     1      -3.331  -1.121  24.600  0.00  0.00    -0.073 C 
ATOM     11  C   UNL     1      -4.422  -0.451  25.011  0.00  0.00    -0.023 C 
ATOM     16  C   UNL     1      -3.209  -2.607  24.799  0.00  0.00    +0.039 C 
ENDROOT
BRANCH   5   9
ATOM      9  C   UNL     1      -3.697   3.156  23.784  0.00  0.00    -0.013 C 
ATOM     14  C   UNL     1      -2.805   4.227  24.403  0.00  0.00    +0.007 C 
ATOM     15  C   UNL     1      -3.549   3.141  22.265  0.00  0.00    +0.007 C 
ENDBRANCH   5   9
BRANCH   8  12
ATOM     12  C   UNL     1      -0.959  -0.315  24.782  0.00  0.00    +0.103 C 
BRANCH  12  17
ATOM      1  O   UNL     1       0.500   1.586  24.445  0.00  0.00    -0.276 OA
ATOM      2  N   UNL     1       0.743  -0.296  23.103  0.00  0.00    -0.311 N 
ATOM     17  C   UNL     1       0.163   0.452  24.118  0.00  0.00    +0.214 C 
ATOM     25  H   UNL     1       0.395  -1.230  22.908  0.00  0.00    +0.149 HD
BRANCH   2  19
ATOM     19  C   UNL     1       1.839   0.187  22.296  0.00  0.00    +0.141 C 
BRANCH  19  20
ATOM      4  N   UNL     1       4.635  -1.623  24.085  0.00  0.00    -0.263 NA
ATOM     20  C   UNL     1       3.170  -0.082  22.935  0.00  0.00    -0.012 A 
ATOM     21  C   UNL     1       4.151   0.902  22.989  0.00  0.00    +0.008 A 
ATOM     22  C   UNL     1       3.459  -1.317  23.493  0.00  0.00    +0.115 A 
ATOM     23  C   UNL     1       5.374   0.625  23.590  0.00  0.00    +0.020 A 
ATOM     24  C   UNL     1       5.565  -0.642  24.118  0.00  0.00    +0.111 A 
ENDBRANCH  19  20
ENDBRANCH   2  19
ENDBRANCH  12  17
ENDBRANCH   8  12
BRANCH   7  13
ATOM     13  C   UNL     1      -5.169   1.626  26.152  0.00  0.00    +0.126 C 
BRANCH  13  18
ATOM      3  N   UNL     1      -6.166   4.021  25.764  0.00  0.00    -0.197 NA
ATOM     18  C   UNL     1      -5.727   2.960  25.929  0.00  0.00    +0.063 C 
ENDBRANCH  13  18
ENDBRANCH   7  13
TORSDOF 7
ENDMDL
MODEL 3
REMARK VINA RESULT:      -4.9      1.499      3.310
REMARK  Name = 38029990
REMARK  10 active torsions:
REMARK  status: ('A' for Active; 'I' for Inactive)
REMARK    1  A    between atoms: N_2  and  C_19
REMARK    2  A    between atoms: C_5  and  C_9
REMARK    3  A    between atoms: C_7  and  C_13
REMARK    4  A    between atoms: C_8  and  C_12
REMARK    5  A    between atoms: C_9  and  C_14
REMARK    6  A    between atoms: C_9  and  C_15
REMARK    7  A    between atoms: C_10  and  C_16
REMARK    8  A    between atoms: C_12  and  C_17
REMARK    9  A    between atoms: C_13  and  C_18
REMARK   10  A    between atoms: C_19  and  C_20
REMARK                            x       y       z     vdW  Elec       q    Type
REMARK                         _______ _______ _______ _____ _____    ______ ____
ROOT
ATOM      5  C   UNL     1      -2.486   3.247  25.058  0.00  0.00    -0.000 C 
ATOM      6  C   UNL     1      -1.702   2.592  23.911  0.00  0.00    +0.012 C 
ATOM      7  C   UNL     1      -4.002   2.966  24.906  0.00  0.00    +0.029 C 
ATOM      8  C   UNL     1      -1.913   1.067  23.858  0.00  0.00    +0.023 C 
ATOM     10  C   UNL     1      -3.378   0.697  23.974  0.00  0.00    -0.073 C 
ATOM     11  C   UNL     1      -4.298   1.564  24.432  0.00  0.00    -0.023 C 
ATOM     16  C   UNL     1      -3.768  -0.679  23.508  0.00  0.00    +0.039 C 
ENDROOT
BRANCH   5   9
ATOM      9  C   UNL     1      -2.186   4.748  25.100  0.00  0.00    -0.013 C 
ATOM     14  C   UNL     1      -0.697   5.001  24.891  0.00  0.00    +0.007 C 
ATOM     15  C   UNL     1      -3.013   5.486  24.050  0.00  0.00    +0.007 C 
ENDBRANCH   5   9
BRANCH   8  12
ATOM     12  C   UNL     1      -1.080   0.356  24.930  0.00  0.00    +0.103 C 
BRANCH  12  17
ATOM      1  O   UNL     1       0.183  -1.701  24.766  0.00  0.00    -0.276 OA
ATOM      2  N   UNL     1       0.563   0.001  23.230  0.00  0.00    -0.311 N 
ATOM     17  C   UNL     1      -0.057  -0.580  24.327  0.00  0.00    +0.214 C 
ATOM     25  H   UNL     1       0.293   0.937  22.940  0.00  0.00    +0.149 HD
BRANCH   2  19
ATOM     19  C   UNL     1       1.586  -0.665  22.457  0.00  0.00    +0.141 C 
BRANCH  19  20
ATOM      4  N   UNL     1       4.751   1.269  23.188  0.00  0.00    -0.263 NA
ATOM     20  C   UNL     1       2.965  -0.343  22.952  0.00  0.00    -0.012 A 
ATOM     21  C   UNL     1       3.731  -1.300  23.610  0.00  0.00    +0.008 A 
ATOM     22  C   UNL     1       3.515   0.915  22.768  0.00  0.00    +0.115 A 
ATOM     23  C   UNL     1       5.007  -0.973  24.057  0.00  0.00    +0.020 A 
ATOM     24  C   UNL     1       5.466   0.313  23.824  0.00  0.00    +0.111 A 
ENDBRANCH  19  20
ENDBRANCH   2  19
ENDBRANCH  12  17
ENDBRANCH   8  12
BRANCH   7  13
ATOM     13  C   UNL     1      -4.747   3.230  26.220  0.00  0.00    +0.126 C 
BRANCH  13  18
ATOM      3  N   UNL     1      -6.823   1.642  26.433  0.00  0.00    -0.197 NA
ATOM     18  C   UNL     1      -5.906   2.346  26.345  0.00  0.00    +0.063 C 
ENDBRANCH  13  18
ENDBRANCH   7  13
TORSDOF 7
ENDMDL
MODEL 4
REMARK VINA RESULT:      -4.3      3.093      5.270
REMARK  Name = 38029990
REMARK  10 active torsions:
REMARK  status: ('A' for Active; 'I' for Inactive)
REMARK    1  A    between atoms: N_2  and  C_19
REMARK    2  A    between atoms: C_5  and  C_9
REMARK    3  A    between atoms: C_7  and  C_13
REMARK    4  A    between atoms: C_8  and  C_12
REMARK    5  A    between atoms: C_9  and  C_14
REMARK    6  A    between atoms: C_9  and  C_15
REMARK    7  A    between atoms: C_10  and  C_16
REMARK    8  A    between atoms: C_12  and  C_17
REMARK    9  A    between atoms: C_13  and  C_18
REMARK   10  A    between atoms: C_19  and  C_20
REMARK                            x       y       z     vdW  Elec       q    Type
REMARK                         _______ _______ _______ _____ _____    ______ ____
ROOT
ATOM      5  C   UNL     1      -2.847   1.305  23.821  0.00  0.00    -0.000 C 
ATOM      6  C   UNL     1      -2.345   0.106  23.003  0.00  0.00    +0.012 C 
ATOM      7  C   UNL     1      -4.233   0.994  24.440  0.00  0.00    +0.029 C 
ATOM      8  C   UNL     1      -2.223  -1.171  23.856  0.00  0.00    +0.023 C 
ATOM     10  C   UNL     1      -3.457  -1.401  24.706  0.00  0.00    -0.073 C 
ATOM     11  C   UNL     1      -4.350  -0.425  24.944  0.00  0.00    -0.023 C 
ATOM     16  C   UNL     1      -3.663  -2.793  25.237  0.00  0.00    +0.039 C 
ENDROOT
BRANCH   5   9
ATOM      9  C   UNL     1      -2.887   2.555  22.938  0.00  0.00    -0.013 C 
ATOM     14  C   UNL     1      -2.600   2.190  21.485  0.00  0.00    +0.007 C 
ATOM     15  C   UNL     1      -4.237   3.254  23.064  0.00  0.00    +0.007 C 
ENDBRANCH   5   9
BRANCH   8  12
ATOM     12  C   UNL     1      -0.959  -1.139  24.722  0.00  0.00    +0.103 C 
BRANCH  12  17
ATOM      1  O   UNL     1       0.448   0.420  23.519  0.00  0.00    -0.276 OA
ATOM      2  N   UNL     1      -0.264   0.944  25.668  0.00  0.00    -0.311 N 
ATOM     17  C   UNL     1      -0.178   0.143  24.538  0.00  0.00    +0.214 C 
ATOM     25  H   UNL     1      -0.810   0.629  26.465  0.00  0.00    +0.149 HD
BRANCH   2  19
ATOM     19  C   UNL     1       0.386   2.230  25.775  0.00  0.00    +0.141 C 
BRANCH  19  20
ATOM      4  N   UNL     1      -2.684   4.383  26.263  0.00  0.00    -0.263 NA
ATOM     20  C   UNL     1      -0.585   3.365  25.629  0.00  0.00    -0.012 A 
ATOM     21  C   UNL     1      -0.326   4.422  24.762  0.00  0.00    +0.008 A 
ATOM     22  C   UNL     1      -1.768   3.393  26.350  0.00  0.00    +0.115 A 
ATOM     23  C   UNL     1      -1.245   5.459  24.646  0.00  0.00    +0.020 A 
ATOM     24  C   UNL     1      -2.398   5.393  25.411  0.00  0.00    +0.111 A 
ENDBRANCH  19  20
ENDBRANCH   2  19
ENDBRANCH  12  17
ENDBRANCH   8  12
BRANCH   7  13
ATOM     13  C   UNL     1      -4.561   1.969  25.577  0.00  0.00    +0.126 C 
BRANCH  13  18
ATOM      3  N   UNL     1      -6.984   1.560  26.493  0.00  0.00    -0.197 NA
ATOM     18  C   UNL     1      -5.912   1.734  26.088  0.00  0.00    +0.063 C 
ENDBRANCH  13  18
ENDBRANCH   7  13
TORSDOF 7
ENDMDL
MODEL 5
REMARK VINA RESULT:      -4.2     16.769     18.987
REMARK  Name = 38029990
REMARK  10 active torsions:
REMARK  status: ('A' for Active; 'I' for Inactive)
REMARK    1  A    between atoms: N_2  and  C_19
REMARK    2  A    between atoms: C_5  and  C_9
REMARK    3  A    between atoms: C_7  and  C_13
REMARK    4  A    between atoms: C_8  and  C_12
REMARK    5  A    between atoms: C_9  and  C_14
REMARK    6  A    between atoms: C_9  and  C_15
REMARK    7  A    between atoms: C_10  and  C_16
REMARK    8  A    between atoms: C_12  and  C_17
REMARK    9  A    between atoms: C_13  and  C_18
REMARK   10  A    between atoms: C_19  and  C_20
REMARK                            x       y       z     vdW  Elec       q    Type
REMARK                         _______ _______ _______ _____ _____    ______ ____
ROOT
ATOM      5  C   UNL     1      14.401  -7.248  30.239  0.00  0.00    -0.000 C 
ATOM      6  C   UNL     1      14.518  -6.575  28.864  0.00  0.00    +0.012 C 
ATOM      7  C   UNL     1      14.065  -8.752  30.078  0.00  0.00    +0.029 C 
ATOM      8  C   UNL     1      15.603  -7.226  27.986  0.00  0.00    +0.023 C 
ATOM     10  C   UNL     1      15.500  -8.739  27.993  0.00  0.00    -0.073 C 
ATOM     11  C   UNL     1      14.797  -9.401  28.928  0.00  0.00    -0.023 C 
ATOM     16  C   UNL     1      16.186  -9.469  26.872  0.00  0.00    +0.039 C 
ENDROOT
BRANCH   5   9
ATOM      9  C   UNL     1      13.355  -6.519  31.087  0.00  0.00    -0.013 C 
ATOM     14  C   UNL     1      13.772  -5.070  31.317  0.00  0.00    +0.007 C 
ATOM     15  C   UNL     1      11.985  -6.588  30.418  0.00  0.00    +0.007 C 
ENDBRANCH   5   9
BRANCH   8  12
ATOM     12  C   UNL     1      17.004  -6.770  28.409  0.00  0.00    +0.103 C 
BRANCH  12  17
ATOM      1  O   UNL     1      17.074  -4.615  29.507  0.00  0.00    -0.276 OA
ATOM      2  N   UNL     1      17.272  -4.728  27.194  0.00  0.00    -0.311 N 
ATOM     17  C   UNL     1      17.118  -5.263  28.466  0.00  0.00    +0.214 C 
ATOM     25  H   UNL     1      17.299  -5.349  26.390  0.00  0.00    +0.149 HD
BRANCH   2  19
ATOM     19  C   UNL     1      17.405  -3.312  26.945  0.00  0.00    +0.141 C 
BRANCH  19  20
ATOM      4  N   UNL     1      17.193  -3.773  23.199  0.00  0.00    -0.263 NA
ATOM     20  C   UNL     1      17.341  -2.990  25.481  0.00  0.00    -0.012 A 
ATOM     21  C   UNL     1      17.369  -1.672  25.035  0.00  0.00    +0.008 A 
ATOM     22  C   UNL     1      17.253  -3.995  24.531  0.00  0.00    +0.115 A 
ATOM     23  C   UNL     1      17.309  -1.404  23.672  0.00  0.00    +0.020 A 
ATOM     24  C   UNL     1      17.223  -2.480  22.803  0.00  0.00    +0.111 A 
ENDBRANCH  19  20
ENDBRANCH   2  19
ENDBRANCH  12  17
ENDBRANCH   8  12
BRANCH   7  13
ATOM     13  C   UNL     1      14.356  -9.524  31.370  0.00  0.00    +0.126 C 
BRANCH  13  18
ATOM      3  N   UNL     1      16.929  -9.568  31.875  0.00  0.00    -0.197 NA
ATOM     18  C   UNL     1      15.791  -9.542  31.653  0.00  0.00    +0.063 C 
ENDBRANCH  13  18
ENDBRANCH   7  13
TORSDOF 7
ENDMDL
MODEL 6
REMARK VINA RESULT:      -3.9     14.712     17.757
REMARK  Name = 38029990
REMARK  10 active torsions:
REMARK  status: ('A' for Active; 'I' for Inactive)
REMARK    1  A    between atoms: N_2  and  C_19
REMARK    2  A    between atoms: C_5  and  C_9
REMARK    3  A    between atoms: C_7  and  C_13
REMARK    4  A    between atoms: C_8  and  C_12
REMARK    5  A    between atoms: C_9  and  C_14
REMARK    6  A    between atoms: C_9  and  C_15
REMARK    7  A    between atoms: C_10  and  C_16
REMARK    8  A    between atoms: C_12  and  C_17
REMARK    9  A    between atoms: C_13  and  C_18
REMARK   10  A    between atoms: C_19  and  C_20
REMARK                            x       y       z     vdW  Elec       q    Type
REMARK                         _______ _______ _______ _____ _____    ______ ____
ROOT
ATOM      5  C   UNL     1      -3.152 -10.059  13.137  0.00  0.00    -0.000 C 
ATOM      6  C   UNL     1      -4.393 -10.781  12.592  0.00  0.00    +0.012 C 
ATOM      7  C   UNL     1      -2.050  -9.983  12.050  0.00  0.00    +0.029 C 
ATOM      8  C   UNL     1      -4.979 -10.079  11.352  0.00  0.00    +0.023 C 
ATOM     10  C   UNL     1      -3.903  -9.728  10.344  0.00  0.00    -0.073 C 
ATOM     11  C   UNL     1      -2.599  -9.704  10.671  0.00  0.00    -0.023 C 
ATOM     16  C   UNL     1      -4.358  -9.450   8.937  0.00  0.00    +0.039 C 
ENDROOT
BRANCH   5   9
ATOM      9  C   UNL     1      -2.655 -10.764  14.402  0.00  0.00    -0.013 C 
ATOM     14  C   UNL     1      -1.395 -10.086  14.930  0.00  0.00    +0.007 C 
ATOM     15  C   UNL     1      -3.749 -10.780  15.467  0.00  0.00    +0.007 C 
ENDBRANCH   5   9
BRANCH   8  12
ATOM     12  C   UNL     1      -5.785  -8.837  11.749  0.00  0.00    +0.103 C 
BRANCH  12  17
ATOM      1  O   UNL     1      -8.011  -9.225  10.885  0.00  0.00    -0.276 OA
ATOM      2  N   UNL     1      -7.650  -9.271  13.181  0.00  0.00    -0.311 N 
ATOM     17  C   UNL     1      -7.264  -9.131  11.855  0.00  0.00    +0.214 C 
ATOM     25  H   UNL     1      -6.955  -9.177  13.917  0.00  0.00    +0.149 HD
BRANCH   2  19
ATOM     19  C   UNL     1      -9.009  -9.555  13.582  0.00  0.00    +0.141 C 
BRANCH  19  20
ATOM      4  N   UNL     1      -8.953  -9.924  17.344  0.00  0.00    -0.263 NA
ATOM     20  C   UNL     1      -9.238  -9.264  15.036  0.00  0.00    -0.012 A 
ATOM     21  C   UNL     1      -9.921  -8.121  15.439  0.00  0.00    +0.008 A 
ATOM     22  C   UNL     1      -8.778 -10.126  16.019  0.00  0.00    +0.115 A 
ATOM     23  C   UNL     1     -10.120  -7.879  16.794  0.00  0.00    +0.020 A 
ATOM     24  C   UNL     1      -9.621  -8.803  17.698  0.00  0.00    +0.111 A 
ENDBRANCH  19  20
ENDBRANCH   2  19
ENDBRANCH  12  17
ENDBRANCH   8  12
BRANCH   7  13
ATOM     13  C   UNL     1      -0.996  -8.928  12.405  0.00  0.00    +0.126 C 
BRANCH  13  18
ATOM      3  N   UNL     1       0.888  -8.832  10.583  0.00  0.00    -0.197 NA
ATOM     18  C   UNL     1       0.051  -8.877  11.384  0.00  0.00    +0.063 C 
ENDBRANCH  13  18
ENDBRANCH   7  13
TORSDOF 7
ENDMDL
MODEL 7
REMARK VINA RESULT:      -3.9      2.622      6.514
REMARK  Name = 38029990
REMARK  10 active torsions:
REMARK  status: ('A' for Active; 'I' for Inactive)
REMARK    1  A    between atoms: N_2  and  C_19
REMARK    2  A    between atoms: C_5  and  C_9
REMARK    3  A    between atoms: C_7  and  C_13
REMARK    4  A    between atoms: C_8  and  C_12
REMARK    5  A    between atoms: C_9  and  C_14
REMARK    6  A    between atoms: C_9  and  C_15
REMARK    7  A    between atoms: C_10  and  C_16
REMARK    8  A    between atoms: C_12  and  C_17
REMARK    9  A    between atoms: C_13  and  C_18
REMARK   10  A    between atoms: C_19  and  C_20
REMARK                            x       y       z     vdW  Elec       q    Type
REMARK                         _______ _______ _______ _____ _____    ______ ____
ROOT
ATOM      5  C   UNL     1      -1.825   0.258  24.458  0.00  0.00    -0.000 C 
ATOM      6  C   UNL     1      -1.312   1.408  23.579  0.00  0.00    +0.012 C 
ATOM      7  C   UNL     1      -1.332  -1.104  23.909  0.00  0.00    +0.029 C 
ATOM      8  C   UNL     1       0.226   1.441  23.501  0.00  0.00    +0.023 C 
ATOM     10  C   UNL     1       0.806   0.067  23.225  0.00  0.00    -0.073 C 
ATOM     11  C   UNL     1       0.089  -1.057  23.401  0.00  0.00    -0.023 C 
ATOM     16  C   UNL     1       2.214   0.020  22.699  0.00  0.00    +0.039 C 
ENDROOT
BRANCH   5   9
ATOM      9  C   UNL     1      -3.352   0.316  24.549  0.00  0.00    -0.013 C 
ATOM     14  C   UNL     1      -3.984  -0.403  23.362  0.00  0.00    +0.007 C 
ATOM     15  C   UNL     1      -3.831  -0.289  25.866  0.00  0.00    +0.007 C 
ENDBRANCH   5   9
BRANCH   8  12
ATOM     12  C   UNL     1       0.831   2.046  24.772  0.00  0.00    +0.103 C 
BRANCH  12  17
ATOM      1  O   UNL     1      -0.502   2.568  26.723  0.00  0.00    -0.276 OA
ATOM      2  N   UNL     1      -0.708   3.876  24.813  0.00  0.00    -0.311 N 
ATOM     17  C   UNL     1      -0.187   2.833  25.566  0.00  0.00    +0.214 C 
ATOM     25  H   UNL     1      -0.381   4.017  23.861  0.00  0.00    +0.149 HD
BRANCH   2  19
ATOM     19  C   UNL     1      -1.703   4.794  25.317  0.00  0.00    +0.141 C 
BRANCH  19  20
ATOM      4  N   UNL     1      -4.982   3.429  26.614  0.00  0.00    -0.263 NA
ATOM     20  C   UNL     1      -3.073   4.184  25.336  0.00  0.00    -0.012 A 
ATOM     21  C   UNL     1      -3.707   3.808  24.155  0.00  0.00    +0.008 A 
ATOM     22  C   UNL     1      -3.748   3.975  26.528  0.00  0.00    +0.115 A 
ATOM     23  C   UNL     1      -4.976   3.243  24.203  0.00  0.00    +0.020 A 
ATOM     24  C   UNL     1      -5.565   3.077  25.446  0.00  0.00    +0.111 A 
ENDBRANCH  19  20
ENDBRANCH   2  19
ENDBRANCH  12  17
ENDBRANCH   8  12
BRANCH   7  13
ATOM     13  C   UNL     1      -1.460  -2.206  24.968  0.00  0.00    +0.126 C 
BRANCH  13  18
ATOM      3  N   UNL     1      -3.603  -3.656  24.541  0.00  0.00    -0.197 NA
ATOM     18  C   UNL     1      -2.651  -3.020  24.727  0.00  0.00    +0.063 C 
ENDBRANCH  13  18
ENDBRANCH   7  13
TORSDOF 7
ENDMDL
MODEL 8
REMARK VINA RESULT:      -3.9      1.222      1.452
REMARK  Name = 38029990
REMARK  10 active torsions:
REMARK  status: ('A' for Active; 'I' for Inactive)
REMARK    1  A    between atoms: N_2  and  C_19
REMARK    2  A    between atoms: C_5  and  C_9
REMARK    3  A    between atoms: C_7  and  C_13
REMARK    4  A    between atoms: C_8  and  C_12
REMARK    5  A    between atoms: C_9  and  C_14
REMARK    6  A    between atoms: C_9  and  C_15
REMARK    7  A    between atoms: C_10  and  C_16
REMARK    8  A    between atoms: C_12  and  C_17
REMARK    9  A    between atoms: C_13  and  C_18
REMARK   10  A    between atoms: C_19  and  C_20
REMARK                            x       y       z     vdW  Elec       q    Type
REMARK                         _______ _______ _______ _____ _____    ______ ____
ROOT
ATOM      5  C   UNL     1      -2.145   0.495  24.939  0.00  0.00    -0.000 C 
ATOM      6  C   UNL     1      -0.972   1.119  25.709  0.00  0.00    +0.012 C 
ATOM      7  C   UNL     1      -3.478   1.174  25.340  0.00  0.00    +0.029 C 
ATOM      8  C   UNL     1      -0.845   2.633  25.450  0.00  0.00    +0.023 C 
ATOM     10  C   UNL     1      -2.182   3.338  25.565  0.00  0.00    -0.073 C 
ATOM     11  C   UNL     1      -3.347   2.667  25.527  0.00  0.00    -0.023 C 
ATOM     16  C   UNL     1      -2.147   4.827  25.771  0.00  0.00    +0.039 C 
ENDROOT
BRANCH   5   9
ATOM      9  C   UNL     1      -2.181  -1.016  25.184  0.00  0.00    -0.013 C 
ATOM     14  C   UNL     1      -0.767  -1.560  25.367  0.00  0.00    +0.007 C 
ATOM     15  C   UNL     1      -3.046  -1.338  26.400  0.00  0.00    +0.007 C 
ENDBRANCH   5   9
BRANCH   8  12
ATOM     12  C   UNL     1      -0.195   2.908  24.090  0.00  0.00    +0.103 C 
BRANCH  12  17
ATOM      1  O   UNL     1      -0.800   0.983  22.755  0.00  0.00    -0.276 OA
ATOM      2  N   UNL     1       1.423   1.312  23.347  0.00  0.00    -0.311 N 
ATOM     17  C   UNL     1       0.073   1.635  23.320  0.00  0.00    +0.214 C 
ATOM     25  H   UNL     1       2.072   1.918  23.841  0.00  0.00    +0.149 HD
BRANCH   2  19
ATOM     19  C   UNL     1       1.969   0.144  22.694  0.00  0.00    +0.141 C 
BRANCH  19  20
ATOM      4  N   UNL     1       4.948  -1.717  24.092  0.00  0.00    -0.263 NA
ATOM     20  C   UNL     1       3.369  -0.150  23.146  0.00  0.00    -0.012 A 
ATOM     21  C   UNL     1       4.368   0.814  23.057  0.00  0.00    +0.008 A 
ATOM     22  C   UNL     1       3.707  -1.389  23.666  0.00  0.00    +0.115 A 
ATOM     23  C   UNL     1       5.656   0.513  23.485  0.00  0.00    +0.020 A 
ATOM     24  C   UNL     1       5.892  -0.755  23.990  0.00  0.00    +0.111 A 
ENDBRANCH  19  20
ENDBRANCH   2  19
ENDBRANCH  12  17
ENDBRANCH   8  12
BRANCH   7  13
ATOM     13  C   UNL     1      -4.578   0.883  24.313  0.00  0.00    +0.126 C 
BRANCH  13  18
ATOM      3  N   UNL     1      -6.827   2.053  24.984  0.00  0.00    -0.197 NA
ATOM     18  C   UNL     1      -5.829   1.539  24.692  0.00  0.00    +0.063 C 
ENDBRANCH  13  18
ENDBRANCH   7  13
TORSDOF 7
ENDMDL
MODEL 9
REMARK VINA RESULT:      -3.7     17.606     19.455
REMARK  Name = 38029990
REMARK  10 active torsions:
REMARK  status: ('A' for Active; 'I' for Inactive)
REMARK    1  A    between atoms: N_2  and  C_19
REMARK    2  A    between atoms: C_5  and  C_9
REMARK    3  A    between atoms: C_7  and  C_13
REMARK    4  A    between atoms: C_8  and  C_12
REMARK    5  A    between atoms: C_9  and  C_14
REMARK    6  A    between atoms: C_9  and  C_15
REMARK    7  A    between atoms: C_10  and  C_16
REMARK    8  A    between atoms: C_12  and  C_17
REMARK    9  A    between atoms: C_13  and  C_18
REMARK   10  A    between atoms: C_19  and  C_20
REMARK                            x       y       z     vdW  Elec       q    Type
REMARK                         _______ _______ _______ _____ _____    ______ ____
ROOT
ATOM      5  C   UNL     1      15.111  -7.864  29.618  0.00  0.00    -0.000 C 
ATOM      6  C   UNL     1      14.852  -7.008  28.369  0.00  0.00    +0.012 C 
ATOM      7  C   UNL     1      14.783  -9.351  29.332  0.00  0.00    +0.029 C 
ATOM      8  C   UNL     1      15.691  -7.470  27.162  0.00  0.00    +0.023 C 
ATOM     10  C   UNL     1      15.632  -8.974  26.977  0.00  0.00    -0.073 C 
ATOM     11  C   UNL     1      15.210  -9.796  27.954  0.00  0.00    -0.023 C 
ATOM     16  C   UNL     1      16.024  -9.506  25.626  0.00  0.00    +0.039 C 
ENDROOT
BRANCH   5   9
ATOM      9  C   UNL     1      14.301  -7.319  30.797  0.00  0.00    -0.013 C 
ATOM     14  C   UNL     1      15.222  -6.982  31.966  0.00  0.00    +0.007 C 
ATOM     15  C   UNL     1      13.498  -6.093  30.370  0.00  0.00    +0.007 C 
ENDBRANCH   5   9
BRANCH   8  12
ATOM     12  C   UNL     1      17.141  -6.989  27.280  0.00  0.00    +0.103 C 
BRANCH  12  17
ATOM      1  O   UNL     1      17.320  -4.945  25.999  0.00  0.00    -0.276 OA
ATOM      2  N   UNL     1      17.295  -4.842  28.320  0.00  0.00    -0.311 N 
ATOM     17  C   UNL     1      17.260  -5.493  27.096  0.00  0.00    +0.214 C 
ATOM     25  H   UNL     1      17.236  -5.385  29.178  0.00  0.00    +0.149 HD
BRANCH   2  19
ATOM     19  C   UNL     1      17.405  -3.407  28.449  0.00  0.00    +0.141 C 
BRANCH  19  20
ATOM      4  N   UNL     1      17.001  -1.190  31.484  0.00  0.00    -0.263 NA
ATOM     20  C   UNL     1      16.977  -2.929  29.805  0.00  0.00    -0.012 A 
ATOM     21  C   UNL     1      16.193  -3.727  30.632  0.00  0.00    +0.008 A 
ATOM     22  C   UNL     1      17.352  -1.680  30.274  0.00  0.00    +0.115 A 
ATOM     23  C   UNL     1      15.812  -3.257  31.884  0.00  0.00    +0.020 A 
ATOM     24  C   UNL     1      16.239  -1.994  32.260  0.00  0.00    +0.111 A 
ENDBRANCH  19  20
ENDBRANCH   2  19
ENDBRANCH  12  17
ENDBRANCH   8  12
BRANCH   7  13
ATOM     13  C   UNL     1      15.417 -10.268  30.385  0.00  0.00    +0.126 C 
BRANCH  13  18
ATOM      3  N   UNL     1      13.708 -10.781  32.307  0.00  0.00    -0.197 NA
ATOM     18  C   UNL     1      14.466 -10.561  31.457  0.00  0.00    +0.063 C 
ENDBRANCH  13  18
ENDBRANCH   7  13
TORSDOF 7
ENDMDL
MODEL 10
REMARK VINA RESULT:      -3.7      3.191      5.904
REMARK  Name = 38029990
REMARK  10 active torsions:
REMARK  status: ('A' for Active; 'I' for Inactive)
REMARK    1  A    between atoms: N_2  and  C_19
REMARK    2  A    between atoms: C_5  and  C_9
REMARK    3  A    between atoms: C_7  and  C_13
REMARK    4  A    between atoms: C_8  and  C_12
REMARK    5  A    between atoms: C_9  and  C_14
REMARK    6  A    between atoms: C_9  and  C_15
REMARK    7  A    between atoms: C_10  and  C_16
REMARK    8  A    between atoms: C_12  and  C_17
REMARK    9  A    between atoms: C_13  and  C_18
REMARK   10  A    between atoms: C_19  and  C_20
REMARK                            x       y       z     vdW  Elec       q    Type
REMARK                         _______ _______ _______ _____ _____    ______ ____
ROOT
ATOM      5  C   UNL     1      -3.634  -0.757  24.916  0.00  0.00    -0.000 C 
ATOM      6  C   UNL     1      -5.007  -0.437  24.308  0.00  0.00    +0.012 C 
ATOM      7  C   UNL     1      -2.509  -0.072  24.100  0.00  0.00    +0.029 C 
ATOM      8  C   UNL     1      -5.288   1.077  24.266  0.00  0.00    +0.023 C 
ATOM     10  C   UNL     1      -4.107   1.853  23.717  0.00  0.00    -0.073 C 
ATOM     11  C   UNL     1      -2.876   1.318  23.638  0.00  0.00    -0.023 C 
ATOM     16  C   UNL     1      -4.385   3.244  23.217  0.00  0.00    +0.039 C 
ENDROOT
BRANCH   5   9
ATOM      9  C   UNL     1      -3.440  -2.274  24.990  0.00  0.00    -0.013 C 
ATOM     14  C   UNL     1      -4.230  -2.967  23.884  0.00  0.00    +0.007 C 
ATOM     15  C   UNL     1      -1.958  -2.626  24.899  0.00  0.00    +0.007 C 
ENDBRANCH   5   9
BRANCH   8  12
ATOM     12  C   UNL     1      -5.695   1.603  25.647  0.00  0.00    +0.103 C 
BRANCH  12  17
ATOM      1  O   UNL     1      -5.815   4.019  25.690  0.00  0.00    -0.276 OA
ATOM      2  N   UNL     1      -3.873   2.956  26.397  0.00  0.00    -0.311 N 
ATOM     17  C   UNL     1      -5.169   2.997  25.902  0.00  0.00    +0.214 C 
ATOM     25  H   UNL     1      -3.420   2.058  26.541  0.00  0.00    +0.149 HD
BRANCH   2  19
ATOM     19  C   UNL     1      -3.118   4.142  26.731  0.00  0.00    +0.141 C 
BRANCH  19  20
ATOM      4  N   UNL     1       0.066   3.453  24.813  0.00  0.00    -0.263 NA
ATOM     20  C   UNL     1      -1.947   4.341  25.813  0.00  0.00    -0.012 A 
ATOM     21  C   UNL     1      -1.768   5.538  25.129  0.00  0.00    +0.008 A 
ATOM     22  C   UNL     1      -1.010   3.338  25.623  0.00  0.00    +0.115 A 
ATOM     23  C   UNL     1      -0.673   5.694  24.286  0.00  0.00    +0.020 A 
ATOM     24  C   UNL     1       0.207   4.631  24.164  0.00  0.00    +0.111 A 
ENDBRANCH  19  20
ENDBRANCH   2  19
ENDBRANCH  12  17
ENDBRANCH   8  12
BRANCH   7  13
ATOM     13  C   UNL     1      -1.202  -0.016  24.900  0.00  0.00    +0.126 C 
BRANCH  13  18
ATOM      3  N   UNL     1       0.863   0.037  23.283  0.00  0.00    -0.197 NA
ATOM     18  C   UNL     1      -0.046   0.012  24.003  0.00  0.00    +0.063 C 
ENDBRANCH  13  18
ENDBRANCH   7  13
TORSDOF 7
ENDMDL
