MODEL 1
REMARK VINA RESULT:       3.8      0.000      0.000
REMARK  Name = 11867501
REMARK  9 active torsions:
REMARK  status: ('A' for Active; 'I' for Inactive)
REMARK    1  A    between atoms: O_6  and  C_17
REMARK    2  A    between atoms: O_6  and  C_21
REMARK    3  A    between atoms: N_8  and  C_16
REMARK    4  A    between atoms: N_12  and  C_28
REMARK    5  A    between atoms: N_13  and  C_27
REMARK    6  A    between atoms: N_13  and  C_32
REMARK    7  A    between atoms: N_13  and  C_33
REMARK    8  A    between atoms: C_20  and  C_22
REMARK    9  A    between atoms: C_31  and  C_36
REMARK                            x       y       z     vdW  Elec       q    Type
REMARK                         _______ _______ _______ _____ _____    ______ ____
ROOT
ATOM      4  O   UNL     1      -2.623  -0.195  24.932  0.00  0.00    -0.368 OA
ATOM      5  O   UNL     1      -4.914  -1.836  23.661  0.00  0.00    -0.368 OA
ATOM     14  C   UNL     1      -4.859  -0.991  24.832  0.00  0.00    +0.177 C 
ATOM     15  C   UNL     1      -3.497  -1.203  25.463  0.00  0.00    +0.192 C 
ATOM     16  C   UNL     1      -4.858   0.465  24.407  0.00  0.00    +0.168 C 
ATOM     17  C   UNL     1      -3.117  -2.582  24.977  0.00  0.00    +0.235 C 
ATOM     18  C   UNL     1      -3.381   0.739  24.151  0.00  0.00    +0.190 C 
ATOM     19  C   UNL     1      -3.703  -2.601  23.584  0.00  0.00    +0.207 C 
ENDROOT
BRANCH  16   8
ATOM      8  N   UNL     1      -5.497   1.338  25.396  0.00  0.00    -0.217 N 
ATOM      9  N   UNL     1      -6.636   0.968  25.991  0.00  0.00    -0.043 NA
ATOM     10  N   UNL     1      -5.984   2.967  26.732  0.00  0.00    -0.108 NA
ATOM     11  N   UNL     1      -6.931   1.971  26.809  0.00  0.00    -0.023 NA
ATOM     20  C   UNL     1      -5.104   2.551  25.849  0.00  0.00    +0.182 A 
BRANCH  20  22
ATOM     22  C   UNL     1      -3.917   3.244  25.415  0.00  0.00    +0.021 A 
ATOM     23  C   UNL     1      -3.913   3.930  24.199  0.00  0.00    +0.013 A 
ATOM     24  C   UNL     1      -2.771   3.231  26.210  0.00  0.00    +0.013 A 
ATOM     25  C   UNL     1      -2.764   4.600  23.780  0.00  0.00    +0.024 A 
ATOM     26  C   UNL     1      -1.621   3.900  25.790  0.00  0.00    +0.024 A 
ATOM     27  C   UNL     1      -1.618   4.585  24.575  0.00  0.00    +0.029 A 
BRANCH  27  13
ATOM     13  N   UNL     1      -0.457   5.264  24.150  0.00  0.00    -0.336 N 
ATOM     32  C   UNL     1       0.166   6.258  25.001  0.00  0.00    +0.129 C 
ATOM     33  C   UNL     1       0.119   4.988  22.849  0.00  0.00    +0.129 C 
ENDBRANCH  27  13
ENDBRANCH  20  22
ENDBRANCH  16   8
BRANCH  17   6
ATOM      6  O   UNL     1      -1.728  -2.815  24.973  0.00  0.00    -0.442 OA
BRANCH   6  21
ATOM      7  O   UNL     1      -0.732  -1.252  26.312  0.00  0.00    -0.226 OA
ATOM     12  N   UNL     1      -0.369  -1.300  24.001  0.00  0.00    -0.251 N 
ATOM     21  C   UNL     1      -0.911  -1.726  25.197  0.00  0.00    +0.405 C 
ATOM     37  H   UNL     1      -0.639  -1.828  23.173  0.00  0.00    +0.158 HD
BRANCH  12  28
ATOM     28  C   UNL     1       0.517  -0.222  23.781  0.00  0.00    +0.037 A 
ATOM     29  C   UNL     1       1.833  -0.482  23.437  0.00  0.00    +0.035 A 
ATOM     30  C   UNL     1       0.051   1.077  23.915  0.00  0.00    +0.023 A 
ATOM     31  C   UNL     1       2.707   0.584  23.220  0.00  0.00    +0.057 A 
ATOM     34  C   UNL     1       0.924   2.143  23.697  0.00  0.00    +0.002 A 
ATOM     35  C   UNL     1       2.253   1.896  23.350  0.00  0.00    +0.012 A 
BRANCH  31  36
ATOM      1  F   UNL     1       4.572  -0.914  23.227  0.00  0.00    -0.166 F 
ATOM      2  F   UNL     1       5.010   1.203  23.402  0.00  0.00    -0.166 F 
ATOM      3  F   UNL     1       4.339   0.388  21.501  0.00  0.00    -0.166 F 
ATOM     36  C   UNL     1       4.127   0.321  22.848  0.00  0.00    +0.417 C 
ENDBRANCH  31  36
ENDBRANCH  12  28
ENDBRANCH   6  21
ENDBRANCH  17   6
TORSDOF 7
ENDMDL
MODEL 2
REMARK VINA RESULT:       4.2      2.321      4.515
REMARK  Name = 11867501
REMARK  9 active torsions:
REMARK  status: ('A' for Active; 'I' for Inactive)
REMARK    1  A    between atoms: O_6  and  C_17
REMARK    2  A    between atoms: O_6  and  C_21
REMARK    3  A    between atoms: N_8  and  C_16
REMARK    4  A    between atoms: N_12  and  C_28
REMARK    5  A    between atoms: N_13  and  C_27
REMARK    6  A    between atoms: N_13  and  C_32
REMARK    7  A    between atoms: N_13  and  C_33
REMARK    8  A    between atoms: C_20  and  C_22
REMARK    9  A    between atoms: C_31  and  C_36
REMARK                            x       y       z     vdW  Elec       q    Type
REMARK                         _______ _______ _______ _____ _____    ______ ____
ROOT
ATOM      4  O   UNL     1      -2.405   3.614  24.830  0.00  0.00    -0.368 OA
ATOM      5  O   UNL     1      -3.571   2.485  22.199  0.00  0.00    -0.368 OA
ATOM     14  C   UNL     1      -3.786   2.135  23.584  0.00  0.00    +0.177 C 
ATOM     15  C   UNL     1      -2.450   2.285  24.286  0.00  0.00    +0.192 C 
ATOM     16  C   UNL     1      -4.677   3.173  24.238  0.00  0.00    +0.168 C 
ATOM     17  C   UNL     1      -1.461   2.110  23.159  0.00  0.00    +0.235 C 
ATOM     18  C   UNL     1      -3.683   4.245  24.671  0.00  0.00    +0.190 C 
ATOM     19  C   UNL     1      -2.178   2.766  22.002  0.00  0.00    +0.207 C 
ENDROOT
BRANCH  16   8
ATOM      8  N   UNL     1      -5.502   2.609  25.310  0.00  0.00    -0.217 N 
ATOM      9  N   UNL     1      -6.437   3.353  25.908  0.00  0.00    -0.043 NA
ATOM     10  N   UNL     1      -6.395   1.303  26.783  0.00  0.00    -0.108 NA
ATOM     11  N   UNL     1      -6.982   2.547  26.811  0.00  0.00    -0.023 NA
ATOM     20  C   UNL     1      -5.480   1.365  25.843  0.00  0.00    +0.182 A 
BRANCH  20  22
ATOM     22  C   UNL     1      -4.590   0.310  25.429  0.00  0.00    +0.021 A 
ATOM     23  C   UNL     1      -3.425   0.053  26.156  0.00  0.00    +0.013 A 
ATOM     24  C   UNL     1      -4.890  -0.456  24.302  0.00  0.00    +0.013 A 
ATOM     25  C   UNL     1      -2.564  -0.969  25.755  0.00  0.00    +0.024 A 
ATOM     26  C   UNL     1      -4.027  -1.476  23.901  0.00  0.00    +0.024 A 
ATOM     27  C   UNL     1      -2.865  -1.733  24.627  0.00  0.00    +0.029 A 
BRANCH  27  13
ATOM     13  N   UNL     1      -1.993  -2.766  24.223  0.00  0.00    -0.336 N 
ATOM     32  C   UNL     1      -2.451  -3.801  23.318  0.00  0.00    +0.129 C 
ATOM     33  C   UNL     1      -0.632  -2.813  24.720  0.00  0.00    +0.129 C 
ENDBRANCH  27  13
ENDBRANCH  20  22
ENDBRANCH  16   8
BRANCH  17   6
ATOM      6  O   UNL     1      -0.207   2.703  23.412  0.00  0.00    -0.442 OA
BRANCH   6  21
ATOM      7  O   UNL     1       0.919   1.952  25.254  0.00  0.00    -0.226 OA
ATOM     12  N   UNL     1       1.396   1.146  23.109  0.00  0.00    -0.251 N 
ATOM     21  C   UNL     1       0.737   1.921  24.043  0.00  0.00    +0.405 C 
ATOM     37  H   UNL     1       1.100   1.261  22.142  0.00  0.00    +0.158 HD
BRANCH  12  28
ATOM     28  C   UNL     1       2.431   0.210  23.329  0.00  0.00    +0.037 A 
ATOM     29  C   UNL     1       3.748   0.640  23.329  0.00  0.00    +0.035 A 
ATOM     30  C   UNL     1       2.109  -1.121  23.539  0.00  0.00    +0.023 A 
ATOM     31  C   UNL     1       4.770  -0.285  23.546  0.00  0.00    +0.057 A 
ATOM     34  C   UNL     1       3.130  -2.046  23.757  0.00  0.00    +0.002 A 
ATOM     35  C   UNL     1       4.461  -1.628  23.759  0.00  0.00    +0.012 A 
BRANCH  31  36
ATOM      1  F   UNL     1       6.871  -0.159  22.408  0.00  0.00    -0.166 F 
ATOM      2  F   UNL     1       6.932  -0.374  24.566  0.00  0.00    -0.166 F 
ATOM      3  F   UNL     1       6.318   1.515  23.682  0.00  0.00    -0.166 F 
ATOM     36  C   UNL     1       6.192   0.162  23.550  0.00  0.00    +0.417 C 
ENDBRANCH  31  36
ENDBRANCH  12  28
ENDBRANCH   6  21
ENDBRANCH  17   6
TORSDOF 7
ENDMDL
MODEL 3
REMARK VINA RESULT:       4.8      2.044      4.949
REMARK  Name = 11867501
REMARK  9 active torsions:
REMARK  status: ('A' for Active; 'I' for Inactive)
REMARK    1  A    between atoms: O_6  and  C_17
REMARK    2  A    between atoms: O_6  and  C_21
REMARK    3  A    between atoms: N_8  and  C_16
REMARK    4  A    between atoms: N_12  and  C_28
REMARK    5  A    between atoms: N_13  and  C_27
REMARK    6  A    between atoms: N_13  and  C_32
REMARK    7  A    between atoms: N_13  and  C_33
REMARK    8  A    between atoms: C_20  and  C_22
REMARK    9  A    between atoms: C_31  and  C_36
REMARK                            x       y       z     vdW  Elec       q    Type
REMARK                         _______ _______ _______ _____ _____    ______ ____
ROOT
ATOM      4  O   UNL     1      -1.840   2.521  24.472  0.00  0.00    -0.368 OA
ATOM      5  O   UNL     1      -2.248   5.180  25.995  0.00  0.00    -0.368 OA
ATOM     14  C   UNL     1      -3.143   4.369  25.204  0.00  0.00    +0.177 C 
ATOM     15  C   UNL     1      -2.328   3.806  24.056  0.00  0.00    +0.192 C 
ATOM     16  C   UNL     1      -3.563   3.150  26.003  0.00  0.00    +0.168 C 
ATOM     17  C   UNL     1      -1.207   4.810  23.922  0.00  0.00    +0.235 C 
ATOM     18  C   UNL     1      -2.436   2.162  25.727  0.00  0.00    +0.190 C 
ATOM     19  C   UNL     1      -0.962   5.206  25.359  0.00  0.00    +0.207 C 
ENDROOT
BRANCH  16   8
ATOM      8  N   UNL     1      -4.908   2.685  25.653  0.00  0.00    -0.217 N 
ATOM      9  N   UNL     1      -5.958   3.505  25.760  0.00  0.00    -0.043 NA
ATOM     10  N   UNL     1      -6.605   1.504  25.019  0.00  0.00    -0.108 NA
ATOM     11  N   UNL     1      -6.997   2.777  25.370  0.00  0.00    -0.023 NA
ATOM     20  C   UNL     1      -5.305   1.472  25.201  0.00  0.00    +0.182 A 
BRANCH  20  22
ATOM     22  C   UNL     1      -4.425   0.354  24.972  0.00  0.00    +0.021 A 
ATOM     23  C   UNL     1      -4.083  -0.494  26.027  0.00  0.00    +0.013 A 
ATOM     24  C   UNL     1      -3.914   0.117  23.695  0.00  0.00    +0.013 A 
ATOM     25  C   UNL     1      -3.231  -1.576  25.805  0.00  0.00    +0.024 A 
ATOM     26  C   UNL     1      -3.062  -0.965  23.474  0.00  0.00    +0.024 A 
ATOM     27  C   UNL     1      -2.720  -1.812  24.528  0.00  0.00    +0.029 A 
BRANCH  27  13
ATOM     13  N   UNL     1      -1.860  -2.907  24.304  0.00  0.00    -0.336 N 
ATOM     32  C   UNL     1      -0.603  -3.011  25.018  0.00  0.00    +0.129 C 
ATOM     33  C   UNL     1      -2.215  -3.934  23.345  0.00  0.00    +0.129 C 
ENDBRANCH  27  13
ENDBRANCH  20  22
ENDBRANCH  16   8
BRANCH  17   6
ATOM      6  O   UNL     1      -0.051   4.286  23.310  0.00  0.00    -0.442 OA
BRANCH   6  21
ATOM      7  O   UNL     1       0.520   3.025  25.130  0.00  0.00    -0.226 OA
ATOM     12  N   UNL     1       1.110   2.385  22.957  0.00  0.00    -0.251 N 
ATOM     21  C   UNL     1       0.537   3.196  23.917  0.00  0.00    +0.405 C 
ATOM     37  H   UNL     1       1.018   2.697  21.993  0.00  0.00    +0.158 HD
BRANCH  12  28
ATOM     28  C   UNL     1       1.811   1.173  23.146  0.00  0.00    +0.037 A 
ATOM     29  C   UNL     1       3.187   1.201  23.308  0.00  0.00    +0.035 A 
ATOM     30  C   UNL     1       1.108  -0.021  23.166  0.00  0.00    +0.023 A 
ATOM     31  C   UNL     1       3.878   0.003  23.496  0.00  0.00    +0.057 A 
ATOM     34  C   UNL     1       1.798  -1.218  23.354  0.00  0.00    +0.002 A 
ATOM     35  C   UNL     1       3.184  -1.206  23.518  0.00  0.00    +0.012 A 
BRANCH  31  36
ATOM      1  F   UNL     1       6.048  -0.301  22.536  0.00  0.00    -0.166 F 
ATOM      2  F   UNL     1       5.805  -0.864  24.616  0.00  0.00    -0.166 F 
ATOM      3  F   UNL     1       5.831   1.237  24.057  0.00  0.00    -0.166 F 
ATOM     36  C   UNL     1       5.358   0.016  23.672  0.00  0.00    +0.417 C 
ENDBRANCH  31  36
ENDBRANCH  12  28
ENDBRANCH   6  21
ENDBRANCH  17   6
TORSDOF 7
ENDMDL
