MODEL 1
REMARK VINA RESULT:       3.1      0.000      0.000
REMARK  Name = 25338410
REMARK  5 active torsions:
REMARK  status: ('A' for Active; 'I' for Inactive)
REMARK    1  A    between atoms: N_4  and  C_14
REMARK    2  A    between atoms: N_5  and  C_9
REMARK    3  A    between atoms: C_10  and  C_13
REMARK    4  A    between atoms: C_15  and  C_17
REMARK    5  A    between atoms: C_16  and  C_18
REMARK                            x       y       z     vdW  Elec       q    Type
REMARK                         _______ _______ _______ _____ _____    ______ ____
ROOT
ATOM      4  N   UNL     1      -2.271  -1.816  25.259  0.00  0.00    -0.293 NA
ATOM      9  C   UNL     1      -4.191  -0.981  24.234  0.00  0.00    +0.089 C 
ATOM     10  C   UNL     1      -1.882  -1.680  23.841  0.00  0.00    +0.147 C 
ATOM     11  C   UNL     1      -3.087  -0.988  23.175  0.00  0.00    +0.052 C 
ATOM     12  C   UNL     1      -3.725  -2.001  25.261  0.00  0.00    +0.107 C 
ATOM     14  C   UNL     1      -1.582  -2.905  25.942  0.00  0.00    +0.105 C 
ENDROOT
BRANCH  10  13
ATOM      2  O   UNL     1      -0.701   0.411  23.395  0.00  0.00    -0.336 OA
ATOM      6  N   UNL     1       0.644  -1.359  23.662  0.00  0.00    -0.190 NA
ATOM      7  N   UNL     1       0.606   0.890  23.244  0.00  0.00    -0.056 NA
ATOM     13  C   UNL     1      -0.590  -0.920  23.639  0.00  0.00    +0.245 A 
ATOM     16  C   UNL     1       1.342  -0.212  23.416  0.00  0.00    +0.202 A 
BRANCH  16  18
ATOM      1 CL   UNL     1       7.280  -0.172  23.141  0.00  0.00    -0.084 Cl
ATOM     18  C   UNL     1       2.774  -0.203  23.347  0.00  0.00    +0.023 A 
ATOM     20  C   UNL     1       3.500  -1.310  23.785  0.00  0.00    +0.013 A 
ATOM     21  C   UNL     1       3.443   0.914  22.846  0.00  0.00    +0.013 A 
ATOM     24  C   UNL     1       4.894  -1.302  23.721  0.00  0.00    +0.021 A 
ATOM     25  C   UNL     1       4.835   0.924  22.782  0.00  0.00    +0.021 A 
ATOM     27  C   UNL     1       5.561  -0.184  23.220  0.00  0.00    +0.041 A 
ENDBRANCH  16  18
ENDBRANCH  10  13
BRANCH   9   5
ATOM      3  O   UNL     1      -3.371   1.526  23.099  0.00  0.00    -0.269 OA
ATOM      5  N   UNL     1      -4.349   0.326  24.825  0.00  0.00    -0.306 N 
ATOM     15  C   UNL     1      -3.920   1.485  24.197  0.00  0.00    +0.263 C 
ATOM     28  H   UNL     1      -4.746   0.389  25.759  0.00  0.00    +0.149 HD
BRANCH  15  17
ATOM      8  N   UNL     1      -5.422   3.131  25.098  0.00  0.00    -0.250 NA
ATOM     17  C   UNL     1      -4.134   2.748  24.948  0.00  0.00    +0.125 A 
ATOM     19  C   UNL     1      -3.051   3.458  25.445  0.00  0.00    +0.033 A 
ATOM     22  C   UNL     1      -3.308   4.635  26.138  0.00  0.00    +0.004 A 
ATOM     23  C   UNL     1      -5.632   4.280  25.778  0.00  0.00    +0.111 A 
ATOM     26  C   UNL     1      -4.620   5.061  26.312  0.00  0.00    +0.020 A 
ENDBRANCH  15  17
ENDBRANCH   9   5
TORSDOF 4
ENDMDL
MODEL 2
REMARK VINA RESULT:       4.8      3.122      4.085
REMARK  Name = 25338410
REMARK  5 active torsions:
REMARK  status: ('A' for Active; 'I' for Inactive)
REMARK    1  A    between atoms: N_4  and  C_14
REMARK    2  A    between atoms: N_5  and  C_9
REMARK    3  A    between atoms: C_10  and  C_13
REMARK    4  A    between atoms: C_15  and  C_17
REMARK    5  A    between atoms: C_16  and  C_18
REMARK                            x       y       z     vdW  Elec       q    Type
REMARK                         _______ _______ _______ _____ _____    ______ ____
ROOT
ATOM      4  N   UNL     1      -2.269   0.515  24.728  0.00  0.00    -0.293 NA
ATOM      9  C   UNL     1      -2.284   2.743  25.414  0.00  0.00    +0.089 C 
ATOM     10  C   UNL     1      -1.628   1.233  23.608  0.00  0.00    +0.147 C 
ATOM     11  C   UNL     1      -1.491   2.685  24.107  0.00  0.00    +0.052 C 
ATOM     12  C   UNL     1      -3.147   1.490  25.380  0.00  0.00    +0.107 C 
ATOM     14  C   UNL     1      -2.997  -0.676  24.305  0.00  0.00    +0.105 C 
ENDROOT
BRANCH  10  13
ATOM      2  O   UNL     1      -0.334  -0.231  22.141  0.00  0.00    -0.336 OA
ATOM      6  N   UNL     1       0.891   0.827  23.688  0.00  0.00    -0.190 NA
ATOM      7  N   UNL     1       0.989  -0.646  21.941  0.00  0.00    -0.056 NA
ATOM     13  C   UNL     1      -0.303   0.635  23.187  0.00  0.00    +0.245 A 
ATOM     16  C   UNL     1       1.651   0.022  22.891  0.00  0.00    +0.202 A 
BRANCH  16  18
ATOM      1 CL   UNL     1       7.529  -0.458  23.642  0.00  0.00    -0.084 Cl
ATOM     18  C   UNL     1       3.069  -0.094  23.069  0.00  0.00    +0.023 A 
ATOM     20  C   UNL     1       3.611  -1.266  23.596  0.00  0.00    +0.013 A 
ATOM     21  C   UNL     1       3.906   0.966  22.721  0.00  0.00    +0.013 A 
ATOM     24  C   UNL     1       4.991  -1.379  23.773  0.00  0.00    +0.021 A 
ATOM     25  C   UNL     1       5.285   0.853  22.898  0.00  0.00    +0.021 A 
ATOM     27  C   UNL     1       5.827  -0.319  23.424  0.00  0.00    +0.041 A 
ENDBRANCH  16  18
ENDBRANCH  10  13
BRANCH   9   5
ATOM      3  O   UNL     1       0.586   2.653  25.389  0.00  0.00    -0.269 OA
ATOM      5  N   UNL     1      -1.411   2.749  26.564  0.00  0.00    -0.306 N 
ATOM     15  C   UNL     1      -0.030   2.704  26.450  0.00  0.00    +0.263 C 
ATOM     28  H   UNL     1      -1.831   2.736  27.489  0.00  0.00    +0.149 HD
BRANCH  15  17
ATOM      8  N   UNL     1       2.052   2.942  27.628  0.00  0.00    -0.250 NA
ATOM     17  C   UNL     1       0.726   2.692  27.728  0.00  0.00    +0.125 A 
ATOM     19  C   UNL     1       0.074   2.435  28.924  0.00  0.00    +0.033 A 
ATOM     22  C   UNL     1       0.831   2.433  30.090  0.00  0.00    +0.004 A 
ATOM     23  C   UNL     1       2.754   2.931  28.783  0.00  0.00    +0.111 A 
ATOM     26  C   UNL     1       2.196   2.685  30.027  0.00  0.00    +0.020 A 
ENDBRANCH  15  17
ENDBRANCH   9   5
TORSDOF 4
ENDMDL
MODEL 3
REMARK VINA RESULT:       5.6      2.002      4.860
REMARK  Name = 25338410
REMARK  5 active torsions:
REMARK  status: ('A' for Active; 'I' for Inactive)
REMARK    1  A    between atoms: N_4  and  C_14
REMARK    2  A    between atoms: N_5  and  C_9
REMARK    3  A    between atoms: C_10  and  C_13
REMARK    4  A    between atoms: C_15  and  C_17
REMARK    5  A    between atoms: C_16  and  C_18
REMARK                            x       y       z     vdW  Elec       q    Type
REMARK                         _______ _______ _______ _____ _____    ______ ____
ROOT
ATOM      4  N   UNL     1      -4.140   3.570  23.919  0.00  0.00    -0.293 NA
ATOM      9  C   UNL     1      -5.027   2.424  25.745  0.00  0.00    +0.089 C 
ATOM     10  C   UNL     1      -3.167   3.822  25.000  0.00  0.00    +0.147 C 
ATOM     11  C   UNL     1      -3.656   2.949  26.172  0.00  0.00    +0.052 C 
ATOM     12  C   UNL     1      -5.423   3.322  24.583  0.00  0.00    +0.107 C 
ATOM     14  C   UNL     1      -4.227   4.662  22.957  0.00  0.00    +0.105 C 
ENDROOT
BRANCH  10  13
ATOM      2  O   UNL     1      -0.896   4.585  24.521  0.00  0.00    -0.336 OA
ATOM      6  N   UNL     1      -1.177   2.372  24.330  0.00  0.00    -0.190 NA
ATOM      7  N   UNL     1       0.350   4.065  24.148  0.00  0.00    -0.056 NA
ATOM     13  C   UNL     1      -1.737   3.522  24.607  0.00  0.00    +0.245 A 
ATOM     16  C   UNL     1       0.104   2.755  24.056  0.00  0.00    +0.202 A 
BRANCH  16  18
ATOM      1 CL   UNL     1       4.290  -1.190  22.555  0.00  0.00    -0.084 Cl
ATOM     18  C   UNL     1       1.114   1.804  23.691  0.00  0.00    +0.023 A 
ATOM     20  C   UNL     1       0.821   0.441  23.697  0.00  0.00    +0.013 A 
ATOM     21  C   UNL     1       2.389   2.241  23.335  0.00  0.00    +0.013 A 
ATOM     24  C   UNL     1       1.803  -0.486  23.345  0.00  0.00    +0.021 A 
ATOM     25  C   UNL     1       3.371   1.316  22.983  0.00  0.00    +0.021 A 
ATOM     27  C   UNL     1       3.078  -0.048  22.989  0.00  0.00    +0.041 A 
ENDBRANCH  16  18
ENDBRANCH  10  13
BRANCH   9   5
ATOM      3  O   UNL     1      -2.707   0.733  25.788  0.00  0.00    -0.269 OA
ATOM      5  N   UNL     1      -4.962   1.039  25.341  0.00  0.00    -0.306 N 
ATOM     15  C   UNL     1      -3.790   0.302  25.399  0.00  0.00    +0.263 C 
ATOM     28  H   UNL     1      -5.797   0.609  24.954  0.00  0.00    +0.149 HD
BRANCH  15  17
ATOM      8  N   UNL     1      -3.275  -2.027  25.701  0.00  0.00    -0.250 NA
ATOM     17  C   UNL     1      -3.882  -1.102  24.923  0.00  0.00    +0.125 A 
ATOM     19  C   UNL     1      -4.556  -1.399  23.749  0.00  0.00    +0.033 A 
ATOM     22  C   UNL     1      -4.610  -2.730  23.348  0.00  0.00    +0.004 A 
ATOM     23  C   UNL     1      -3.348  -3.309  25.280  0.00  0.00    +0.111 A 
ATOM     26  C   UNL     1      -3.997  -3.708  24.122  0.00  0.00    +0.020 A 
ENDBRANCH  15  17
ENDBRANCH   9   5
TORSDOF 4
ENDMDL
MODEL 4
REMARK VINA RESULT:       5.6      1.748      2.513
REMARK  Name = 25338410
REMARK  5 active torsions:
REMARK  status: ('A' for Active; 'I' for Inactive)
REMARK    1  A    between atoms: N_4  and  C_14
REMARK    2  A    between atoms: N_5  and  C_9
REMARK    3  A    between atoms: C_10  and  C_13
REMARK    4  A    between atoms: C_15  and  C_17
REMARK    5  A    between atoms: C_16  and  C_18
REMARK                            x       y       z     vdW  Elec       q    Type
REMARK                         _______ _______ _______ _____ _____    ______ ____
ROOT
ATOM      4  N   UNL     1      -3.402  -0.822  25.783  0.00  0.00    -0.293 NA
ATOM      9  C   UNL     1      -4.317   0.592  24.171  0.00  0.00    +0.089 C 
ATOM     10  C   UNL     1      -2.868  -1.346  24.511  0.00  0.00    +0.147 C 
ATOM     11  C   UNL     1      -3.338  -0.334  23.448  0.00  0.00    +0.052 C 
ATOM     12  C   UNL     1      -4.667  -0.162  25.446  0.00  0.00    +0.107 C 
ATOM     14  C   UNL     1      -3.581  -1.853  26.799  0.00  0.00    +0.105 C 
ENDROOT
BRANCH  10  13
ATOM      2  O   UNL     1      -0.884  -2.577  25.233  0.00  0.00    -0.336 OA
ATOM      6  N   UNL     1      -0.440  -0.813  23.927  0.00  0.00    -0.190 NA
ATOM      7  N   UNL     1       0.508  -2.539  25.091  0.00  0.00    -0.056 NA
ATOM     13  C   UNL     1      -1.366  -1.528  24.516  0.00  0.00    +0.245 A 
ATOM     16  C   UNL     1       0.693  -1.472  24.307  0.00  0.00    +0.202 A 
BRANCH  16  18
ATOM      1 CL   UNL     1       6.082   0.323  22.556  0.00  0.00    -0.084 Cl
ATOM     18  C   UNL     1       1.993  -1.039  23.887  0.00  0.00    +0.023 A 
ATOM     20  C   UNL     1       2.131   0.137  23.150  0.00  0.00    +0.013 A 
ATOM     21  C   UNL     1       3.120  -1.794  24.211  0.00  0.00    +0.013 A 
ATOM     24  C   UNL     1       3.396   0.559  22.738  0.00  0.00    +0.021 A 
ATOM     25  C   UNL     1       4.384  -1.373  23.800  0.00  0.00    +0.021 A 
ATOM     27  C   UNL     1       4.522  -0.197  23.063  0.00  0.00    +0.041 A 
ENDBRANCH  16  18
ENDBRANCH  10  13
BRANCH   9   5
ATOM      3  O   UNL     1      -1.909   1.660  23.030  0.00  0.00    -0.269 OA
ATOM      5  N   UNL     1      -3.718   1.872  24.464  0.00  0.00    -0.306 N 
ATOM     15  C   UNL     1      -2.548   2.303  23.858  0.00  0.00    +0.263 C 
ATOM     28  H   UNL     1      -4.148   2.454  25.178  0.00  0.00    +0.149 HD
BRANCH  15  17
ATOM      8  N   UNL     1      -0.728   3.856  24.087  0.00  0.00    -0.250 NA
ATOM     17  C   UNL     1      -2.047   3.634  24.287  0.00  0.00    +0.125 A 
ATOM     19  C   UNL     1      -2.913   4.557  24.852  0.00  0.00    +0.033 A 
ATOM     22  C   UNL     1      -2.390   5.787  25.238  0.00  0.00    +0.004 A 
ATOM     23  C   UNL     1      -0.257   5.063  24.474  0.00  0.00    +0.111 A 
ATOM     26  C   UNL     1      -1.039   6.052  25.049  0.00  0.00    +0.020 A 
ENDBRANCH  15  17
ENDBRANCH   9   5
TORSDOF 4
ENDMDL
MODEL 5
REMARK VINA RESULT:       5.9      2.995      6.916
REMARK  Name = 25338410
REMARK  5 active torsions:
REMARK  status: ('A' for Active; 'I' for Inactive)
REMARK    1  A    between atoms: N_4  and  C_14
REMARK    2  A    between atoms: N_5  and  C_9
REMARK    3  A    between atoms: C_10  and  C_13
REMARK    4  A    between atoms: C_15  and  C_17
REMARK    5  A    between atoms: C_16  and  C_18
REMARK                            x       y       z     vdW  Elec       q    Type
REMARK                         _______ _______ _______ _____ _____    ______ ____
ROOT
ATOM      4  N   UNL     1      -3.497  -2.008  24.074  0.00  0.00    -0.293 NA
ATOM      9  C   UNL     1      -1.526  -2.603  25.167  0.00  0.00    +0.089 C 
ATOM     10  C   UNL     1      -3.589  -1.311  25.371  0.00  0.00    +0.147 C 
ATOM     11  C   UNL     1      -2.228  -1.569  26.047  0.00  0.00    +0.052 C 
ATOM     12  C   UNL     1      -2.641  -3.175  24.305  0.00  0.00    +0.107 C 
ATOM     14  C   UNL     1      -4.796  -2.384  23.530  0.00  0.00    +0.105 C 
ENDROOT
BRANCH  10  13
ATOM      2  O   UNL     1      -5.173   0.541  25.555  0.00  0.00    -0.336 OA
ATOM      6  N   UNL     1      -3.129   1.150  24.870  0.00  0.00    -0.190 NA
ATOM      7  N   UNL     1      -5.224   1.927  25.362  0.00  0.00    -0.056 NA
ATOM     13  C   UNL     1      -3.905   0.164  25.244  0.00  0.00    +0.245 A 
ATOM     16  C   UNL     1      -3.982   2.212  24.959  0.00  0.00    +0.202 A 
BRANCH  16  18
ATOM      1 CL   UNL     1      -2.233   7.734  23.620  0.00  0.00    -0.084 Cl
ATOM     18  C   UNL     1      -3.561   3.545  24.639  0.00  0.00    +0.023 A 
ATOM     20  C   UNL     1      -4.276   4.296  23.706  0.00  0.00    +0.013 A 
ATOM     21  C   UNL     1      -2.434   4.089  25.255  0.00  0.00    +0.013 A 
ATOM     24  C   UNL     1      -3.866   5.592  23.391  0.00  0.00    +0.021 A 
ATOM     25  C   UNL     1      -2.024   5.384  24.940  0.00  0.00    +0.021 A 
ATOM     27  C   UNL     1      -2.740   6.135  24.008  0.00  0.00    +0.041 A 
ENDBRANCH  16  18
ENDBRANCH  10  13
BRANCH   9   5
ATOM      3  O   UNL     1      -0.552   0.091  25.362  0.00  0.00    -0.269 OA
ATOM      5  N   UNL     1      -0.494  -1.999  24.358  0.00  0.00    -0.306 N 
ATOM     15  C   UNL     1      -0.089  -0.684  24.529  0.00  0.00    +0.263 C 
ATOM     28  H   UNL     1      -0.087  -2.546  23.605  0.00  0.00    +0.149 HD
BRANCH  15  17
ATOM      8  N   UNL     1       1.723   0.822  24.053  0.00  0.00    -0.250 NA
ATOM     17  C   UNL     1       0.966  -0.203  23.601  0.00  0.00    +0.125 A 
ATOM     19  C   UNL     1       1.128  -0.797  22.359  0.00  0.00    +0.033 A 
ATOM     22  C   UNL     1       2.129  -0.307  21.528  0.00  0.00    +0.004 A 
ATOM     23  C   UNL     1       2.686   1.272  23.218  0.00  0.00    +0.111 A 
ATOM     26  C   UNL     1       2.927   0.747  21.959  0.00  0.00    +0.020 A 
ENDBRANCH  15  17
ENDBRANCH   9   5
TORSDOF 4
ENDMDL
MODEL 6
REMARK VINA RESULT:       6.6     16.635     18.373
REMARK  Name = 25338410
REMARK  5 active torsions:
REMARK  status: ('A' for Active; 'I' for Inactive)
REMARK    1  A    between atoms: N_4  and  C_14
REMARK    2  A    between atoms: N_5  and  C_9
REMARK    3  A    between atoms: C_10  and  C_13
REMARK    4  A    between atoms: C_15  and  C_17
REMARK    5  A    between atoms: C_16  and  C_18
REMARK                            x       y       z     vdW  Elec       q    Type
REMARK                         _______ _______ _______ _____ _____    ______ ____
ROOT
ATOM      4  N   UNL     1      16.350  -2.763  29.978  0.00  0.00    -0.293 NA
ATOM      9  C   UNL     1      16.572  -4.647  31.334  0.00  0.00    +0.089 C 
ATOM     10  C   UNL     1      17.354  -3.586  29.276  0.00  0.00    +0.147 C 
ATOM     11  C   UNL     1      17.403  -4.903  30.076  0.00  0.00    +0.052 C 
ATOM     12  C   UNL     1      16.447  -3.132  31.393  0.00  0.00    +0.107 C 
ATOM     14  C   UNL     1      16.537  -1.332  29.774  0.00  0.00    +0.105 C 
ENDROOT
BRANCH  10  13
ATOM      2  O   UNL     1      17.401  -5.006  27.287  0.00  0.00    -0.336 OA
ATOM      6  N   UNL     1      16.460  -3.001  26.958  0.00  0.00    -0.190 NA
ATOM      7  N   UNL     1      17.013  -4.975  25.942  0.00  0.00    -0.056 NA
ATOM     13  C   UNL     1      17.038  -3.806  27.812  0.00  0.00    +0.245 A 
ATOM     16  C   UNL     1      16.465  -3.762  25.824  0.00  0.00    +0.202 A 
BRANCH  16  18
ATOM      1 CL   UNL     1      14.191  -1.770  20.706  0.00  0.00    -0.084 Cl
ATOM     18  C   UNL     1      15.916  -3.279  24.591  0.00  0.00    +0.023 A 
ATOM     20  C   UNL     1      14.694  -3.771  24.133  0.00  0.00    +0.013 A 
ATOM     21  C   UNL     1      16.605  -2.321  23.846  0.00  0.00    +0.013 A 
ATOM     24  C   UNL     1      14.159  -3.304  22.931  0.00  0.00    +0.021 A 
ATOM     25  C   UNL     1      16.072  -1.855  22.646  0.00  0.00    +0.021 A 
ATOM     27  C   UNL     1      14.849  -2.346  22.188  0.00  0.00    +0.041 A 
ENDBRANCH  16  18
ENDBRANCH  10  13
BRANCH   9   5
ATOM      3  O   UNL     1      16.017  -7.456  31.547  0.00  0.00    -0.269 OA
ATOM      5  N   UNL     1      15.277  -5.278  31.252  0.00  0.00    -0.306 N 
ATOM     15  C   UNL     1      15.108  -6.649  31.368  0.00  0.00    +0.263 C 
ATOM     28  H   UNL     1      14.468  -4.697  31.051  0.00  0.00    +0.149 HD
BRANCH  15  17
ATOM      8  N   UNL     1      13.555  -8.484  31.346  0.00  0.00    -0.250 NA
ATOM     17  C   UNL     1      13.714  -7.145  31.235  0.00  0.00    +0.125 A 
ATOM     19  C   UNL     1      12.675  -6.257  31.011  0.00  0.00    +0.033 A 
ATOM     22  C   UNL     1      11.390  -6.776  30.892  0.00  0.00    +0.004 A 
ATOM     23  C   UNL     1      12.293  -8.951  31.225  0.00  0.00    +0.111 A 
ATOM     26  C   UNL     1      11.187  -8.147  31.000  0.00  0.00    +0.020 A 
ENDBRANCH  15  17
ENDBRANCH   9   5
TORSDOF 4
ENDMDL
