MODEL 1
REMARK VINA RESULT:       0.1      0.000      0.000
REMARK  Name = 45360854
REMARK  10 active torsions:
REMARK  status: ('A' for Active; 'I' for Inactive)
REMARK    1  A    between atoms: O_4  and  C_29
REMARK    2  A    between atoms: N_6  and  C_17
REMARK    3  A    between atoms: N_7  and  C_19
REMARK    4  A    between atoms: N_9  and  C_28
REMARK    5  A    between atoms: C_14  and  C_18
REMARK    6  A    between atoms: C_17  and  C_21
REMARK    7  A    between atoms: C_18  and  C_20
REMARK    8  A    between atoms: C_20  and  C_22
REMARK    9  A    between atoms: C_27  and  C_29
REMARK   10  A    between atoms: C_28  and  C_30
REMARK                            x       y       z     vdW  Elec       q    Type
REMARK                         _______ _______ _______ _____ _____    ______ ____
ROOT
ATOM      1  O   UNL     1      -1.013   2.072  23.900  0.00  0.00    -0.274 OA
ATOM      6  N   UNL     1      -0.035  -0.446  23.900  0.00  0.00    -0.286 NA
ATOM      7  N   UNL     1      -3.265  -0.570  25.617  0.00  0.00    -0.296 NA
ATOM      8  N   UNL     1      -3.186   1.444  23.552  0.00  0.00    -0.312 N 
ATOM     10  C   UNL     1      -2.156  -1.164  24.838  0.00  0.00    +0.084 C 
ATOM     11  C   UNL     1      -1.493  -0.308  23.719  0.00  0.00    +0.161 C 
ATOM     12  C   UNL     1      -0.941  -1.571  25.692  0.00  0.00    +0.036 C 
ATOM     13  C   UNL     1       0.186  -1.656  24.685  0.00  0.00    +0.087 C 
ATOM     14  C   UNL     1      -4.479  -0.250  24.814  0.00  0.00    +0.074 C 
ATOM     15  C   UNL     1      -1.845   1.177  23.748  0.00  0.00    +0.232 C 
ATOM     16  C   UNL     1      -4.200   0.413  23.451  0.00  0.00    +0.123 C 
ATOM     19  C   UNL     1      -3.621  -1.426  26.761  0.00  0.00    +0.105 C 
ATOM     34  H   UNL     1      -3.484   2.415  23.537  0.00  0.00    +0.149 HD
ENDROOT
BRANCH   6  17
ATOM     17  C   UNL     1       0.703  -0.464  22.644  0.00  0.00    +0.120 C 
BRANCH  17  21
ATOM     21  C   UNL     1       2.183  -0.295  22.859  0.00  0.00    -0.033 A 
ATOM     23  C   UNL     1       2.802   0.910  22.526  0.00  0.00    +0.006 A 
ATOM     24  C   UNL     1       2.935  -1.341  23.394  0.00  0.00    +0.006 A 
ATOM     25  C   UNL     1       4.172   1.068  22.727  0.00  0.00    +0.015 A 
ATOM     26  C   UNL     1       4.306  -1.182  23.594  0.00  0.00    +0.015 A 
ATOM     27  C   UNL     1       4.925   0.022  23.260  0.00  0.00    +0.059 A 
BRANCH  27  29
ATOM      5  O   UNL     1       7.237  -0.521  22.976  0.00  0.00    -0.245 OA
ATOM     29  C   UNL     1       6.355   0.187  23.471  0.00  0.00    +0.337 C 
BRANCH  29   4
ATOM      4  O   UNL     1       6.642   1.233  24.293  0.00  0.00    -0.477 OA
ATOM     36  H   UNL     1       5.877   1.839  24.393  0.00  0.00    +0.295 HD
ENDBRANCH  29   4
ENDBRANCH  27  29
ENDBRANCH  17  21
ENDBRANCH   6  17
BRANCH  14  18
ATOM     18  C   UNL     1      -5.416   0.688  25.604  0.00  0.00    +0.029 C 
BRANCH  18  20
ATOM     20  C   UNL     1      -5.817   1.882  24.758  0.00  0.00    +0.097 C 
BRANCH  20  22
ATOM      2  O   UNL     1      -6.023   4.212  25.380  0.00  0.00    -0.276 OA
ATOM      9  N   UNL     1      -4.075   3.070  25.912  0.00  0.00    -0.308 N 
ATOM     22  C   UNL     1      -5.347   3.188  25.372  0.00  0.00    +0.213 C 
ATOM     35  H   UNL     1      -3.595   2.175  25.875  0.00  0.00    +0.149 HD
BRANCH   9  28
ATOM     28  C   UNL     1      -3.404   4.175  26.555  0.00  0.00    +0.178 C 
BRANCH  28  30
ATOM      3  O   UNL     1      -1.092   3.729  25.940  0.00  0.00    -0.466 OA
ATOM     30  C   UNL     1      -2.150   4.572  25.823  0.00  0.00    +0.122 A 
ATOM     31  C   UNL     1      -1.826   5.646  25.026  0.00  0.00    +0.046 A 
ATOM     32  C   UNL     1      -0.482   5.449  24.630  0.00  0.00    +0.041 A 
ATOM     33  C   UNL     1      -0.080   4.270  25.212  0.00  0.00    +0.195 A 
ENDBRANCH  28  30
ENDBRANCH   9  28
ENDBRANCH  20  22
ENDBRANCH  18  20
ENDBRANCH  14  18
TORSDOF 9
ENDMDL
MODEL 2
REMARK VINA RESULT:       0.4      2.049      2.722
REMARK  Name = 45360854
REMARK  10 active torsions:
REMARK  status: ('A' for Active; 'I' for Inactive)
REMARK    1  A    between atoms: O_4  and  C_29
REMARK    2  A    between atoms: N_6  and  C_17
REMARK    3  A    between atoms: N_7  and  C_19
REMARK    4  A    between atoms: N_9  and  C_28
REMARK    5  A    between atoms: C_14  and  C_18
REMARK    6  A    between atoms: C_17  and  C_21
REMARK    7  A    between atoms: C_18  and  C_20
REMARK    8  A    between atoms: C_20  and  C_22
REMARK    9  A    between atoms: C_27  and  C_29
REMARK   10  A    between atoms: C_28  and  C_30
REMARK                            x       y       z     vdW  Elec       q    Type
REMARK                         _______ _______ _______ _____ _____    ______ ____
ROOT
ATOM      1  O   UNL     1       0.333   2.073  24.023  0.00  0.00    -0.274 OA
ATOM      6  N   UNL     1      -0.390  -0.512  23.729  0.00  0.00    -0.286 NA
ATOM      7  N   UNL     1      -3.347   1.279  24.931  0.00  0.00    -0.296 NA
ATOM      8  N   UNL     1      -1.654   2.925  23.272  0.00  0.00    -0.312 N 
ATOM     10  C   UNL     1      -2.667   0.171  24.225  0.00  0.00    +0.084 C 
ATOM     11  C   UNL     1      -1.406   0.498  23.372  0.00  0.00    +0.161 C 
ATOM     12  C   UNL     1      -2.145  -0.937  25.159  0.00  0.00    +0.036 C 
ATOM     13  C   UNL     1      -1.100  -1.643  24.319  0.00  0.00    +0.087 C 
ATOM     14  C   UNL     1      -3.931   2.315  24.033  0.00  0.00    +0.074 C 
ATOM     15  C   UNL     1      -0.810   1.884  23.606  0.00  0.00    +0.232 C 
ATOM     16  C   UNL     1      -3.030   2.736  22.856  0.00  0.00    +0.123 C 
ATOM     19  C   UNL     1      -4.375   0.764  25.850  0.00  0.00    +0.105 C 
ATOM     34  H   UNL     1      -1.310   3.874  23.382  0.00  0.00    +0.149 HD
ENDROOT
BRANCH   6  17
ATOM     17  C   UNL     1       0.443  -0.915  22.604  0.00  0.00    +0.120 C 
BRANCH  17  21
ATOM     21  C   UNL     1       1.899  -0.622  22.851  0.00  0.00    -0.033 A 
ATOM     23  C   UNL     1       2.469   0.546  22.343  0.00  0.00    +0.006 A 
ATOM     24  C   UNL     1       2.676  -1.516  23.586  0.00  0.00    +0.006 A 
ATOM     25  C   UNL     1       3.817   0.819  22.573  0.00  0.00    +0.015 A 
ATOM     26  C   UNL     1       4.025  -1.242  23.815  0.00  0.00    +0.015 A 
ATOM     27  C   UNL     1       4.596  -0.075  23.308  0.00  0.00    +0.059 A 
BRANCH  27  29
ATOM      5  O   UNL     1       6.949  -0.313  22.952  0.00  0.00    -0.245 OA
ATOM     29  C   UNL     1       6.002   0.210  23.547  0.00  0.00    +0.337 C 
BRANCH  29   4
ATOM      4  O   UNL     1       6.185   1.141  24.523  0.00  0.00    -0.477 OA
ATOM     36  H   UNL     1       5.527   1.868  24.462  0.00  0.00    +0.295 HD
ENDBRANCH  29   4
ENDBRANCH  27  29
ENDBRANCH  17  21
ENDBRANCH   6  17
BRANCH  14  18
ATOM     18  C   UNL     1      -4.277   3.589  24.832  0.00  0.00    +0.029 C 
BRANCH  18  20
ATOM     20  C   UNL     1      -3.533   3.611  26.155  0.00  0.00    +0.097 C 
BRANCH  20  22
ATOM      2  O   UNL     1      -1.645   4.915  25.384  0.00  0.00    -0.276 OA
ATOM      9  N   UNL     1      -1.256   2.928  26.517  0.00  0.00    -0.308 N 
ATOM     22  C   UNL     1      -2.058   3.914  25.962  0.00  0.00    +0.213 C 
ATOM     35  H   UNL     1      -1.687   2.141  26.994  0.00  0.00    +0.149 HD
BRANCH   9  28
ATOM     28  C   UNL     1       0.185   2.986  26.465  0.00  0.00    +0.178 C 
BRANCH  28  30
ATOM      3  O   UNL     1       2.150   2.938  27.902  0.00  0.00    -0.466 OA
ATOM     30  C   UNL     1       0.805   2.765  27.819  0.00  0.00    +0.122 A 
ATOM     31  C   UNL     1       0.287   2.411  29.044  0.00  0.00    +0.046 A 
ATOM     32  C   UNL     1       1.385   2.364  29.935  0.00  0.00    +0.041 A 
ATOM     33  C   UNL     1       2.495   2.692  29.193  0.00  0.00    +0.195 A 
ENDBRANCH  28  30
ENDBRANCH   9  28
ENDBRANCH  20  22
ENDBRANCH  18  20
ENDBRANCH  14  18
TORSDOF 9
ENDMDL
MODEL 3
REMARK VINA RESULT:       2.4      1.839      7.212
REMARK  Name = 45360854
REMARK  10 active torsions:
REMARK  status: ('A' for Active; 'I' for Inactive)
REMARK    1  A    between atoms: O_4  and  C_29
REMARK    2  A    between atoms: N_6  and  C_17
REMARK    3  A    between atoms: N_7  and  C_19
REMARK    4  A    between atoms: N_9  and  C_28
REMARK    5  A    between atoms: C_14  and  C_18
REMARK    6  A    between atoms: C_17  and  C_21
REMARK    7  A    between atoms: C_18  and  C_20
REMARK    8  A    between atoms: C_20  and  C_22
REMARK    9  A    between atoms: C_27  and  C_29
REMARK   10  A    between atoms: C_28  and  C_30
REMARK                            x       y       z     vdW  Elec       q    Type
REMARK                         _______ _______ _______ _____ _____    ______ ____
ROOT
ATOM      1  O   UNL     1      -3.045   1.701  22.586  0.00  0.00    -0.274 OA
ATOM      6  N   UNL     1      -4.888   0.731  24.305  0.00  0.00    -0.286 NA
ATOM      7  N   UNL     1      -2.072  -1.606  24.350  0.00  0.00    -0.296 NA
ATOM      8  N   UNL     1      -1.243   1.116  23.871  0.00  0.00    -0.312 N 
ATOM     10  C   UNL     1      -3.262  -0.956  24.941  0.00  0.00    +0.084 C 
ATOM     11  C   UNL     1      -3.474   0.567  24.697  0.00  0.00    +0.161 C 
ATOM     12  C   UNL     1      -4.600  -1.548  24.460  0.00  0.00    +0.036 C 
ATOM     13  C   UNL     1      -5.601  -0.454  24.769  0.00  0.00    +0.087 C 
ATOM     14  C   UNL     1      -0.771  -1.100  24.871  0.00  0.00    +0.074 C 
ATOM     15  C   UNL     1      -2.598   1.174  23.604  0.00  0.00    +0.232 C 
ATOM     16  C   UNL     1      -0.683   0.432  25.019  0.00  0.00    +0.123 C 
ATOM     19  C   UNL     1      -2.145  -3.069  24.496  0.00  0.00    +0.105 C 
ATOM     34  H   UNL     1      -0.605   1.524  23.194  0.00  0.00    +0.149 HD
ENDROOT
BRANCH   6  17
ATOM     17  C   UNL     1      -5.486   1.962  24.806  0.00  0.00    +0.120 C 
BRANCH  17  21
ATOM     21  C   UNL     1      -4.484   3.083  24.881  0.00  0.00    -0.033 A 
ATOM     23  C   UNL     1      -3.712   3.251  26.031  0.00  0.00    +0.006 A 
ATOM     24  C   UNL     1      -4.327   3.952  23.802  0.00  0.00    +0.006 A 
ATOM     25  C   UNL     1      -2.782   4.288  26.100  0.00  0.00    +0.015 A 
ATOM     26  C   UNL     1      -3.397   4.990  23.872  0.00  0.00    +0.015 A 
ATOM     27  C   UNL     1      -2.625   5.158  25.022  0.00  0.00    +0.059 A 
BRANCH  27  29
ATOM      5  O   UNL     1      -1.919   7.423  25.334  0.00  0.00    -0.245 OA
ATOM     29  C   UNL     1      -1.655   6.240  25.094  0.00  0.00    +0.337 C 
BRANCH  29   4
ATOM      4  O   UNL     1      -0.383   5.814  24.865  0.00  0.00    -0.477 OA
ATOM     36  H   UNL     1      -0.272   4.864  25.083  0.00  0.00    +0.295 HD
ENDBRANCH  29   4
ENDBRANCH  27  29
ENDBRANCH  17  21
ENDBRANCH   6  17
BRANCH  14  18
ATOM     18  C   UNL     1       0.388  -1.546  23.955  0.00  0.00    +0.029 C 
BRANCH  18  20
ATOM     20  C   UNL     1       0.216  -0.977  22.559  0.00  0.00    +0.097 C 
BRANCH  20  22
ATOM      2  O   UNL     1       1.910  -0.472  20.904  0.00  0.00    -0.276 OA
ATOM      9  N   UNL     1       2.126   0.401  23.043  0.00  0.00    -0.308 N 
ATOM     22  C   UNL     1       1.497  -0.339  22.053  0.00  0.00    +0.213 C 
ATOM     35  H   UNL     1       1.700   0.470  23.964  0.00  0.00    +0.149 HD
BRANCH   9  28
ATOM     28  C   UNL     1       3.364   1.106  22.811  0.00  0.00    +0.178 C 
BRANCH  28  30
ATOM      3  O   UNL     1       4.352  -0.974  23.600  0.00  0.00    -0.466 OA
ATOM     30  C   UNL     1       4.550   0.345  23.340  0.00  0.00    +0.122 A 
ATOM     31  C   UNL     1       5.846   0.705  23.629  0.00  0.00    +0.046 A 
ATOM     32  C   UNL     1       6.485  -0.468  24.097  0.00  0.00    +0.041 A 
ATOM     33  C   UNL     1       5.534  -1.461  24.061  0.00  0.00    +0.195 A 
ENDBRANCH  28  30
ENDBRANCH   9  28
ENDBRANCH  20  22
ENDBRANCH  18  20
ENDBRANCH  14  18
TORSDOF 9
ENDMDL
MODEL 4
REMARK VINA RESULT:       3.2      1.236      2.044
REMARK  Name = 45360854
REMARK  10 active torsions:
REMARK  status: ('A' for Active; 'I' for Inactive)
REMARK    1  A    between atoms: O_4  and  C_29
REMARK    2  A    between atoms: N_6  and  C_17
REMARK    3  A    between atoms: N_7  and  C_19
REMARK    4  A    between atoms: N_9  and  C_28
REMARK    5  A    between atoms: C_14  and  C_18
REMARK    6  A    between atoms: C_17  and  C_21
REMARK    7  A    between atoms: C_18  and  C_20
REMARK    8  A    between atoms: C_20  and  C_22
REMARK    9  A    between atoms: C_27  and  C_29
REMARK   10  A    between atoms: C_28  and  C_30
REMARK                            x       y       z     vdW  Elec       q    Type
REMARK                         _______ _______ _______ _____ _____    ______ ____
ROOT
ATOM      1  O   UNL     1      -2.650  -2.497  23.800  0.00  0.00    -0.274 OA
ATOM      6  N   UNL     1      -0.489  -0.895  23.568  0.00  0.00    -0.286 NA
ATOM      7  N   UNL     1      -3.409   1.300  23.787  0.00  0.00    -0.296 NA
ATOM      8  N   UNL     1      -3.747  -1.143  25.284  0.00  0.00    -0.312 N 
ATOM     10  C   UNL     1      -1.971   0.991  23.941  0.00  0.00    +0.084 C 
ATOM     11  C   UNL     1      -1.566  -0.420  24.458  0.00  0.00    +0.161 C 
ATOM     12  C   UNL     1      -1.166   1.097  22.633  0.00  0.00    +0.036 C 
ATOM     13  C   UNL     1       0.079   0.281  22.917  0.00  0.00    +0.087 C 
ATOM     14  C   UNL     1      -4.183   1.284  25.060  0.00  0.00    +0.074 C 
ATOM     15  C   UNL     1      -2.687  -1.456  24.454  0.00  0.00    +0.232 C 
ATOM     16  C   UNL     1      -3.857   0.109  26.003  0.00  0.00    +0.123 C 
ATOM     19  C   UNL     1      -3.599   2.583  23.090  0.00  0.00    +0.105 C 
ATOM     34  H   UNL     1      -4.517  -1.803  25.345  0.00  0.00    +0.149 HD
ENDROOT
BRANCH   6  17
ATOM     17  C   UNL     1       0.525  -1.683  24.257  0.00  0.00    +0.120 C 
BRANCH  17  21
ATOM     21  C   UNL     1       1.916  -1.196  23.953  0.00  0.00    -0.033 A 
ATOM     23  C   UNL     1       2.103   0.051  23.356  0.00  0.00    +0.006 A 
ATOM     24  C   UNL     1       3.018  -1.990  24.270  0.00  0.00    +0.006 A 
ATOM     25  C   UNL     1       3.392   0.503  23.076  0.00  0.00    +0.015 A 
ATOM     26  C   UNL     1       4.307  -1.538  23.989  0.00  0.00    +0.015 A 
ATOM     27  C   UNL     1       4.495  -0.291  23.391  0.00  0.00    +0.059 A 
BRANCH  27  29
ATOM      5  O   UNL     1       6.622  -0.340  22.299  0.00  0.00    -0.245 OA
ATOM     29  C   UNL     1       5.839   0.181  23.099  0.00  0.00    +0.337 C 
BRANCH  29   4
ATOM      4  O   UNL     1       6.168   1.290  23.816  0.00  0.00    -0.477 OA
ATOM     36  H   UNL     1       5.955   1.186  24.768  0.00  0.00    +0.295 HD
ENDBRANCH  29   4
ENDBRANCH  27  29
ENDBRANCH  17  21
ENDBRANCH   6  17
BRANCH  14  18
ATOM     18  C   UNL     1      -5.698   1.240  24.770  0.00  0.00    +0.029 C 
BRANCH  18  20
ATOM     20  C   UNL     1      -6.450   2.169  25.705  0.00  0.00    +0.097 C 
BRANCH  20  22
ATOM      2  O   UNL     1      -6.310   4.583  25.584  0.00  0.00    -0.276 OA
ATOM      9  N   UNL     1      -4.447   3.377  26.261  0.00  0.00    -0.308 N 
ATOM     22  C   UNL     1      -5.759   3.515  25.833  0.00  0.00    +0.213 C 
ATOM     35  H   UNL     1      -4.079   2.451  26.461  0.00  0.00    +0.149 HD
BRANCH   9  28
ATOM     28  C   UNL     1      -3.577   4.512  26.460  0.00  0.00    +0.178 C 
BRANCH  28  30
ATOM      3  O   UNL     1      -1.540   3.192  26.282  0.00  0.00    -0.466 OA
ATOM     30  C   UNL     1      -2.217   4.289  25.854  0.00  0.00    +0.122 A 
ATOM     31  C   UNL     1      -1.478   4.980  24.922  0.00  0.00    +0.046 A 
ATOM     32  C   UNL     1      -0.268   4.261  24.768  0.00  0.00    +0.041 A 
ATOM     33  C   UNL     1      -0.354   3.182  25.617  0.00  0.00    +0.195 A 
ENDBRANCH  28  30
ENDBRANCH   9  28
ENDBRANCH  20  22
ENDBRANCH  18  20
ENDBRANCH  14  18
TORSDOF 9
ENDMDL
MODEL 5
REMARK VINA RESULT:       3.5      2.906      7.338
REMARK  Name = 45360854
REMARK  10 active torsions:
REMARK  status: ('A' for Active; 'I' for Inactive)
REMARK    1  A    between atoms: O_4  and  C_29
REMARK    2  A    between atoms: N_6  and  C_17
REMARK    3  A    between atoms: N_7  and  C_19
REMARK    4  A    between atoms: N_9  and  C_28
REMARK    5  A    between atoms: C_14  and  C_18
REMARK    6  A    between atoms: C_17  and  C_21
REMARK    7  A    between atoms: C_18  and  C_20
REMARK    8  A    between atoms: C_20  and  C_22
REMARK    9  A    between atoms: C_27  and  C_29
REMARK   10  A    between atoms: C_28  and  C_30
REMARK                            x       y       z     vdW  Elec       q    Type
REMARK                         _______ _______ _______ _____ _____    ______ ____
ROOT
ATOM      1  O   UNL     1       0.937   2.769  27.048  0.00  0.00    -0.274 OA
ATOM      6  N   UNL     1       0.232   3.768  24.640  0.00  0.00    -0.286 NA
ATOM      7  N   UNL     1       0.382   0.130  24.269  0.00  0.00    -0.296 NA
ATOM      8  N   UNL     1      -0.432   0.939  26.916  0.00  0.00    -0.312 N 
ATOM     10  C   UNL     1      -0.097   1.480  23.898  0.00  0.00    +0.084 C 
ATOM     11  C   UNL     1      -0.405   2.497  25.036  0.00  0.00    +0.161 C 
ATOM     12  C   UNL     1       0.889   2.272  23.018  0.00  0.00    +0.036 C 
ATOM     13  C   UNL     1       0.446   3.709  23.198  0.00  0.00    +0.087 C 
ATOM     14  C   UNL     1      -0.599  -0.678  25.048  0.00  0.00    +0.074 C 
ATOM     15  C   UNL     1       0.119   2.102  26.414  0.00  0.00    +0.232 C 
ATOM     16  C   UNL     1      -1.334   0.092  26.162  0.00  0.00    +0.123 C 
ATOM     19  C   UNL     1       0.825  -0.615  23.079  0.00  0.00    +0.105 C 
ATOM     34  H   UNL     1      -0.143   0.633  27.840  0.00  0.00    +0.149 HD
ENDROOT
BRANCH   6  17
ATOM     17  C   UNL     1      -0.534   4.944  25.033  0.00  0.00    +0.120 C 
BRANCH  17  21
ATOM     21  C   UNL     1      -1.978   4.611  25.295  0.00  0.00    -0.033 A 
ATOM     23  C   UNL     1      -2.386   4.235  26.575  0.00  0.00    +0.006 A 
ATOM     24  C   UNL     1      -2.909   4.681  24.258  0.00  0.00    +0.006 A 
ATOM     25  C   UNL     1      -3.724   3.928  26.817  0.00  0.00    +0.015 A 
ATOM     26  C   UNL     1      -4.248   4.374  24.502  0.00  0.00    +0.015 A 
ATOM     27  C   UNL     1      -4.656   3.996  25.781  0.00  0.00    +0.059 A 
BRANCH  27  29
ATOM      5  O   UNL     1      -6.470   2.605  26.484  0.00  0.00    -0.245 OA
ATOM     29  C   UNL     1      -6.052   3.677  26.035  0.00  0.00    +0.337 C 
BRANCH  29   4
ATOM      4  O   UNL     1      -6.886   4.706  25.721  0.00  0.00    -0.477 OA
ATOM     36  H   UNL     1      -7.805   4.397  25.570  0.00  0.00    +0.295 HD
ENDBRANCH  29   4
ENDBRANCH  27  29
ENDBRANCH  17  21
ENDBRANCH   6  17
BRANCH  14  18
ATOM     18  C   UNL     1       0.100  -1.889  25.703  0.00  0.00    +0.029 C 
BRANCH  18  20
ATOM     20  C   UNL     1      -0.602  -3.181  25.326  0.00  0.00    +0.097 C 
BRANCH  20  22
ATOM      2  O   UNL     1      -1.747  -3.115  23.195  0.00  0.00    -0.276 OA
ATOM      9  N   UNL     1      -2.888  -2.469  25.109  0.00  0.00    -0.308 N 
ATOM     22  C   UNL     1      -1.784  -2.929  24.408  0.00  0.00    +0.213 C 
ATOM     35  H   UNL     1      -2.832  -2.361  26.118  0.00  0.00    +0.149 HD
BRANCH   9  28
ATOM     28  C   UNL     1      -4.139  -2.155  24.460  0.00  0.00    +0.178 C 
BRANCH  28  30
ATOM      3  O   UNL     1      -3.348  -0.161  23.310  0.00  0.00    -0.466 OA
ATOM     30  C   UNL     1      -4.264  -0.684  24.165  0.00  0.00    +0.122 A 
ATOM     31  C   UNL     1      -5.140   0.288  24.590  0.00  0.00    +0.046 A 
ATOM     32  C   UNL     1      -4.735   1.486  23.954  0.00  0.00    +0.041 A 
ATOM     33  C   UNL     1      -3.641   1.160  23.186  0.00  0.00    +0.195 A 
ENDBRANCH  28  30
ENDBRANCH   9  28
ENDBRANCH  20  22
ENDBRANCH  18  20
ENDBRANCH  14  18
TORSDOF 9
ENDMDL
MODEL 6
REMARK VINA RESULT:       3.6      1.701      3.567
REMARK  Name = 45360854
REMARK  10 active torsions:
REMARK  status: ('A' for Active; 'I' for Inactive)
REMARK    1  A    between atoms: O_4  and  C_29
REMARK    2  A    between atoms: N_6  and  C_17
REMARK    3  A    between atoms: N_7  and  C_19
REMARK    4  A    between atoms: N_9  and  C_28
REMARK    5  A    between atoms: C_14  and  C_18
REMARK    6  A    between atoms: C_17  and  C_21
REMARK    7  A    between atoms: C_18  and  C_20
REMARK    8  A    between atoms: C_20  and  C_22
REMARK    9  A    between atoms: C_27  and  C_29
REMARK   10  A    between atoms: C_28  and  C_30
REMARK                            x       y       z     vdW  Elec       q    Type
REMARK                         _______ _______ _______ _____ _____    ______ ____
ROOT
ATOM      1  O   UNL     1      -1.577   2.417  21.445  0.00  0.00    -0.274 OA
ATOM      6  N   UNL     1       0.211   1.510  23.255  0.00  0.00    -0.286 NA
ATOM      7  N   UNL     1      -2.475   3.125  25.145  0.00  0.00    -0.296 NA
ATOM      8  N   UNL     1      -3.417   1.905  22.706  0.00  0.00    -0.312 N 
ATOM     10  C   UNL     1      -1.358   2.168  24.987  0.00  0.00    +0.084 C 
ATOM     11  C   UNL     1      -1.213   1.413  23.633  0.00  0.00    +0.161 C 
ATOM     12  C   UNL     1       0.035   2.803  25.152  0.00  0.00    +0.036 C 
ATOM     13  C   UNL     1       0.957   1.812  24.472  0.00  0.00    +0.087 C 
ATOM     14  C   UNL     1      -3.830   2.507  25.072  0.00  0.00    +0.074 C 
ATOM     15  C   UNL     1      -2.055   1.972  22.489  0.00  0.00    +0.232 C 
ATOM     16  C   UNL     1      -4.007   1.462  23.953  0.00  0.00    +0.123 C 
ATOM     19  C   UNL     1      -2.334   3.897  26.390  0.00  0.00    +0.105 C 
ATOM     34  H   UNL     1      -4.036   2.239  21.972  0.00  0.00    +0.149 HD
ENDROOT
BRANCH   6  17
ATOM     17  C   UNL     1       0.712   0.316  22.586  0.00  0.00    +0.120 C 
BRANCH  17  21
ATOM     21  C   UNL     1       2.174   0.089  22.865  0.00  0.00    -0.033 A 
ATOM     23  C   UNL     1       2.601  -1.131  23.388  0.00  0.00    +0.006 A 
ATOM     24  C   UNL     1       3.100   1.098  22.600  0.00  0.00    +0.006 A 
ATOM     25  C   UNL     1       3.956  -1.342  23.646  0.00  0.00    +0.015 A 
ATOM     26  C   UNL     1       4.454   0.886  22.858  0.00  0.00    +0.015 A 
ATOM     27  C   UNL     1       4.883  -0.334  23.381  0.00  0.00    +0.059 A 
BRANCH  27  29
ATOM      5  O   UNL     1       7.220  -0.288  22.876  0.00  0.00    -0.245 OA
ATOM     29  C   UNL     1       6.295  -0.555  23.649  0.00  0.00    +0.337 C 
BRANCH  29   4
ATOM      4  O   UNL     1       6.512  -1.102  24.876  0.00  0.00    -0.477 OA
ATOM     36  H   UNL     1       5.728  -1.014  25.460  0.00  0.00    +0.295 HD
ENDBRANCH  29   4
ENDBRANCH  27  29
ENDBRANCH  17  21
ENDBRANCH   6  17
BRANCH  14  18
ATOM     18  C   UNL     1      -4.908   3.593  24.870  0.00  0.00    +0.029 C 
BRANCH  18  20
ATOM     20  C   UNL     1      -6.253   3.116  25.385  0.00  0.00    +0.097 C 
BRANCH  20  22
ATOM      2  O   UNL     1      -6.711   1.734  27.318  0.00  0.00    -0.276 OA
ATOM      9  N   UNL     1      -5.236   0.961  25.703  0.00  0.00    -0.308 N 
ATOM     22  C   UNL     1      -6.113   1.881  26.256  0.00  0.00    +0.213 C 
ATOM     35  H   UNL     1      -4.798   1.161  24.808  0.00  0.00    +0.149 HD
BRANCH   9  28
ATOM     28  C   UNL     1      -4.932  -0.297  26.342  0.00  0.00    +0.178 C 
BRANCH  28  30
ATOM      3  O   UNL     1      -2.577  -0.848  26.073  0.00  0.00    -0.466 OA
ATOM     30  C   UNL     1      -3.843  -1.045  25.621  0.00  0.00    +0.122 A 
ATOM     31  C   UNL     1      -3.846  -1.921  24.560  0.00  0.00    +0.046 A 
ATOM     32  C   UNL     1      -2.495  -2.285  24.348  0.00  0.00    +0.041 A 
ATOM     33  C   UNL     1      -1.763  -1.606  25.293  0.00  0.00    +0.195 A 
ENDBRANCH  28  30
ENDBRANCH   9  28
ENDBRANCH  20  22
ENDBRANCH  18  20
ENDBRANCH  14  18
TORSDOF 9
ENDMDL
MODEL 7
REMARK VINA RESULT:       3.7      1.707      4.016
REMARK  Name = 45360854
REMARK  10 active torsions:
REMARK  status: ('A' for Active; 'I' for Inactive)
REMARK    1  A    between atoms: O_4  and  C_29
REMARK    2  A    between atoms: N_6  and  C_17
REMARK    3  A    between atoms: N_7  and  C_19
REMARK    4  A    between atoms: N_9  and  C_28
REMARK    5  A    between atoms: C_14  and  C_18
REMARK    6  A    between atoms: C_17  and  C_21
REMARK    7  A    between atoms: C_18  and  C_20
REMARK    8  A    between atoms: C_20  and  C_22
REMARK    9  A    between atoms: C_27  and  C_29
REMARK   10  A    between atoms: C_28  and  C_30
REMARK                            x       y       z     vdW  Elec       q    Type
REMARK                         _______ _______ _______ _____ _____    ______ ____
ROOT
ATOM      1  O   UNL     1      -1.430  -0.188  26.379  0.00  0.00    -0.274 OA
ATOM      6  N   UNL     1      -0.557  -0.729  23.882  0.00  0.00    -0.286 NA
ATOM      7  N   UNL     1      -1.578   2.786  23.904  0.00  0.00    -0.296 NA
ATOM      8  N   UNL     1      -0.540   1.919  26.452  0.00  0.00    -0.312 N 
ATOM     10  C   UNL     1      -0.800   1.636  23.392  0.00  0.00    +0.084 C 
ATOM     11  C   UNL     1      -0.234   0.609  24.415  0.00  0.00    +0.161 C 
ATOM     12  C   UNL     1      -1.586   0.730  22.427  0.00  0.00    +0.036 C 
ATOM     13  C   UNL     1      -0.810  -0.570  22.453  0.00  0.00    +0.087 C 
ATOM     14  C   UNL     1      -0.803   3.718  24.770  0.00  0.00    +0.074 C 
ATOM     15  C   UNL     1      -0.809   0.718  25.825  0.00  0.00    +0.232 C 
ATOM     16  C   UNL     1       0.118   3.033  25.799  0.00  0.00    +0.123 C 
ATOM     19  C   UNL     1      -2.212   3.525  22.799  0.00  0.00    +0.105 C 
ATOM     34  H   UNL     1      -0.875   2.048  27.403  0.00  0.00    +0.149 HD
ENDROOT
BRANCH   6  17
ATOM     17  C   UNL     1       0.474  -1.722  24.149  0.00  0.00    +0.120 C 
BRANCH  17  21
ATOM     21  C   UNL     1       1.855  -1.184  23.881  0.00  0.00    -0.033 A 
ATOM     23  C   UNL     1       2.976  -1.934  24.237  0.00  0.00    +0.006 A 
ATOM     24  C   UNL     1       2.012   0.063  23.277  0.00  0.00    +0.006 A 
ATOM     25  C   UNL     1       4.254  -1.436  23.988  0.00  0.00    +0.015 A 
ATOM     26  C   UNL     1       3.291   0.561  23.029  0.00  0.00    +0.015 A 
ATOM     27  C   UNL     1       4.413  -0.189  23.384  0.00  0.00    +0.059 A 
BRANCH  27  29
ATOM      5  O   UNL     1       6.573  -0.173  22.357  0.00  0.00    -0.245 OA
ATOM     29  C   UNL     1       5.746   0.330  23.124  0.00  0.00    +0.337 C 
BRANCH  29   4
ATOM      4  O   UNL     1       6.010   1.464  23.829  0.00  0.00    -0.477 OA
ATOM     36  H   UNL     1       6.919   1.795  23.662  0.00  0.00    +0.295 HD
ENDBRANCH  29   4
ENDBRANCH  27  29
ENDBRANCH  17  21
ENDBRANCH   6  17
BRANCH  14  18
ATOM     18  C   UNL     1      -1.756   4.650  25.548  0.00  0.00    +0.029 C 
BRANCH  18  20
ATOM     20  C   UNL     1      -2.679   3.845  26.444  0.00  0.00    +0.097 C 
BRANCH  20  22
ATOM      2  O   UNL     1      -4.758   3.973  25.210  0.00  0.00    -0.276 OA
ATOM      9  N   UNL     1      -3.779   1.899  25.559  0.00  0.00    -0.308 N 
ATOM     22  C   UNL     1      -3.857   3.279  25.671  0.00  0.00    +0.213 C 
ATOM     35  H   UNL     1      -2.984   1.407  25.959  0.00  0.00    +0.149 HD
BRANCH   9  28
ATOM     28  C   UNL     1      -4.781   1.123  24.868  0.00  0.00    +0.178 C 
BRANCH  28  30
ATOM      3  O   UNL     1      -3.910  -0.943  25.814  0.00  0.00    -0.466 OA
ATOM     30  C   UNL     1      -4.362  -0.312  24.699  0.00  0.00    +0.122 A 
ATOM     31  C   UNL     1      -4.334  -1.163  23.618  0.00  0.00    +0.046 A 
ATOM     32  C   UNL     1      -3.833  -2.395  24.101  0.00  0.00    +0.041 A 
ATOM     33  C   UNL     1      -3.590  -2.210  25.442  0.00  0.00    +0.195 A 
ENDBRANCH  28  30
ENDBRANCH   9  28
ENDBRANCH  20  22
ENDBRANCH  18  20
ENDBRANCH  14  18
TORSDOF 9
ENDMDL
