MODEL 1
REMARK VINA RESULT:      -3.6      0.000      0.000
REMARK  Name = 11886105
REMARK  7 active torsions:
REMARK  status: ('A' for Active; 'I' for Inactive)
REMARK    1  A    between atoms: O_3  and  C_14
REMARK    2  A    between atoms: O_3  and  C_19
REMARK    3  A    between atoms: N_5  and  C_13
REMARK    4  A    between atoms: N_9  and  C_21
REMARK    5  A    between atoms: C_17  and  C_18
REMARK    6  A    between atoms: C_18  and  C_20
REMARK    7  A    between atoms: C_25  and  C_28
REMARK                            x       y       z     vdW  Elec       q    Type
REMARK                         _______ _______ _______ _____ _____    ______ ____
ROOT
ATOM      1  O   UNL     1      -5.364  -9.088  11.351  0.00  0.00    -0.368 OA
ATOM      2  O   UNL     1      -4.721 -10.629   8.750  0.00  0.00    -0.368 OA
ATOM     11  C   UNL     1      -3.965  -9.669   9.520  0.00  0.00    +0.177 C 
ATOM     12  C   UNL     1      -4.958  -8.651  10.044  0.00  0.00    +0.192 C 
ATOM     13  C   UNL     1      -3.412 -10.337  10.763  0.00  0.00    +0.168 C 
ATOM     14  C   UNL     1      -6.090  -8.745   9.048  0.00  0.00    +0.235 C 
ATOM     15  C   UNL     1      -4.565 -10.211  11.753  0.00  0.00    +0.190 C 
ATOM     16  C   UNL     1      -6.094 -10.219   8.712  0.00  0.00    +0.207 C 
ENDROOT
BRANCH  13   5
ATOM      5  N   UNL     1      -2.144  -9.748  11.199  0.00  0.00    -0.221 N 
ATOM      6  N   UNL     1      -1.464  -8.919  10.401  0.00  0.00    -0.043 NA
ATOM      7  N   UNL     1      -0.390  -9.194  12.336  0.00  0.00    -0.113 NA
ATOM      8  N   UNL     1      -0.389  -8.581  11.102  0.00  0.00    -0.023 NA
ATOM     17  C   UNL     1      -1.489  -9.912  12.373  0.00  0.00    +0.156 A 
BRANCH  17  18
ATOM     18  C   UNL     1      -1.974 -10.764  13.471  0.00  0.00    +0.104 C 
BRANCH  18  20
ATOM     20  C   UNL     1      -1.486 -10.384  14.859  0.00  0.00    -0.027 C 
ATOM     22  C   UNL     1      -2.088 -10.740  15.999  0.00  0.00    +0.004 C 
ENDBRANCH  18  20
ENDBRANCH  17  18
ENDBRANCH  13   5
BRANCH  14   3
ATOM      3  O   UNL     1      -7.329  -8.313   9.560  0.00  0.00    -0.442 OA
BRANCH   3  19
ATOM      4  O   UNL     1      -8.549 -10.235   9.782  0.00  0.00    -0.226 OA
ATOM      9  N   UNL     1      -8.125  -8.831  11.606  0.00  0.00    -0.251 N 
ATOM     19  C   UNL     1      -8.059  -9.232  10.286  0.00  0.00    +0.405 C 
ATOM     29  H   UNL     1      -7.650  -7.961  11.835  0.00  0.00    +0.158 HD
BRANCH   9  21
ATOM     21  C   UNL     1      -8.772  -9.480  12.682  0.00  0.00    +0.038 A 
ATOM     23  C   UNL     1      -8.087  -9.674  13.871  0.00  0.00    +0.042 A 
ATOM     24  C   UNL     1     -10.080  -9.911  12.527  0.00  0.00    +0.023 A 
ATOM     25  C   UNL     1      -8.726 -10.316  14.931  0.00  0.00    +0.054 A 
ATOM     26  C   UNL     1     -10.719 -10.552  13.587  0.00  0.00    +0.003 A 
ATOM     27  C   UNL     1     -10.043 -10.755  14.790  0.00  0.00    +0.019 A 
BRANCH  25  28
ATOM     10  N   UNL     1      -7.469 -10.695  17.164  0.00  0.00    -0.191 NA
ATOM     28  C   UNL     1      -8.033 -10.525  16.164  0.00  0.00    +0.099 C 
ENDBRANCH  25  28
ENDBRANCH   9  21
ENDBRANCH   3  19
ENDBRANCH  14   3
TORSDOF 7
ENDMDL
MODEL 2
REMARK VINA RESULT:      -3.5      1.935      2.687
REMARK  Name = 11886105
REMARK  7 active torsions:
REMARK  status: ('A' for Active; 'I' for Inactive)
REMARK    1  A    between atoms: O_3  and  C_14
REMARK    2  A    between atoms: O_3  and  C_19
REMARK    3  A    between atoms: N_5  and  C_13
REMARK    4  A    between atoms: N_9  and  C_21
REMARK    5  A    between atoms: C_17  and  C_18
REMARK    6  A    between atoms: C_18  and  C_20
REMARK    7  A    between atoms: C_25  and  C_28
REMARK                            x       y       z     vdW  Elec       q    Type
REMARK                         _______ _______ _______ _____ _____    ______ ____
ROOT
ATOM      1  O   UNL     1      -5.217  -8.918  11.880  0.00  0.00    -0.368 OA
ATOM      2  O   UNL     1      -3.571 -10.780  10.042  0.00  0.00    -0.368 OA
ATOM     11  C   UNL     1      -3.208  -9.982  11.190  0.00  0.00    +0.177 C 
ATOM     12  C   UNL     1      -4.021  -8.706  11.111  0.00  0.00    +0.192 C 
ATOM     13  C   UNL     1      -3.691 -10.665  12.455  0.00  0.00    +0.168 C 
ATOM     14  C   UNL     1      -4.320  -8.593   9.635  0.00  0.00    +0.235 C 
ATOM     15  C   UNL     1      -5.127 -10.169  12.577  0.00  0.00    +0.190 C 
ATOM     16  C   UNL     1      -4.495 -10.039   9.234  0.00  0.00    +0.207 C 
ENDROOT
BRANCH  13   5
ATOM      5  N   UNL     1      -2.830 -10.383  13.607  0.00  0.00    -0.221 N 
ATOM      6  N   UNL     1      -1.553 -10.026  13.437  0.00  0.00    -0.043 NA
ATOM      7  N   UNL     1      -2.062 -10.095  15.607  0.00  0.00    -0.113 NA
ATOM      8  N   UNL     1      -1.086  -9.850  14.667  0.00  0.00    -0.023 NA
ATOM     17  C   UNL     1      -3.136 -10.423  14.926  0.00  0.00    +0.156 A 
BRANCH  17  18
ATOM     18  C   UNL     1      -4.463 -10.781  15.451  0.00  0.00    +0.104 C 
BRANCH  18  20
ATOM     20  C   UNL     1      -4.877 -10.067  16.727  0.00  0.00    -0.027 C 
ATOM     22  C   UNL     1      -4.982 -10.652  17.925  0.00  0.00    +0.004 C 
ENDBRANCH  18  20
ENDBRANCH  17  18
ENDBRANCH  13   5
BRANCH  14   3
ATOM      3  O   UNL     1      -5.463  -7.820   9.349  0.00  0.00    -0.442 OA
BRANCH   3  19
ATOM      4  O   UNL     1      -7.142  -8.782   8.130  0.00  0.00    -0.226 OA
ATOM      9  N   UNL     1      -7.169  -8.776  10.471  0.00  0.00    -0.251 N 
ATOM     19  C   UNL     1      -6.657  -8.497   9.219  0.00  0.00    +0.405 C 
ATOM     29  H   UNL     1      -6.616  -8.456  11.263  0.00  0.00    +0.158 HD
BRANCH   9  21
ATOM     21  C   UNL     1      -8.369  -9.452  10.791  0.00  0.00    +0.038 A 
ATOM     23  C   UNL     1      -8.734  -9.598  12.120  0.00  0.00    +0.042 A 
ATOM     24  C   UNL     1      -9.156  -9.958   9.769  0.00  0.00    +0.023 A 
ATOM     25  C   UNL     1      -9.916 -10.266  12.435  0.00  0.00    +0.054 A 
ATOM     26  C   UNL     1     -10.338 -10.627  10.084  0.00  0.00    +0.003 A 
ATOM     27  C   UNL     1     -10.719 -10.781  11.417  0.00  0.00    +0.019 A 
BRANCH  25  28
ATOM     10  N   UNL     1     -10.623 -10.555  14.910  0.00  0.00    -0.191 NA
ATOM     28  C   UNL     1     -10.307 -10.426  13.800  0.00  0.00    +0.099 C 
ENDBRANCH  25  28
ENDBRANCH   9  21
ENDBRANCH   3  19
ENDBRANCH  14   3
TORSDOF 7
ENDMDL
MODEL 3
REMARK VINA RESULT:      -2.5     15.190     18.046
REMARK  Name = 11886105
REMARK  7 active torsions:
REMARK  status: ('A' for Active; 'I' for Inactive)
REMARK    1  A    between atoms: O_3  and  C_14
REMARK    2  A    between atoms: O_3  and  C_19
REMARK    3  A    between atoms: N_5  and  C_13
REMARK    4  A    between atoms: N_9  and  C_21
REMARK    5  A    between atoms: C_17  and  C_18
REMARK    6  A    between atoms: C_18  and  C_20
REMARK    7  A    between atoms: C_25  and  C_28
REMARK                            x       y       z     vdW  Elec       q    Type
REMARK                         _______ _______ _______ _____ _____    ______ ____
ROOT
ATOM      1  O   UNL     1      -2.270   0.631  24.989  0.00  0.00    -0.368 OA
ATOM      2  O   UNL     1      -4.664  -1.067  24.020  0.00  0.00    -0.368 OA
ATOM     11  C   UNL     1      -4.570   0.040  24.943  0.00  0.00    +0.177 C 
ATOM     12  C   UNL     1      -3.266  -0.126  25.695  0.00  0.00    +0.192 C 
ATOM     13  C   UNL     1      -4.402   1.333  24.169  0.00  0.00    +0.168 C 
ATOM     14  C   UNL     1      -3.011  -1.612  25.596  0.00  0.00    +0.235 C 
ATOM     15  C   UNL     1      -2.894   1.399  23.951  0.00  0.00    +0.190 C 
ATOM     16  C   UNL     1      -3.538  -1.933  24.217  0.00  0.00    +0.207 C 
ENDROOT
BRANCH  13   5
ATOM      5  N   UNL     1      -4.986   2.483  24.864  0.00  0.00    -0.221 N 
ATOM      6  N   UNL     1      -6.151   2.372  25.511  0.00  0.00    -0.043 NA
ATOM      7  N   UNL     1      -5.355   4.448  25.687  0.00  0.00    -0.113 NA
ATOM      8  N   UNL     1      -6.372   3.579  26.015  0.00  0.00    -0.023 NA
ATOM     17  C   UNL     1      -4.506   3.744  24.973  0.00  0.00    +0.156 A 
BRANCH  17  18
ATOM     18  C   UNL     1      -3.240   4.195  24.373  0.00  0.00    +0.104 C 
BRANCH  18  20
ATOM     20  C   UNL     1      -2.132   4.531  25.357  0.00  0.00    -0.027 C 
ATOM     22  C   UNL     1      -0.898   4.913  25.009  0.00  0.00    +0.004 C 
ENDBRANCH  18  20
ENDBRANCH  17  18
ENDBRANCH  13   5
BRANCH  14   3
ATOM      3  O   UNL     1      -1.654  -1.963  25.742  0.00  0.00    -0.442 OA
BRANCH   3  19
ATOM      4  O   UNL     1      -1.013  -2.934  23.774  0.00  0.00    -0.226 OA
ATOM      9  N   UNL     1      -0.046  -0.943  24.534  0.00  0.00    -0.251 N 
ATOM     19  C   UNL     1      -0.899  -2.027  24.590  0.00  0.00    +0.405 C 
ATOM     29  H   UNL     1      -0.099  -0.291  25.313  0.00  0.00    +0.158 HD
BRANCH   9  21
ATOM     21  C   UNL     1       0.894  -0.625  23.528  0.00  0.00    +0.038 A 
ATOM     23  C   UNL     1       2.207  -0.358  23.883  0.00  0.00    +0.042 A 
ATOM     24  C   UNL     1       0.484  -0.584  22.205  0.00  0.00    +0.023 A 
ATOM     25  C   UNL     1       3.133  -0.042  22.890  0.00  0.00    +0.054 A 
ATOM     26  C   UNL     1       1.411  -0.269  21.211  0.00  0.00    +0.003 A 
ATOM     27  C   UNL     1       2.736   0.002  21.553  0.00  0.00    +0.019 A 
BRANCH  25  28
ATOM     10  N   UNL     1       5.594   0.461  23.523  0.00  0.00    -0.191 NA
ATOM     28  C   UNL     1       4.491   0.236  23.239  0.00  0.00    +0.099 C 
ENDBRANCH  25  28
ENDBRANCH   9  21
ENDBRANCH   3  19
ENDBRANCH  14   3
TORSDOF 7
ENDMDL
MODEL 4
REMARK VINA RESULT:      -1.9     15.156     17.007
REMARK  Name = 11886105
REMARK  7 active torsions:
REMARK  status: ('A' for Active; 'I' for Inactive)
REMARK    1  A    between atoms: O_3  and  C_14
REMARK    2  A    between atoms: O_3  and  C_19
REMARK    3  A    between atoms: N_5  and  C_13
REMARK    4  A    between atoms: N_9  and  C_21
REMARK    5  A    between atoms: C_17  and  C_18
REMARK    6  A    between atoms: C_18  and  C_20
REMARK    7  A    between atoms: C_25  and  C_28
REMARK                            x       y       z     vdW  Elec       q    Type
REMARK                         _______ _______ _______ _____ _____    ______ ____
ROOT
ATOM      1  O   UNL     1      -1.614  -0.139  23.578  0.00  0.00    -0.368 OA
ATOM      2  O   UNL     1       0.010  -1.859  25.568  0.00  0.00    -0.368 OA
ATOM     11  C   UNL     1       0.155  -1.617  24.151  0.00  0.00    +0.177 C 
ATOM     12  C   UNL     1      -1.244  -1.527  23.577  0.00  0.00    +0.192 C 
ATOM     13  C   UNL     1       0.748  -0.240  23.929  0.00  0.00    +0.168 C 
ATOM     14  C   UNL     1      -2.062  -2.322  24.566  0.00  0.00    +0.235 C 
ATOM     15  C   UNL     1      -0.481   0.662  23.947  0.00  0.00    +0.190 C 
ATOM     16  C   UNL     1      -1.383  -1.994  25.876  0.00  0.00    +0.207 C 
ENDROOT
BRANCH  13   5
ATOM      5  N   UNL     1       1.560  -0.168  22.712  0.00  0.00    -0.221 N 
ATOM      6  N   UNL     1       1.069  -0.575  21.536  0.00  0.00    -0.043 NA
ATOM      7  N   UNL     1       3.160   0.162  21.296  0.00  0.00    -0.113 NA
ATOM      8  N   UNL     1       2.054  -0.370  20.671  0.00  0.00    -0.023 NA
ATOM     17  C   UNL     1       2.829   0.279  22.561  0.00  0.00    +0.156 A 
BRANCH  17  18
ATOM     18  C   UNL     1       3.653   0.798  23.665  0.00  0.00    +0.104 C 
BRANCH  18  20
ATOM     20  C   UNL     1       5.124   0.420  23.618  0.00  0.00    -0.027 C 
ATOM     22  C   UNL     1       5.645  -0.677  24.178  0.00  0.00    +0.004 C 
ENDBRANCH  18  20
ENDBRANCH  17  18
ENDBRANCH  13   5
BRANCH  14   3
ATOM      3  O   UNL     1      -3.429  -1.979  24.575  0.00  0.00    -0.442 OA
BRANCH   3  19
ATOM      4  O   UNL     1      -4.008  -0.938  26.527  0.00  0.00    -0.226 OA
ATOM      9  N   UNL     1      -3.854   0.236  24.507  0.00  0.00    -0.251 N 
ATOM     19  C   UNL     1      -3.790  -0.878  25.323  0.00  0.00    +0.405 C 
ATOM     29  H   UNL     1      -3.636   0.084  23.526  0.00  0.00    +0.158 HD
BRANCH   9  21
ATOM     21  C   UNL     1      -4.186   1.561  24.867  0.00  0.00    +0.038 A 
ATOM     23  C   UNL     1      -3.198   2.532  24.873  0.00  0.00    +0.042 A 
ATOM     24  C   UNL     1      -5.494   1.864  25.209  0.00  0.00    +0.023 A 
ATOM     25  C   UNL     1      -3.526   3.840  25.230  0.00  0.00    +0.054 A 
ATOM     26  C   UNL     1      -5.823   3.172  25.566  0.00  0.00    +0.003 A 
ATOM     27  C   UNL     1      -4.838   4.160  25.577  0.00  0.00    +0.019 A 
BRANCH  25  28
ATOM     10  N   UNL     1      -1.700   5.677  25.252  0.00  0.00    -0.191 NA
ATOM     28  C   UNL     1      -2.518   4.853  25.242  0.00  0.00    +0.099 C 
ENDBRANCH  25  28
ENDBRANCH   9  21
ENDBRANCH   3  19
ENDBRANCH  14   3
TORSDOF 7
ENDMDL
MODEL 5
REMARK VINA RESULT:      -0.9     15.369     17.270
REMARK  Name = 11886105
REMARK  7 active torsions:
REMARK  status: ('A' for Active; 'I' for Inactive)
REMARK    1  A    between atoms: O_3  and  C_14
REMARK    2  A    between atoms: O_3  and  C_19
REMARK    3  A    between atoms: N_5  and  C_13
REMARK    4  A    between atoms: N_9  and  C_21
REMARK    5  A    between atoms: C_17  and  C_18
REMARK    6  A    between atoms: C_18  and  C_20
REMARK    7  A    between atoms: C_25  and  C_28
REMARK                            x       y       z     vdW  Elec       q    Type
REMARK                         _______ _______ _______ _____ _____    ______ ____
ROOT
ATOM      1  O   UNL     1      -2.210  -0.304  25.016  0.00  0.00    -0.368 OA
ATOM      2  O   UNL     1      -1.414  -3.138  24.073  0.00  0.00    -0.368 OA
ATOM     11  C   UNL     1      -1.048  -1.822  23.605  0.00  0.00    +0.177 C 
ATOM     12  C   UNL     1      -2.282  -0.952  23.735  0.00  0.00    +0.192 C 
ATOM     13  C   UNL     1      -0.044  -1.205  24.559  0.00  0.00    +0.168 C 
ATOM     14  C   UNL     1      -3.406  -1.958  23.682  0.00  0.00    +0.235 C 
ATOM     15  C   UNL     1      -0.935  -0.570  25.620  0.00  0.00    +0.190 C 
ATOM     16  C   UNL     1      -2.808  -3.141  24.409  0.00  0.00    +0.207 C 
ENDROOT
BRANCH  13   5
ATOM      5  N   UNL     1       0.880  -0.290  23.885  0.00  0.00    -0.221 N 
ATOM      6  N   UNL     1       1.872  -0.757  23.120  0.00  0.00    -0.043 NA
ATOM      7  N   UNL     1       1.901   1.472  23.159  0.00  0.00    -0.113 NA
ATOM      8  N   UNL     1       2.495   0.327  22.677  0.00  0.00    -0.023 NA
ATOM     17  C   UNL     1       0.900   1.064  23.905  0.00  0.00    +0.156 A 
BRANCH  17  18
ATOM     18  C   UNL     1      -0.061   1.889  24.655  0.00  0.00    +0.104 C 
BRANCH  18  20
ATOM     20  C   UNL     1       0.487   2.565  25.900  0.00  0.00    -0.027 C 
ATOM     22  C   UNL     1      -0.115   2.560  27.095  0.00  0.00    +0.004 C 
ENDBRANCH  18  20
ENDBRANCH  17  18
ENDBRANCH  13   5
BRANCH  14   3
ATOM      3  O   UNL     1      -4.596  -1.508  24.289  0.00  0.00    -0.442 OA
BRANCH   3  19
ATOM      4  O   UNL     1      -4.308  -0.482  26.312  0.00  0.00    -0.226 OA
ATOM      9  N   UNL     1      -4.649   0.746  24.349  0.00  0.00    -0.251 N 
ATOM     19  C   UNL     1      -4.499  -0.400  25.105  0.00  0.00    +0.405 C 
ATOM     29  H   UNL     1      -4.801   0.609  23.353  0.00  0.00    +0.158 HD
BRANCH   9  21
ATOM     21  C   UNL     1      -4.618   2.089  24.788  0.00  0.00    +0.038 A 
ATOM     23  C   UNL     1      -3.428   2.797  24.730  0.00  0.00    +0.042 A 
ATOM     24  C   UNL     1      -5.779   2.672  25.270  0.00  0.00    +0.023 A 
ATOM     25  C   UNL     1      -3.398   4.121  25.165  0.00  0.00    +0.054 A 
ATOM     26  C   UNL     1      -5.750   3.997  25.705  0.00  0.00    +0.003 A 
ATOM     27  C   UNL     1      -4.559   4.722  25.653  0.00  0.00    +0.019 A 
BRANCH  25  28
ATOM     10  N   UNL     1      -1.187   5.467  25.071  0.00  0.00    -0.191 NA
ATOM     28  C   UNL     1      -2.179   4.865  25.113  0.00  0.00    +0.099 C 
ENDBRANCH  25  28
ENDBRANCH   9  21
ENDBRANCH   3  19
ENDBRANCH  14   3
TORSDOF 7
ENDMDL
MODEL 6
REMARK VINA RESULT:      -0.3     15.330     18.304
REMARK  Name = 11886105
REMARK  7 active torsions:
REMARK  status: ('A' for Active; 'I' for Inactive)
REMARK    1  A    between atoms: O_3  and  C_14
REMARK    2  A    between atoms: O_3  and  C_19
REMARK    3  A    between atoms: N_5  and  C_13
REMARK    4  A    between atoms: N_9  and  C_21
REMARK    5  A    between atoms: C_17  and  C_18
REMARK    6  A    between atoms: C_18  and  C_20
REMARK    7  A    between atoms: C_25  and  C_28
REMARK                            x       y       z     vdW  Elec       q    Type
REMARK                         _______ _______ _______ _____ _____    ______ ____
ROOT
ATOM      1  O   UNL     1      -1.552   0.693  23.544  0.00  0.00    -0.368 OA
ATOM      2  O   UNL     1      -4.437  -0.114  24.305  0.00  0.00    -0.368 OA
ATOM     11  C   UNL     1      -3.513   0.838  24.877  0.00  0.00    +0.177 C 
ATOM     12  C   UNL     1      -2.132   0.224  24.772  0.00  0.00    +0.192 C 
ATOM     13  C   UNL     1      -3.450   2.073  24.000  0.00  0.00    +0.168 C 
ATOM     14  C   UNL     1      -2.428  -1.255  24.720  0.00  0.00    +0.235 C 
ATOM     15  C   UNL     1      -2.401   1.693  22.961  0.00  0.00    +0.190 C 
ATOM     16  C   UNL     1      -3.715  -1.294  23.929  0.00  0.00    +0.207 C 
ENDROOT
BRANCH  13   5
ATOM      5  N   UNL     1      -3.163   3.289  24.764  0.00  0.00    -0.221 N 
ATOM      6  N   UNL     1      -1.916   3.759  24.862  0.00  0.00    -0.043 NA
ATOM      7  N   UNL     1      -3.331   5.069  25.980  0.00  0.00    -0.113 NA
ATOM      8  N   UNL     1      -2.023   4.851  25.608  0.00  0.00    -0.023 NA
ATOM     17  C   UNL     1      -4.020   4.088  25.444  0.00  0.00    +0.156 A 
BRANCH  17  18
ATOM     18  C   UNL     1      -5.470   3.849  25.533  0.00  0.00    +0.104 C 
BRANCH  18  20
ATOM     20  C   UNL     1      -5.890   2.703  26.438  0.00  0.00    -0.027 C 
ATOM     22  C   UNL     1      -6.606   1.645  26.040  0.00  0.00    +0.004 C 
ENDBRANCH  18  20
ENDBRANCH  17  18
ENDBRANCH  13   5
BRANCH  14   3
ATOM      3  O   UNL     1      -1.407  -2.014  24.112  0.00  0.00    -0.442 OA
BRANCH   3  19
ATOM      4  O   UNL     1       0.452  -2.007  25.444  0.00  0.00    -0.226 OA
ATOM      9  N   UNL     1       0.412  -0.897  23.382  0.00  0.00    -0.251 N 
ATOM     19  C   UNL     1      -0.107  -1.662  24.409  0.00  0.00    +0.405 C 
ATOM     29  H   UNL     1      -0.212  -0.717  22.599  0.00  0.00    +0.158 HD
BRANCH   9  21
ATOM     21  C   UNL     1       1.703  -0.333  23.283  0.00  0.00    +0.038 A 
ATOM     23  C   UNL     1       2.809  -1.105  23.602  0.00  0.00    +0.042 A 
ATOM     24  C   UNL     1       1.839   0.984  22.872  0.00  0.00    +0.023 A 
ATOM     25  C   UNL     1       4.084  -0.546  23.505  0.00  0.00    +0.054 A 
ATOM     26  C   UNL     1       3.113   1.542  22.776  0.00  0.00    +0.003 A 
ATOM     27  C   UNL     1       4.236   0.778  23.092  0.00  0.00    +0.019 A 
BRANCH  25  28
ATOM     10  N   UNL     1       6.171  -1.963  24.093  0.00  0.00    -0.191 NA
ATOM     28  C   UNL     1       5.235  -1.328  23.830  0.00  0.00    +0.099 C 
ENDBRANCH  25  28
ENDBRANCH   9  21
ENDBRANCH   3  19
ENDBRANCH  14   3
TORSDOF 7
ENDMDL
MODEL 7
REMARK VINA RESULT:       0.0     15.032     17.978
REMARK  Name = 11886105
REMARK  7 active torsions:
REMARK  status: ('A' for Active; 'I' for Inactive)
REMARK    1  A    between atoms: O_3  and  C_14
REMARK    2  A    between atoms: O_3  and  C_19
REMARK    3  A    between atoms: N_5  and  C_13
REMARK    4  A    between atoms: N_9  and  C_21
REMARK    5  A    between atoms: C_17  and  C_18
REMARK    6  A    between atoms: C_18  and  C_20
REMARK    7  A    between atoms: C_25  and  C_28
REMARK                            x       y       z     vdW  Elec       q    Type
REMARK                         _______ _______ _______ _____ _____    ______ ____
ROOT
ATOM      1  O   UNL     1      -2.582  -0.229  24.582  0.00  0.00    -0.368 OA
ATOM      2  O   UNL     1      -5.044  -1.898  23.739  0.00  0.00    -0.368 OA
ATOM     11  C   UNL     1      -4.845  -0.924  24.788  0.00  0.00    +0.177 C 
ATOM     12  C   UNL     1      -3.436  -1.126  25.310  0.00  0.00    +0.192 C 
ATOM     13  C   UNL     1      -4.835   0.469  24.192  0.00  0.00    +0.168 C 
ATOM     14  C   UNL     1      -3.155  -2.568  24.963  0.00  0.00    +0.235 C 
ATOM     15  C   UNL     1      -3.380   0.642  23.768  0.00  0.00    +0.190 C 
ATOM     16  C   UNL     1      -3.876  -2.723  23.643  0.00  0.00    +0.207 C 
ENDROOT
BRANCH  13   5
ATOM      5  N   UNL     1      -5.341   1.481  25.123  0.00  0.00    -0.221 N 
ATOM      6  N   UNL     1      -6.191   1.148  26.100  0.00  0.00    -0.043 NA
ATOM      7  N   UNL     1      -5.741   3.331  26.167  0.00  0.00    -0.113 NA
ATOM      8  N   UNL     1      -6.433   2.286  26.738  0.00  0.00    -0.023 NA
ATOM     17  C   UNL     1      -5.069   2.807  25.167  0.00  0.00    +0.156 A 
BRANCH  17  18
ATOM     18  C   UNL     1      -4.166   3.492  24.229  0.00  0.00    +0.104 C 
BRANCH  18  20
ATOM     20  C   UNL     1      -2.946   4.147  24.853  0.00  0.00    -0.027 C 
ATOM     22  C   UNL     1      -2.616   4.060  26.147  0.00  0.00    +0.004 C 
ENDBRANCH  18  20
ENDBRANCH  17  18
ENDBRANCH  13   5
BRANCH  14   3
ATOM      3  O   UNL     1      -1.782  -2.866  24.857  0.00  0.00    -0.442 OA
BRANCH   3  19
ATOM      4  O   UNL     1      -0.555  -1.482  26.202  0.00  0.00    -0.226 OA
ATOM      9  N   UNL     1      -0.503  -1.292  23.869  0.00  0.00    -0.251 N 
ATOM     19  C   UNL     1      -0.900  -1.830  25.079  0.00  0.00    +0.405 C 
ATOM     29  H   UNL     1      -0.901  -1.721  23.037  0.00  0.00    +0.158 HD
BRANCH   9  21
ATOM     21  C   UNL     1       0.388  -0.220  23.643  0.00  0.00    +0.038 A 
ATOM     23  C   UNL     1      -0.014   1.073  23.936  0.00  0.00    +0.042 A 
ATOM     24  C   UNL     1       1.649  -0.482  23.130  0.00  0.00    +0.023 A 
ATOM     25  C   UNL     1       0.866   2.131  23.711  0.00  0.00    +0.054 A 
ATOM     26  C   UNL     1       2.529   0.576  22.905  0.00  0.00    +0.003 A 
ATOM     27  C   UNL     1       2.138   1.883  23.195  0.00  0.00    +0.019 A 
BRANCH  25  28
ATOM     10  N   UNL     1       0.141   4.560  24.246  0.00  0.00    -0.191 NA
ATOM     28  C   UNL     1       0.466   3.471  24.007  0.00  0.00    +0.099 C 
ENDBRANCH  25  28
ENDBRANCH   9  21
ENDBRANCH   3  19
ENDBRANCH  14   3
TORSDOF 7
ENDMDL
MODEL 8
REMARK VINA RESULT:       0.1     15.739     18.412
REMARK  Name = 11886105
REMARK  7 active torsions:
REMARK  status: ('A' for Active; 'I' for Inactive)
REMARK    1  A    between atoms: O_3  and  C_14
REMARK    2  A    between atoms: O_3  and  C_19
REMARK    3  A    between atoms: N_5  and  C_13
REMARK    4  A    between atoms: N_9  and  C_21
REMARK    5  A    between atoms: C_17  and  C_18
REMARK    6  A    between atoms: C_18  and  C_20
REMARK    7  A    between atoms: C_25  and  C_28
REMARK                            x       y       z     vdW  Elec       q    Type
REMARK                         _______ _______ _______ _____ _____    ______ ____
ROOT
ATOM      1  O   UNL     1      -1.448   2.599  26.012  0.00  0.00    -0.368 OA
ATOM      2  O   UNL     1      -1.358   5.451  24.824  0.00  0.00    -0.368 OA
ATOM     11  C   UNL     1      -2.330   4.387  24.720  0.00  0.00    +0.177 C 
ATOM     12  C   UNL     1      -1.551   3.088  24.665  0.00  0.00    +0.192 C 
ATOM     13  C   UNL     1      -3.127   4.301  26.006  0.00  0.00    +0.168 C 
ATOM     14  C   UNL     1      -0.210   3.525  24.126  0.00  0.00    +0.235 C 
ATOM     15  C   UNL     1      -2.255   3.407  26.882  0.00  0.00    +0.190 C 
ATOM     16  C   UNL     1      -0.042   4.887  24.761  0.00  0.00    +0.207 C 
ENDROOT
BRANCH  13   5
ATOM      5  N   UNL     1      -4.494   3.822  25.787  0.00  0.00    -0.221 N 
ATOM      6  N   UNL     1      -5.543   4.619  26.017  0.00  0.00    -0.043 NA
ATOM      7  N   UNL     1      -6.223   2.619  25.303  0.00  0.00    -0.113 NA
ATOM      8  N   UNL     1      -6.602   3.876  25.718  0.00  0.00    -0.023 NA
ATOM     17  C   UNL     1      -4.911   2.609  25.353  0.00  0.00    +0.156 A 
BRANCH  17  18
ATOM     18  C   UNL     1      -4.003   1.503  25.010  0.00  0.00    +0.104 C 
BRANCH  18  20
ATOM     20  C   UNL     1      -3.951   1.130  23.539  0.00  0.00    -0.027 C 
ATOM     22  C   UNL     1      -3.181   1.736  22.628  0.00  0.00    +0.004 C 
ENDBRANCH  18  20
ENDBRANCH  17  18
ENDBRANCH  13   5
BRANCH  14   3
ATOM      3  O   UNL     1       0.844   2.650  24.457  0.00  0.00    -0.442 OA
BRANCH   3  19
ATOM      4  O   UNL     1       1.305   0.816  23.172  0.00  0.00    -0.226 OA
ATOM      9  N   UNL     1      -0.228   0.725  24.939  0.00  0.00    -0.251 N 
ATOM     19  C   UNL     1       0.691   1.327  24.101  0.00  0.00    +0.405 C 
ATOM     29  H   UNL     1      -0.634   1.318  25.658  0.00  0.00    +0.158 HD
BRANCH   9  21
ATOM     21  C   UNL     1      -0.675  -0.616  24.922  0.00  0.00    +0.038 A 
ATOM     23  C   UNL     1      -1.962  -0.898  24.494  0.00  0.00    +0.042 A 
ATOM     24  C   UNL     1       0.183  -1.622  25.337  0.00  0.00    +0.023 A 
ATOM     25  C   UNL     1      -2.403  -2.221  24.480  0.00  0.00    +0.054 A 
ATOM     26  C   UNL     1      -0.258  -2.945  25.323  0.00  0.00    +0.003 A 
ATOM     27  C   UNL     1      -1.551  -3.246  24.894  0.00  0.00    +0.019 A 
BRANCH  25  28
ATOM     10  N   UNL     1      -4.804  -2.779  23.685  0.00  0.00    -0.191 NA
ATOM     28  C   UNL     1      -3.727  -2.530  24.042  0.00  0.00    +0.099 C 
ENDBRANCH  25  28
ENDBRANCH   9  21
ENDBRANCH   3  19
ENDBRANCH  14   3
TORSDOF 7
ENDMDL
