MODEL 1
REMARK VINA RESULT:      -4.3      0.000      0.000
REMARK  Name = 51137408
REMARK  5 active torsions:
REMARK  status: ('A' for Active; 'I' for Inactive)
REMARK    1  A    between atoms: N_3  and  C_7
REMARK    2  A    between atoms: C_9  and  C_16
REMARK    3  A    between atoms: C_17  and  C_19
REMARK    4  A    between atoms: C_18  and  C_20
REMARK    5  A    between atoms: C_20  and  C_21
REMARK                            x       y       z     vdW  Elec       q    Type
REMARK                         _______ _______ _______ _____ _____    ______ ____
ROOT
ATOM      3  N   UNL     1      -4.559  -9.043   9.587  0.00  0.00    -0.299 NA
ATOM      8  C   UNL     1      -4.767  -8.776  11.011  0.00  0.00    +0.097 C 
ATOM      9  C   UNL     1      -3.607  -9.531  11.674  0.00  0.00    +0.092 C 
ATOM     10  C   UNL     1      -4.217 -10.463   9.514  0.00  0.00    +0.085 C 
ATOM     11  C   UNL     1      -3.236 -10.634  10.667  0.00  0.00    +0.029 C 
ENDROOT
BRANCH   3   7
ATOM      2  O   UNL     1      -9.799  -5.871   9.042  0.00  0.00    -0.276 OA
ATOM      4  N   UNL     1      -8.433  -7.691   8.571  0.00  0.00    -0.302 N 
ATOM      7  C   UNL     1      -5.732  -8.711   8.780  0.00  0.00    +0.060 C 
ATOM     12  C   UNL     1      -6.939  -9.536   9.241  0.00  0.00    +0.038 C 
ATOM     13  C   UNL     1      -6.035  -7.211   8.886  0.00  0.00    +0.038 C 
ATOM     14  C   UNL     1      -8.201  -9.138   8.475  0.00  0.00    +0.109 C 
ATOM     15  C   UNL     1      -7.313  -6.858   8.127  0.00  0.00    +0.109 C 
ATOM     17  C   UNL     1      -9.614  -7.090   9.004  0.00  0.00    +0.212 C 
ATOM     19  C   UNL     1     -10.720  -8.016   9.448  0.00  0.00    +0.109 C 
ENDBRANCH   3   7
BRANCH   9  16
ATOM      1  O   UNL     1      -5.257 -10.042  13.408  0.00  0.00    -0.424 OA
ATOM      5  N   UNL     1      -3.142 -10.450  14.013  0.00  0.00    -0.112 NA
ATOM      6  N   UNL     1      -3.962 -10.781  15.075  0.00  0.00    -0.112 NA
ATOM     16  C   UNL     1      -3.941 -10.024  13.062  0.00  0.00    +0.222 A 
ATOM     18  C   UNL     1      -5.187 -10.526  14.679  0.00  0.00    +0.222 A 
BRANCH  18  20
ATOM     20  C   UNL     1      -6.457 -10.691  15.396  0.00  0.00    +0.132 C 
BRANCH  20  21
ATOM     21  C   UNL     1      -6.343 -10.627  16.916  0.00  0.00    -0.038 A 
ATOM     22  C   UNL     1      -7.495 -10.551  17.699  0.00  0.00    +0.004 A 
ATOM     23  C   UNL     1      -5.088 -10.644  17.523  0.00  0.00    +0.004 A 
ATOM     24  C   UNL     1      -7.391 -10.492  19.089  0.00  0.00    +0.000 A 
ATOM     25  C   UNL     1      -4.983 -10.585  18.913  0.00  0.00    +0.000 A 
ATOM     26  C   UNL     1      -6.136 -10.509  19.696  0.00  0.00    +0.000 A 
ENDBRANCH  20  21
ENDBRANCH  18  20
ENDBRANCH   9  16
TORSDOF 4
ENDMDL
MODEL 2
REMARK VINA RESULT:      -4.3      1.648      2.497
REMARK  Name = 51137408
REMARK  5 active torsions:
REMARK  status: ('A' for Active; 'I' for Inactive)
REMARK    1  A    between atoms: N_3  and  C_7
REMARK    2  A    between atoms: C_9  and  C_16
REMARK    3  A    between atoms: C_17  and  C_19
REMARK    4  A    between atoms: C_18  and  C_20
REMARK    5  A    between atoms: C_20  and  C_21
REMARK                            x       y       z     vdW  Elec       q    Type
REMARK                         _______ _______ _______ _____ _____    ______ ____
ROOT
ATOM      3  N   UNL     1      -4.429  -9.426   9.594  0.00  0.00    -0.299 NA
ATOM      8  C   UNL     1      -4.585  -9.110  11.015  0.00  0.00    +0.097 C 
ATOM      9  C   UNL     1      -3.284  -9.643  11.629  0.00  0.00    +0.092 C 
ATOM     10  C   UNL     1      -3.879 -10.781   9.567  0.00  0.00    +0.085 C 
ATOM     11  C   UNL     1      -2.813 -10.736  10.653  0.00  0.00    +0.029 C 
ENDROOT
BRANCH   3   7
ATOM      2  O   UNL     1     -10.388  -7.911   9.623  0.00  0.00    -0.276 OA
ATOM      4  N   UNL     1      -8.575  -9.129   8.830  0.00  0.00    -0.302 N 
ATOM      7  C   UNL     1      -5.687  -9.320   8.858  0.00  0.00    +0.060 C 
ATOM     12  C   UNL     1      -6.575 -10.535   9.155  0.00  0.00    +0.038 C 
ATOM     13  C   UNL     1      -6.411  -8.022   9.237  0.00  0.00    +0.038 C 
ATOM     14  C   UNL     1      -7.935 -10.401   8.471  0.00  0.00    +0.109 C 
ATOM     15  C   UNL     1      -7.773  -7.936   8.551  0.00  0.00    +0.109 C 
ATOM     17  C   UNL     1      -9.857  -8.993   9.361  0.00  0.00    +0.212 C 
ATOM     19  C   UNL     1     -10.619 -10.269   9.624  0.00  0.00    +0.109 C 
ENDBRANCH   3   7
BRANCH   9  16
ATOM      1  O   UNL     1      -4.721 -10.157  13.543  0.00  0.00    -0.424 OA
ATOM      5  N   UNL     1      -2.540 -10.457  13.935  0.00  0.00    -0.112 NA
ATOM      6  N   UNL     1      -3.230 -10.781  15.088  0.00  0.00    -0.112 NA
ATOM     16  C   UNL     1      -3.450 -10.098  13.060  0.00  0.00    +0.222 A 
ATOM     18  C   UNL     1      -4.499 -10.591  14.814  0.00  0.00    +0.222 A 
BRANCH  18  20
ATOM     20  C   UNL     1      -5.679 -10.781  15.666  0.00  0.00    +0.132 C 
BRANCH  20  21
ATOM     21  C   UNL     1      -6.990 -10.293  15.057  0.00  0.00    -0.038 A 
ATOM     22  C   UNL     1      -7.951  -9.687  15.866  0.00  0.00    +0.004 A 
ATOM     23  C   UNL     1      -7.229 -10.455  13.693  0.00  0.00    +0.004 A 
ATOM     24  C   UNL     1      -9.151  -9.241  15.309  0.00  0.00    +0.000 A 
ATOM     25  C   UNL     1      -8.427 -10.009  13.136  0.00  0.00    +0.000 A 
ATOM     26  C   UNL     1      -9.389  -9.402  13.945  0.00  0.00    +0.000 A 
ENDBRANCH  20  21
ENDBRANCH  18  20
ENDBRANCH   9  16
TORSDOF 4
ENDMDL
MODEL 3
REMARK VINA RESULT:      -3.1     14.704     17.656
REMARK  Name = 51137408
REMARK  5 active torsions:
REMARK  status: ('A' for Active; 'I' for Inactive)
REMARK    1  A    between atoms: N_3  and  C_7
REMARK    2  A    between atoms: C_9  and  C_16
REMARK    3  A    between atoms: C_17  and  C_19
REMARK    4  A    between atoms: C_18  and  C_20
REMARK    5  A    between atoms: C_20  and  C_21
REMARK                            x       y       z     vdW  Elec       q    Type
REMARK                         _______ _______ _______ _____ _____    ______ ____
ROOT
ATOM      3  N   UNL     1       0.372   2.696  24.131  0.00  0.00    -0.299 NA
ATOM      8  C   UNL     1      -1.016   2.794  23.673  0.00  0.00    +0.097 C 
ATOM      9  C   UNL     1      -1.710   3.512  24.839  0.00  0.00    +0.092 C 
ATOM     10  C   UNL     1       0.279   2.304  25.537  0.00  0.00    +0.085 C 
ATOM     11  C   UNL     1      -0.836   3.198  26.065  0.00  0.00    +0.029 C 
ENDROOT
BRANCH   3   7
ATOM      2  O   UNL     1       4.152  -2.152  24.019  0.00  0.00    -0.276 OA
ATOM      4  N   UNL     1       3.300  -0.182  23.129  0.00  0.00    -0.302 N 
ATOM      7  C   UNL     1       1.155   1.750  23.339  0.00  0.00    +0.060 C 
ATOM     12  C   UNL     1       2.625   2.184  23.301  0.00  0.00    +0.038 C 
ATOM     13  C   UNL     1       1.027   0.339  23.928  0.00  0.00    +0.038 C 
ATOM     14  C   UNL     1       3.481   1.158  22.558  0.00  0.00    +0.109 C 
ATOM     15  C   UNL     1       1.913  -0.650  23.172  0.00  0.00    +0.109 C 
ATOM     17  C   UNL     1       4.326  -1.014  23.576  0.00  0.00    +0.212 C 
ATOM     19  C   UNL     1       5.727  -0.459  23.501  0.00  0.00    +0.109 C 
ENDBRANCH   3   7
BRANCH   9  16
ATOM      1  O   UNL     1      -3.476   1.816  24.818  0.00  0.00    -0.424 OA
ATOM      5  N   UNL     1      -4.205   3.887  25.248  0.00  0.00    -0.112 NA
ATOM      6  N   UNL     1      -5.295   3.037  25.267  0.00  0.00    -0.112 NA
ATOM     16  C   UNL     1      -3.165   3.131  24.982  0.00  0.00    +0.222 A 
ATOM     18  C   UNL     1      -4.823   1.839  25.011  0.00  0.00    +0.222 A 
BRANCH  18  20
ATOM     20  C   UNL     1      -5.530   0.556  24.910  0.00  0.00    +0.132 C 
BRANCH  20  21
ATOM     21  C   UNL     1      -4.622  -0.668  24.848  0.00  0.00    -0.038 A 
ATOM     22  C   UNL     1      -3.723  -0.922  25.883  0.00  0.00    +0.004 A 
ATOM     23  C   UNL     1      -4.690  -1.532  23.755  0.00  0.00    +0.004 A 
ATOM     24  C   UNL     1      -2.891  -2.041  25.826  0.00  0.00    +0.000 A 
ATOM     25  C   UNL     1      -3.860  -2.651  23.698  0.00  0.00    +0.000 A 
ATOM     26  C   UNL     1      -2.960  -2.905  24.733  0.00  0.00    +0.000 A 
ENDBRANCH  20  21
ENDBRANCH  18  20
ENDBRANCH   9  16
TORSDOF 4
ENDMDL
MODEL 4
REMARK VINA RESULT:      -2.0      2.954      5.648
REMARK  Name = 51137408
REMARK  5 active torsions:
REMARK  status: ('A' for Active; 'I' for Inactive)
REMARK    1  A    between atoms: N_3  and  C_7
REMARK    2  A    between atoms: C_9  and  C_16
REMARK    3  A    between atoms: C_17  and  C_19
REMARK    4  A    between atoms: C_18  and  C_20
REMARK    5  A    between atoms: C_20  and  C_21
REMARK                            x       y       z     vdW  Elec       q    Type
REMARK                         _______ _______ _______ _____ _____    ______ ____
ROOT
ATOM      3  N   UNL     1      -7.295 -10.317  12.128  0.00  0.00    -0.299 NA
ATOM      8  C   UNL     1      -5.932 -10.775  11.852  0.00  0.00    +0.097 C 
ATOM      9  C   UNL     1      -5.285 -10.780  13.244  0.00  0.00    +0.092 C 
ATOM     10  C   UNL     1      -7.139  -9.218  13.080  0.00  0.00    +0.085 C 
ATOM     11  C   UNL     1      -6.103  -9.760  14.056  0.00  0.00    +0.029 C 
ENDROOT
BRANCH   3   7
ATOM      2  O   UNL     1      -8.645  -5.850   8.123  0.00  0.00    -0.276 OA
ATOM      4  N   UNL     1      -9.123  -7.831   9.239  0.00  0.00    -0.302 N 
ATOM      7  C   UNL     1      -8.001  -9.908  10.916  0.00  0.00    +0.060 C 
ATOM     12  C   UNL     1      -9.312  -9.201  11.283  0.00  0.00    +0.038 C 
ATOM     13  C   UNL     1      -7.110  -8.984  10.075  0.00  0.00    +0.038 C 
ATOM     14  C   UNL     1     -10.022  -8.678  10.033  0.00  0.00    +0.109 C 
ATOM     15  C   UNL     1      -7.863  -8.468   8.850  0.00  0.00    +0.109 C 
ATOM     17  C   UNL     1      -9.401  -6.531   8.821  0.00  0.00    +0.212 C 
ATOM     19  C   UNL     1     -10.718  -5.945   9.266  0.00  0.00    +0.109 C 
ENDBRANCH   3   7
BRANCH   9  16
ATOM      1  O   UNL     1      -3.258 -10.225  11.989  0.00  0.00    -0.424 OA
ATOM      5  N   UNL     1      -2.921 -10.517  14.181  0.00  0.00    -0.112 NA
ATOM      6  N   UNL     1      -1.706 -10.211  13.599  0.00  0.00    -0.112 NA
ATOM     16  C   UNL     1      -3.798 -10.514  13.204  0.00  0.00    +0.222 A 
ATOM     18  C   UNL     1      -1.949 -10.048  12.319  0.00  0.00    +0.222 A 
BRANCH  18  20
ATOM     20  C   UNL     1      -1.029  -9.709  11.227  0.00  0.00    +0.132 C 
BRANCH  20  21
ATOM     21  C   UNL     1      -0.020  -8.615  11.560  0.00  0.00    -0.038 A 
ATOM     22  C   UNL     1       1.224  -8.599  10.928  0.00  0.00    +0.004 A 
ATOM     23  C   UNL     1      -0.339  -7.633  12.497  0.00  0.00    +0.004 A 
ATOM     24  C   UNL     1       2.148  -7.598  11.233  0.00  0.00    +0.000 A 
ATOM     25  C   UNL     1       0.584  -6.632  12.802  0.00  0.00    +0.000 A 
ATOM     26  C   UNL     1       1.828  -6.616  12.170  0.00  0.00    +0.000 A 
ENDBRANCH  20  21
ENDBRANCH  18  20
ENDBRANCH   9  16
TORSDOF 4
ENDMDL
MODEL 5
REMARK VINA RESULT:      -0.4     15.062     17.517
REMARK  Name = 51137408
REMARK  5 active torsions:
REMARK  status: ('A' for Active; 'I' for Inactive)
REMARK    1  A    between atoms: N_3  and  C_7
REMARK    2  A    between atoms: C_9  and  C_16
REMARK    3  A    between atoms: C_17  and  C_19
REMARK    4  A    between atoms: C_18  and  C_20
REMARK    5  A    between atoms: C_20  and  C_21
REMARK                            x       y       z     vdW  Elec       q    Type
REMARK                         _______ _______ _______ _____ _____    ______ ____
ROOT
ATOM      3  N   UNL     1      -1.265   4.346  25.109  0.00  0.00    -0.299 NA
ATOM      8  C   UNL     1      -0.807   2.976  25.345  0.00  0.00    +0.097 C 
ATOM      9  C   UNL     1       0.566   2.951  24.660  0.00  0.00    +0.092 C 
ATOM     10  C   UNL     1      -0.921   4.624  23.715  0.00  0.00    +0.085 C 
ATOM     11  C   UNL     1       0.489   4.059  23.595  0.00  0.00    +0.029 C 
ENDROOT
BRANCH   3   7
ATOM      2  O   UNL     1      -6.530   1.867  27.095  0.00  0.00    -0.276 OA
ATOM      4  N   UNL     1      -5.318   3.368  25.799  0.00  0.00    -0.302 N 
ATOM      7  C   UNL     1      -2.693   4.510  25.373  0.00  0.00    +0.060 C 
ATOM     12  C   UNL     1      -3.513   3.930  24.214  0.00  0.00    +0.038 C 
ATOM     13  C   UNL     1      -3.066   3.822  26.692  0.00  0.00    +0.038 C 
ATOM     14  C   UNL     1      -5.011   4.004  24.512  0.00  0.00    +0.109 C 
ATOM     15  C   UNL     1      -4.571   3.899  26.941  0.00  0.00    +0.109 C 
ATOM     17  C   UNL     1      -6.263   2.362  25.996  0.00  0.00    +0.212 C 
ATOM     19  C   UNL     1      -6.988   1.866  24.770  0.00  0.00    +0.109 C 
ENDBRANCH   3   7
BRANCH   9  16
ATOM      1  O   UNL     1       0.066   0.570  24.386  0.00  0.00    -0.424 OA
ATOM      5  N   UNL     1       1.990   1.212  23.444  0.00  0.00    -0.112 NA
ATOM      6  N   UNL     1       1.833  -0.142  23.215  0.00  0.00    -0.112 NA
ATOM     16  C   UNL     1       0.936   1.585  24.130  0.00  0.00    +0.222 A 
ATOM     18  C   UNL     1       0.697  -0.474  23.782  0.00  0.00    +0.222 A 
BRANCH  18  20
ATOM     20  C   UNL     1       0.031  -1.780  23.850  0.00  0.00    +0.132 C 
BRANCH  20  21
ATOM     21  C   UNL     1      -1.468  -1.718  24.122  0.00  0.00    -0.038 A 
ATOM     22  C   UNL     1      -2.110  -0.482  24.212  0.00  0.00    +0.004 A 
ATOM     23  C   UNL     1      -2.198  -2.895  24.283  0.00  0.00    +0.004 A 
ATOM     24  C   UNL     1      -3.482  -0.425  24.461  0.00  0.00    +0.000 A 
ATOM     25  C   UNL     1      -3.570  -2.838  24.532  0.00  0.00    +0.000 A 
ATOM     26  C   UNL     1      -4.211  -1.602  24.621  0.00  0.00    +0.000 A 
ENDBRANCH  20  21
ENDBRANCH  18  20
ENDBRANCH   9  16
TORSDOF 4
ENDMDL
