MODEL 1
REMARK VINA RESULT:      -1.6      0.000      0.000
REMARK  Name = 51137133
REMARK  6 active torsions:
REMARK  status: ('A' for Active; 'I' for Inactive)
REMARK    1  A    between atoms: S_1  and  C_23
REMARK    2  A    between atoms: S_1  and  C_25
REMARK    3  A    between atoms: N_5  and  C_8
REMARK    4  A    between atoms: C_7  and  C_8
REMARK    5  A    between atoms: C_9  and  C_18
REMARK    6  A    between atoms: C_25  and  C_26
REMARK                            x       y       z     vdW  Elec       q    Type
REMARK                         _______ _______ _______ _____ _____    ______ ____
ROOT
ATOM      2  O   UNL     1      -5.021 -10.681  12.251  0.00  0.00    -0.439 OA
ATOM      6  N   UNL     1      -4.272  -9.044  10.874  0.00  0.00    -0.213 NA
ATOM     18  C   UNL     1      -3.969  -9.968  11.759  0.00  0.00    +0.201 A 
ATOM     19  C   UNL     1      -5.638  -9.146  10.764  0.00  0.00    +0.111 A 
ATOM     20  C   UNL     1      -6.100 -10.148  11.605  0.00  0.00    +0.155 A 
ATOM     21  C   UNL     1      -6.561  -8.438   9.983  0.00  0.00    +0.058 A 
ATOM     22  C   UNL     1      -7.433 -10.515  11.741  0.00  0.00    +0.050 A 
ATOM     23  C   UNL     1      -7.917  -8.780  10.092  0.00  0.00    +0.090 A 
ATOM     24  C   UNL     1      -8.342  -9.799  10.955  0.00  0.00    +0.030 A 
ENDROOT
BRANCH  18   9
ATOM      5  N   UNL     1      -1.329 -10.383  14.264  0.00  0.00    -0.301 NA
ATOM      9  C   UNL     1      -2.609 -10.342  12.300  0.00  0.00    +0.090 C 
ATOM     10  C   UNL     1      -2.650 -10.777  13.771  0.00  0.00    +0.097 C 
ATOM     13  C   UNL     1      -1.096  -9.054  13.698  0.00  0.00    +0.085 C 
ATOM     14  C   UNL     1      -1.564  -9.212  12.257  0.00  0.00    +0.029 C 
BRANCH   5   8
ATOM      8  C   UNL     1      -1.255 -10.386  15.718  0.00  0.00    +0.088 C 
BRANCH   8   7
ATOM      7  C   UNL     1      -2.602 -10.769  16.330  0.00  0.00    +0.003 C 
ATOM     11  C   UNL     1      -2.623 -10.455  17.832  0.00  0.00    +0.005 C 
ATOM     12  C   UNL     1      -3.750 -10.054  15.606  0.00  0.00    +0.005 C 
ATOM     15  C   UNL     1      -3.979 -10.781  18.457  0.00  0.00    +0.000 C 
ATOM     16  C   UNL     1      -5.103 -10.381  16.233  0.00  0.00    +0.000 C 
ATOM     17  C   UNL     1      -5.119 -10.075  17.728  0.00  0.00    +0.000 C 
ENDBRANCH   8   7
ENDBRANCH   5   8
ENDBRANCH  18   9
BRANCH  23   1
ATOM      1  S   UNL     1      -9.099  -7.916   9.134  0.00  0.00    -0.003 S 
ATOM      3  O   UNL     1     -10.117  -7.373  10.022  0.00  0.00    -0.169 OA
ATOM      4  O   UNL     1      -8.378  -7.032   8.231  0.00  0.00    -0.169 OA
BRANCH   1  25
ATOM     25  C   UNL     1      -9.881  -9.179   8.158  0.00  0.00    +0.168 C 
ATOM     26  C   UNL     1      -9.167 -10.506   8.291  0.00  0.00    +0.028 C 
ENDBRANCH   1  25
ENDBRANCH  23   1
TORSDOF 5
ENDMDL
MODEL 2
REMARK VINA RESULT:      -1.0     15.749     17.881
REMARK  Name = 51137133
REMARK  6 active torsions:
REMARK  status: ('A' for Active; 'I' for Inactive)
REMARK    1  A    between atoms: S_1  and  C_23
REMARK    2  A    between atoms: S_1  and  C_25
REMARK    3  A    between atoms: N_5  and  C_8
REMARK    4  A    between atoms: C_7  and  C_8
REMARK    5  A    between atoms: C_9  and  C_18
REMARK    6  A    between atoms: C_25  and  C_26
REMARK                            x       y       z     vdW  Elec       q    Type
REMARK                         _______ _______ _______ _____ _____    ______ ____
ROOT
ATOM      2  O   UNL     1      -1.470   1.135  24.213  0.00  0.00    -0.439 OA
ATOM      6  N   UNL     1      -0.879  -0.980  23.655  0.00  0.00    -0.213 NA
ATOM     18  C   UNL     1      -1.839  -0.164  24.029  0.00  0.00    +0.201 A 
ATOM     19  C   UNL     1       0.222  -0.162  23.581  0.00  0.00    +0.111 A 
ATOM     20  C   UNL     1      -0.135   1.134  23.922  0.00  0.00    +0.155 A 
ATOM     21  C   UNL     1       1.555  -0.429  23.237  0.00  0.00    +0.058 A 
ATOM     22  C   UNL     1       0.737   2.214  23.952  0.00  0.00    +0.050 A 
ATOM     23  C   UNL     1       2.466   0.637  23.255  0.00  0.00    +0.090 A 
ATOM     24  C   UNL     1       2.064   1.932  23.606  0.00  0.00    +0.030 A 
ENDROOT
BRANCH  18   9
ATOM      5  N   UNL     1      -5.329   0.496  24.925  0.00  0.00    -0.301 NA
ATOM      9  C   UNL     1      -3.295  -0.477  24.282  0.00  0.00    +0.090 C 
ATOM     10  C   UNL     1      -4.222   0.711  23.992  0.00  0.00    +0.097 C 
ATOM     13  C   UNL     1      -4.692   0.103  26.183  0.00  0.00    +0.085 C 
ATOM     14  C   UNL     1      -3.626  -0.885  25.729  0.00  0.00    +0.029 C 
BRANCH   5   8
ATOM      8  C   UNL     1      -6.168   1.677  25.074  0.00  0.00    +0.088 C 
BRANCH   8   7
ATOM      7  C   UNL     1      -5.320   2.948  25.090  0.00  0.00    +0.003 C 
ATOM     11  C   UNL     1      -4.473   3.018  26.367  0.00  0.00    +0.005 C 
ATOM     12  C   UNL     1      -4.432   3.022  23.840  0.00  0.00    +0.005 C 
ATOM     15  C   UNL     1      -3.576   4.255  26.381  0.00  0.00    +0.000 C 
ATOM     16  C   UNL     1      -3.536   4.258  23.858  0.00  0.00    +0.000 C 
ATOM     17  C   UNL     1      -2.701   4.330  25.133  0.00  0.00    +0.000 C 
ENDBRANCH   8   7
ENDBRANCH   5   8
ENDBRANCH  18   9
BRANCH  23   1
ATOM      1  S   UNL     1       4.138   0.341  22.834  0.00  0.00    -0.003 S 
ATOM      3  O   UNL     1       4.241   0.203  21.388  0.00  0.00    -0.169 OA
ATOM      4  O   UNL     1       4.952   1.328  23.528  0.00  0.00    -0.169 OA
BRANCH   1  25
ATOM     25  C   UNL     1       4.493  -1.253  23.535  0.00  0.00    +0.168 C 
ATOM     26  C   UNL     1       5.735  -1.217  24.397  0.00  0.00    +0.028 C 
ENDBRANCH   1  25
ENDBRANCH  23   1
TORSDOF 5
ENDMDL
MODEL 3
REMARK VINA RESULT:      -0.5     15.147     17.611
REMARK  Name = 51137133
REMARK  6 active torsions:
REMARK  status: ('A' for Active; 'I' for Inactive)
REMARK    1  A    between atoms: S_1  and  C_23
REMARK    2  A    between atoms: S_1  and  C_25
REMARK    3  A    between atoms: N_5  and  C_8
REMARK    4  A    between atoms: C_7  and  C_8
REMARK    5  A    between atoms: C_9  and  C_18
REMARK    6  A    between atoms: C_25  and  C_26
REMARK                            x       y       z     vdW  Elec       q    Type
REMARK                         _______ _______ _______ _____ _____    ______ ____
ROOT
ATOM      2  O   UNL     1      -1.225   1.175  23.482  0.00  0.00    -0.439 OA
ATOM      6  N   UNL     1       0.101   2.687  24.526  0.00  0.00    -0.213 NA
ATOM     18  C   UNL     1      -1.123   2.296  24.250  0.00  0.00    +0.201 A 
ATOM     19  C   UNL     1       0.883   1.752  23.891  0.00  0.00    +0.111 A 
ATOM     20  C   UNL     1       0.074   0.824  23.251  0.00  0.00    +0.155 A 
ATOM     21  C   UNL     1       2.275   1.611  23.804  0.00  0.00    +0.058 A 
ATOM     22  C   UNL     1       0.540  -0.257  22.514  0.00  0.00    +0.050 A 
ATOM     23  C   UNL     1       2.784   0.531  23.068  0.00  0.00    +0.090 A 
ATOM     24  C   UNL     1       1.931  -0.384  22.436  0.00  0.00    +0.030 A 
ENDROOT
BRANCH  18   9
ATOM      5  N   UNL     1      -4.681   2.441  25.109  0.00  0.00    -0.301 NA
ATOM      9  C   UNL     1      -2.429   2.927  24.674  0.00  0.00    +0.090 C 
ATOM     10  C   UNL     1      -3.339   1.959  25.442  0.00  0.00    +0.097 C 
ATOM     13  C   UNL     1      -4.635   2.728  23.675  0.00  0.00    +0.085 C 
ATOM     14  C   UNL     1      -3.301   3.446  23.516  0.00  0.00    +0.029 C 
BRANCH   5   8
ATOM      8  C   UNL     1      -5.718   1.477  25.448  0.00  0.00    +0.088 C 
BRANCH   8   7
ATOM      7  C   UNL     1      -5.183   0.048  25.355  0.00  0.00    +0.003 C 
ATOM     11  C   UNL     1      -4.838  -0.308  23.903  0.00  0.00    +0.005 C 
ATOM     12  C   UNL     1      -3.962  -0.133  26.268  0.00  0.00    +0.005 C 
ATOM     15  C   UNL     1      -4.250  -1.714  23.793  0.00  0.00    +0.000 C 
ATOM     16  C   UNL     1      -3.377  -1.539  26.153  0.00  0.00    +0.000 C 
ATOM     17  C   UNL     1      -3.042  -1.893  24.708  0.00  0.00    +0.000 C 
ENDBRANCH   8   7
ENDBRANCH   5   8
ENDBRANCH  18   9
BRANCH  23   1
ATOM      1  S   UNL     1       4.516   0.324  22.936  0.00  0.00    -0.003 S 
ATOM      3  O   UNL     1       4.864   0.170  21.531  0.00  0.00    -0.169 OA
ATOM      4  O   UNL     1       5.149   1.365  23.730  0.00  0.00    -0.169 OA
BRANCH   1  25
ATOM     25  C   UNL     1       4.833  -1.238  23.725  0.00  0.00    +0.168 C 
ATOM     26  C   UNL     1       6.108  -1.200  24.538  0.00  0.00    +0.028 C 
ENDBRANCH   1  25
ENDBRANCH  23   1
TORSDOF 5
ENDMDL
MODEL 4
REMARK VINA RESULT:       2.2      3.824      5.838
REMARK  Name = 51137133
REMARK  6 active torsions:
REMARK  status: ('A' for Active; 'I' for Inactive)
REMARK    1  A    between atoms: S_1  and  C_23
REMARK    2  A    between atoms: S_1  and  C_25
REMARK    3  A    between atoms: N_5  and  C_8
REMARK    4  A    between atoms: C_7  and  C_8
REMARK    5  A    between atoms: C_9  and  C_18
REMARK    6  A    between atoms: C_25  and  C_26
REMARK                            x       y       z     vdW  Elec       q    Type
REMARK                         _______ _______ _______ _____ _____    ______ ____
ROOT
ATOM      2  O   UNL     1      -2.525 -10.039  12.198  0.00  0.00    -0.439 OA
ATOM      6  N   UNL     1      -2.283  -8.805  10.313  0.00  0.00    -0.213 NA
ATOM     18  C   UNL     1      -1.711  -9.312  11.382  0.00  0.00    +0.201 A 
ATOM     19  C   UNL     1      -3.586  -9.225  10.422  0.00  0.00    +0.111 A 
ATOM     20  C   UNL     1      -3.738  -9.982  11.574  0.00  0.00    +0.155 A 
ATOM     21  C   UNL     1      -4.701  -9.016   9.597  0.00  0.00    +0.058 A 
ATOM     22  C   UNL     1      -4.930 -10.562  11.990  0.00  0.00    +0.050 A 
ATOM     23  C   UNL     1      -5.923  -9.587   9.982  0.00  0.00    +0.090 A 
ATOM     24  C   UNL     1      -6.033 -10.344  11.156  0.00  0.00    +0.030 A 
ENDROOT
BRANCH  18   9
ATOM      5  N   UNL     1       1.507  -7.676  12.008  0.00  0.00    -0.301 NA
ATOM      9  C   UNL     1      -0.270  -9.195  11.822  0.00  0.00    +0.090 C 
ATOM     10  C   UNL     1       0.085  -7.794  12.338  0.00  0.00    +0.097 C 
ATOM     13  C   UNL     1       1.627  -8.224  10.657  0.00  0.00    +0.085 C 
ATOM     14  C   UNL     1       0.768  -9.480  10.721  0.00  0.00    +0.029 C 
BRANCH   5   8
ATOM      8  C   UNL     1       1.986  -6.304  12.095  0.00  0.00    +0.088 C 
BRANCH   8   7
ATOM      7  C   UNL     1       3.513  -6.259  12.084  0.00  0.00    +0.003 C 
ATOM     11  C   UNL     1       4.036  -5.338  13.194  0.00  0.00    +0.005 C 
ATOM     12  C   UNL     1       4.097  -7.671  12.224  0.00  0.00    +0.005 C 
ATOM     15  C   UNL     1       5.563  -5.318  13.237  0.00  0.00    +0.000 C 
ATOM     16  C   UNL     1       5.624  -7.648  12.269  0.00  0.00    +0.000 C 
ATOM     17  C   UNL     1       6.141  -6.724  13.368  0.00  0.00    +0.000 C 
ENDBRANCH   8   7
ENDBRANCH   5   8
ENDBRANCH  18   9
BRANCH  23   1
ATOM      1  S   UNL     1      -7.336  -9.345   8.979  0.00  0.00    -0.003 S 
ATOM      3  O   UNL     1      -7.253  -8.030   8.361  0.00  0.00    -0.169 OA
ATOM      4  O   UNL     1      -7.498 -10.529   8.148  0.00  0.00    -0.169 OA
BRANCH   1  25
ATOM     25  C   UNL     1      -8.688  -9.295  10.132  0.00  0.00    +0.168 C 
ATOM     26  C   UNL     1      -9.696 -10.388   9.854  0.00  0.00    +0.028 C 
ENDBRANCH   1  25
ENDBRANCH  23   1
TORSDOF 5
ENDMDL
