MODEL 1
REMARK VINA RESULT:      -5.2      0.000      0.000
REMARK  Name = 26744552
REMARK  4 active torsions:
REMARK  status: ('A' for Active; 'I' for Inactive)
REMARK    1  A    between atoms: O_1  and  C_8
REMARK    2  A    between atoms: N_3  and  C_11
REMARK    3  A    between atoms: C_6  and  C_10
REMARK    4  A    between atoms: C_12  and  C_13
REMARK                            x       y       z     vdW  Elec       q    Type
REMARK                         _______ _______ _______ _____ _____    ______ ____
ROOT
ATOM      2  O   UNL     1      -3.832 -10.488  13.589  0.00  0.00    -0.336 OA
ATOM      4  N   UNL     1      -5.960 -10.229  14.238  0.00  0.00    -0.190 NA
ATOM      5  N   UNL     1      -3.823 -10.560  14.987  0.00  0.00    -0.056 NA
ATOM     10  C   UNL     1      -5.128 -10.292  13.229  0.00  0.00    +0.245 A 
ATOM     12  C   UNL     1      -5.113 -10.398  15.296  0.00  0.00    +0.202 A 
ENDROOT
BRANCH  10   6
ATOM      3  N   UNL     1      -6.406  -9.135  11.434  0.00  0.00    -0.292 NA
ATOM      6  C   UNL     1      -5.408 -10.178  11.746  0.00  0.00    +0.148 C 
ATOM      7  C   UNL     1      -4.161  -9.786  10.932  0.00  0.00    +0.061 C 
ATOM      8  C   UNL     1      -4.569  -8.537  10.161  0.00  0.00    +0.130 C 
ATOM      9  C   UNL     1      -6.082  -8.638  10.099  0.00  0.00    +0.116 C 
ATOM     11  C   UNL     1      -7.780  -9.610  11.524  0.00  0.00    +0.105 C 
BRANCH   8   1
ATOM      1  O   UNL     1      -3.989  -8.531   8.872  0.00  0.00    -0.390 OA
ATOM     19  H   UNL     1      -4.440  -7.845   8.351  0.00  0.00    +0.210 HD
ENDBRANCH   8   1
ENDBRANCH  10   6
BRANCH  12  13
ATOM     13  C   UNL     1      -5.589 -10.400  16.649  0.00  0.00    +0.022 A 
ATOM     14  C   UNL     1      -6.909 -10.041  16.923  0.00  0.00    +0.012 A 
ATOM     15  C   UNL     1      -4.734 -10.762  17.689  0.00  0.00    +0.012 A 
ATOM     16  C   UNL     1      -7.372 -10.042  18.240  0.00  0.00    +0.001 A 
ATOM     17  C   UNL     1      -5.197 -10.763  19.004  0.00  0.00    +0.001 A 
ATOM     18  C   UNL     1      -6.517 -10.404  19.280  0.00  0.00    +0.000 A 
ENDBRANCH  12  13
TORSDOF 3
ENDMDL
MODEL 2
REMARK VINA RESULT:      -4.6      2.176      6.569
REMARK  Name = 26744552
REMARK  4 active torsions:
REMARK  status: ('A' for Active; 'I' for Inactive)
REMARK    1  A    between atoms: O_1  and  C_8
REMARK    2  A    between atoms: N_3  and  C_11
REMARK    3  A    between atoms: C_6  and  C_10
REMARK    4  A    between atoms: C_12  and  C_13
REMARK                            x       y       z     vdW  Elec       q    Type
REMARK                         _______ _______ _______ _____ _____    ______ ____
ROOT
ATOM      2  O   UNL     1      -4.676 -10.781  15.235  0.00  0.00    -0.336 OA
ATOM      4  N   UNL     1      -6.201 -10.024  13.779  0.00  0.00    -0.190 NA
ATOM      5  N   UNL     1      -3.981 -10.511  14.050  0.00  0.00    -0.056 NA
ATOM     10  C   UNL     1      -5.976 -10.468  14.990  0.00  0.00    +0.245 A 
ATOM     12  C   UNL     1      -4.948 -10.069  13.240  0.00  0.00    +0.202 A 
ENDROOT
BRANCH  10   6
ATOM      3  N   UNL     1      -6.524  -9.990  17.371  0.00  0.00    -0.292 NA
ATOM      6  C   UNL     1      -6.947 -10.675  16.133  0.00  0.00    +0.148 C 
ATOM      7  C   UNL     1      -8.350 -10.112  15.833  0.00  0.00    +0.061 C 
ATOM      8  C   UNL     1      -8.645  -9.155  16.979  0.00  0.00    +0.130 C 
ATOM      9  C   UNL     1      -7.746  -9.651  18.096  0.00  0.00    +0.116 C 
ATOM     11  C   UNL     1      -5.607 -10.781  18.180  0.00  0.00    +0.105 C 
BRANCH   8   1
ATOM      1  O   UNL     1     -10.011  -9.210  17.341  0.00  0.00    -0.390 OA
ATOM     19  H   UNL     1     -10.168  -8.511  17.997  0.00  0.00    +0.210 HD
ENDBRANCH   8   1
ENDBRANCH  10   6
BRANCH  12  13
ATOM     13  C   UNL     1      -4.695  -9.665  11.886  0.00  0.00    +0.022 A 
ATOM     14  C   UNL     1      -5.670  -8.964  11.176  0.00  0.00    +0.012 A 
ATOM     15  C   UNL     1      -3.476  -9.971  11.283  0.00  0.00    +0.012 A 
ATOM     16  C   UNL     1      -5.426  -8.572   9.859  0.00  0.00    +0.001 A 
ATOM     17  C   UNL     1      -3.232  -9.578   9.967  0.00  0.00    +0.001 A 
ATOM     18  C   UNL     1      -4.207  -8.878   9.255  0.00  0.00    +0.000 A 
ENDBRANCH  12  13
TORSDOF 3
ENDMDL
MODEL 3
REMARK VINA RESULT:      -3.9     14.915     16.696
REMARK  Name = 26744552
REMARK  4 active torsions:
REMARK  status: ('A' for Active; 'I' for Inactive)
REMARK    1  A    between atoms: O_1  and  C_8
REMARK    2  A    between atoms: N_3  and  C_11
REMARK    3  A    between atoms: C_6  and  C_10
REMARK    4  A    between atoms: C_12  and  C_13
REMARK                            x       y       z     vdW  Elec       q    Type
REMARK                         _______ _______ _______ _____ _____    ______ ____
ROOT
ATOM      2  O   UNL     1      -1.686   2.139  25.428  0.00  0.00    -0.336 OA
ATOM      4  N   UNL     1      -1.522   1.291  23.361  0.00  0.00    -0.190 NA
ATOM      5  N   UNL     1      -0.329   1.855  25.231  0.00  0.00    -0.056 NA
ATOM     10  C   UNL     1      -2.318   1.778  24.280  0.00  0.00    +0.245 A 
ATOM     12  C   UNL     1      -0.312   1.358  23.990  0.00  0.00    +0.202 A 
ENDROOT
BRANCH  10   6
ATOM      3  N   UNL     1      -4.544   1.073  25.140  0.00  0.00    -0.292 NA
ATOM      6  C   UNL     1      -3.816   1.989  24.239  0.00  0.00    +0.148 C 
ATOM      7  C   UNL     1      -4.233   3.401  24.692  0.00  0.00    +0.061 C 
ATOM      8  C   UNL     1      -5.229   3.175  25.821  0.00  0.00    +0.130 C 
ATOM      9  C   UNL     1      -5.756   1.776  25.555  0.00  0.00    +0.116 C 
ATOM     11  C   UNL     1      -4.841  -0.217  24.531  0.00  0.00    +0.105 C 
BRANCH   8   1
ATOM      1  O   UNL     1      -6.261   4.141  25.781  0.00  0.00    -0.390 OA
ATOM     19  H   UNL     1      -7.047   3.747  26.196  0.00  0.00    +0.210 HD
ENDBRANCH   8   1
ENDBRANCH  10   6
BRANCH  12  13
ATOM     13  C   UNL     1       0.895   0.918  23.351  0.00  0.00    +0.022 A 
ATOM     14  C   UNL     1       2.098   1.575  23.609  0.00  0.00    +0.012 A 
ATOM     15  C   UNL     1       0.865  -0.165  22.474  0.00  0.00    +0.012 A 
ATOM     16  C   UNL     1       3.272   1.149  22.987  0.00  0.00    +0.001 A 
ATOM     17  C   UNL     1       2.039  -0.591  21.852  0.00  0.00    +0.001 A 
ATOM     18  C   UNL     1       3.243   0.066  22.110  0.00  0.00    +0.000 A 
ENDBRANCH  12  13
TORSDOF 3
ENDMDL
MODEL 4
REMARK VINA RESULT:      -3.6      2.472      7.025
REMARK  Name = 26744552
REMARK  4 active torsions:
REMARK  status: ('A' for Active; 'I' for Inactive)
REMARK    1  A    between atoms: O_1  and  C_8
REMARK    2  A    between atoms: N_3  and  C_11
REMARK    3  A    between atoms: C_6  and  C_10
REMARK    4  A    between atoms: C_12  and  C_13
REMARK                            x       y       z     vdW  Elec       q    Type
REMARK                         _______ _______ _______ _____ _____    ______ ____
ROOT
ATOM      2  O   UNL     1      -5.690  -9.916  14.033  0.00  0.00    -0.336 OA
ATOM      4  N   UNL     1      -7.756  -9.817  13.171  0.00  0.00    -0.190 NA
ATOM      5  N   UNL     1      -5.532  -9.594  12.679  0.00  0.00    -0.056 NA
ATOM     10  C   UNL     1      -7.028 -10.029  14.240  0.00  0.00    +0.245 A 
ATOM     12  C   UNL     1      -6.794  -9.554  12.240  0.00  0.00    +0.202 A 
ENDROOT
BRANCH  10   6
ATOM      3  N   UNL     1      -6.534  -9.874  16.674  0.00  0.00    -0.292 NA
ATOM      6  C   UNL     1      -7.467 -10.377  15.646  0.00  0.00    +0.148 C 
ATOM      7  C   UNL     1      -8.829  -9.760  16.016  0.00  0.00    +0.061 C 
ATOM      8  C   UNL     1      -8.570  -8.964  17.288  0.00  0.00    +0.130 C 
ATOM      9  C   UNL     1      -7.332  -9.621  17.871  0.00  0.00    +0.116 C 
ATOM     11  C   UNL     1      -5.425 -10.781  16.936  0.00  0.00    +0.105 C 
BRANCH   8   1
ATOM      1  O   UNL     1      -9.674  -9.050  18.167  0.00  0.00    -0.390 OA
ATOM     19  H   UNL     1     -10.021  -8.150  18.290  0.00  0.00    +0.210 HD
ENDBRANCH   8   1
ENDBRANCH  10   6
BRANCH  12  13
ATOM     13  C   UNL     1      -7.127  -9.255  10.876  0.00  0.00    +0.022 A 
ATOM     14  C   UNL     1      -8.461  -9.263  10.468  0.00  0.00    +0.012 A 
ATOM     15  C   UNL     1      -6.118  -8.957   9.961  0.00  0.00    +0.012 A 
ATOM     16  C   UNL     1      -8.785  -8.973   9.142  0.00  0.00    +0.001 A 
ATOM     17  C   UNL     1      -6.443  -8.668   8.636  0.00  0.00    +0.001 A 
ATOM     18  C   UNL     1      -7.777  -8.675   8.227  0.00  0.00    +0.000 A 
ENDBRANCH  12  13
TORSDOF 3
ENDMDL
MODEL 5
REMARK VINA RESULT:      -3.6     14.771     16.564
REMARK  Name = 26744552
REMARK  4 active torsions:
REMARK  status: ('A' for Active; 'I' for Inactive)
REMARK    1  A    between atoms: O_1  and  C_8
REMARK    2  A    between atoms: N_3  and  C_11
REMARK    3  A    between atoms: C_6  and  C_10
REMARK    4  A    between atoms: C_12  and  C_13
REMARK                            x       y       z     vdW  Elec       q    Type
REMARK                         _______ _______ _______ _____ _____    ______ ____
ROOT
ATOM      2  O   UNL     1      -2.098  -0.378  24.854  0.00  0.00    -0.336 OA
ATOM      4  N   UNL     1      -0.947   1.473  24.336  0.00  0.00    -0.190 NA
ATOM      5  N   UNL     1      -0.932  -0.812  24.212  0.00  0.00    -0.056 NA
ATOM     10  C   UNL     1      -2.028   0.979  24.885  0.00  0.00    +0.245 A 
ATOM     12  C   UNL     1      -0.305   0.336  23.937  0.00  0.00    +0.202 A 
ENDROOT
BRANCH  10   6
ATOM      3  N   UNL     1      -3.340   3.088  25.053  0.00  0.00    -0.292 NA
ATOM      6  C   UNL     1      -3.188   1.700  25.538  0.00  0.00    +0.148 C 
ATOM      7  C   UNL     1      -4.545   1.032  25.249  0.00  0.00    +0.061 C 
ATOM      8  C   UNL     1      -5.407   2.132  24.645  0.00  0.00    +0.130 C 
ATOM      9  C   UNL     1      -4.762   3.408  25.154  0.00  0.00    +0.116 C 
ATOM     11  C   UNL     1      -2.510   4.042  25.775  0.00  0.00    +0.105 C 
BRANCH   8   1
ATOM      1  O   UNL     1      -6.748   2.013  25.076  0.00  0.00    -0.390 OA
ATOM     19  H   UNL     1      -6.937   1.066  25.186  0.00  0.00    +0.210 HD
ENDBRANCH   8   1
ENDBRANCH  10   6
BRANCH  12  13
ATOM     13  C   UNL     1       0.962   0.382  23.265  0.00  0.00    +0.022 A 
ATOM     14  C   UNL     1       1.192  -0.434  22.157  0.00  0.00    +0.012 A 
ATOM     15  C   UNL     1       1.961   1.242  23.719  0.00  0.00    +0.012 A 
ATOM     16  C   UNL     1       2.424  -0.391  21.504  0.00  0.00    +0.001 A 
ATOM     17  C   UNL     1       3.192   1.285  23.065  0.00  0.00    +0.001 A 
ATOM     18  C   UNL     1       3.424   0.469  21.957  0.00  0.00    +0.000 A 
ENDBRANCH  12  13
TORSDOF 3
ENDMDL
MODEL 6
REMARK VINA RESULT:      -3.2     24.921     26.828
REMARK  Name = 26744552
REMARK  4 active torsions:
REMARK  status: ('A' for Active; 'I' for Inactive)
REMARK    1  A    between atoms: O_1  and  C_8
REMARK    2  A    between atoms: N_3  and  C_11
REMARK    3  A    between atoms: C_6  and  C_10
REMARK    4  A    between atoms: C_12  and  C_13
REMARK                            x       y       z     vdW  Elec       q    Type
REMARK                         _______ _______ _______ _____ _____    ______ ____
ROOT
ATOM      2  O   UNL     1      13.611  -4.152  32.093  0.00  0.00    -0.336 OA
ATOM      4  N   UNL     1      14.388  -6.179  31.539  0.00  0.00    -0.190 NA
ATOM      5  N   UNL     1      12.526  -5.030  32.212  0.00  0.00    -0.056 NA
ATOM     10  C   UNL     1      14.667  -4.909  31.692  0.00  0.00    +0.245 A 
ATOM     12  C   UNL     1      13.064  -6.205  31.869  0.00  0.00    +0.202 A 
ENDROOT
BRANCH  10   6
ATOM      3  N   UNL     1      16.358  -4.083  30.064  0.00  0.00    -0.292 NA
ATOM      6  C   UNL     1      15.979  -4.183  31.488  0.00  0.00    +0.148 C 
ATOM      7  C   UNL     1      15.940  -2.726  31.987  0.00  0.00    +0.061 C 
ATOM      8  C   UNL     1      16.354  -1.886  30.787  0.00  0.00    +0.130 C 
ATOM      9  C   UNL     1      17.142  -2.858  29.928  0.00  0.00    +0.116 C 
ATOM     11  C   UNL     1      17.079  -5.252  29.579  0.00  0.00    +0.105 C 
BRANCH   8   1
ATOM      1  O   UNL     1      17.142  -0.785  31.193  0.00  0.00    -0.390 OA
ATOM     19  H   UNL     1      16.721  -0.397  31.979  0.00  0.00    +0.210 HD
ENDBRANCH   8   1
ENDBRANCH  10   6
BRANCH  12  13
ATOM     13  C   UNL     1      12.305  -7.423  31.846  0.00  0.00    +0.022 A 
ATOM     14  C   UNL     1      10.987  -7.431  32.305  0.00  0.00    +0.012 A 
ATOM     15  C   UNL     1      12.884  -8.596  31.363  0.00  0.00    +0.012 A 
ATOM     16  C   UNL     1      10.249  -8.615  32.283  0.00  0.00    +0.001 A 
ATOM     17  C   UNL     1      12.146  -9.779  31.342  0.00  0.00    +0.001 A 
ATOM     18  C   UNL     1      10.828  -9.788  31.801  0.00  0.00    +0.000 A 
ENDBRANCH  12  13
TORSDOF 3
ENDMDL
MODEL 7
REMARK VINA RESULT:      -3.1      2.824      6.783
REMARK  Name = 26744552
REMARK  4 active torsions:
REMARK  status: ('A' for Active; 'I' for Inactive)
REMARK    1  A    between atoms: O_1  and  C_8
REMARK    2  A    between atoms: N_3  and  C_11
REMARK    3  A    between atoms: C_6  and  C_10
REMARK    4  A    between atoms: C_12  and  C_13
REMARK                            x       y       z     vdW  Elec       q    Type
REMARK                         _______ _______ _______ _____ _____    ______ ____
ROOT
ATOM      2  O   UNL     1      -4.406  -8.867  11.354  0.00  0.00    -0.336 OA
ATOM      4  N   UNL     1      -6.002 -10.439  11.310  0.00  0.00    -0.190 NA
ATOM      5  N   UNL     1      -5.379  -8.408  10.458  0.00  0.00    -0.056 NA
ATOM     10  C   UNL     1      -4.850 -10.068  11.811  0.00  0.00    +0.245 A 
ATOM     12  C   UNL     1      -6.287  -9.389  10.486  0.00  0.00    +0.202 A 
ENDROOT
BRANCH  10   6
ATOM      3  N   UNL     1      -2.622 -10.171  12.916  0.00  0.00    -0.292 NA
ATOM      6  C   UNL     1      -3.963 -10.781  12.808  0.00  0.00    +0.148 C 
ATOM      7  C   UNL     1      -4.527 -10.746  14.241  0.00  0.00    +0.061 C 
ATOM      8  C   UNL     1      -3.416 -10.140  15.088  0.00  0.00    +0.130 C 
ATOM      9  C   UNL     1      -2.162 -10.418  14.280  0.00  0.00    +0.116 C 
ATOM     11  C   UNL     1      -1.682 -10.670  11.921  0.00  0.00    +0.105 C 
BRANCH   8   1
ATOM      1  O   UNL     1      -3.366 -10.751  16.362  0.00  0.00    -0.390 OA
ATOM     19  H   UNL     1      -4.051 -10.335  16.913  0.00  0.00    +0.210 HD
ENDBRANCH   8   1
ENDBRANCH  10   6
BRANCH  12  13
ATOM     13  C   UNL     1      -7.488  -9.351   9.702  0.00  0.00    +0.022 A 
ATOM     14  C   UNL     1      -8.044  -8.124   9.339  0.00  0.00    +0.012 A 
ATOM     15  C   UNL     1      -8.099 -10.539   9.303  0.00  0.00    +0.012 A 
ATOM     16  C   UNL     1      -9.213  -8.086   8.578  0.00  0.00    +0.001 A 
ATOM     17  C   UNL     1      -9.267 -10.501   8.543  0.00  0.00    +0.001 A 
ATOM     18  C   UNL     1      -9.823  -9.274   8.179  0.00  0.00    +0.000 A 
ENDBRANCH  12  13
TORSDOF 3
ENDMDL
MODEL 8
REMARK VINA RESULT:      -3.0     14.695     15.982
REMARK  Name = 26744552
REMARK  4 active torsions:
REMARK  status: ('A' for Active; 'I' for Inactive)
REMARK    1  A    between atoms: O_1  and  C_8
REMARK    2  A    between atoms: N_3  and  C_11
REMARK    3  A    between atoms: C_6  and  C_10
REMARK    4  A    between atoms: C_12  and  C_13
REMARK                            x       y       z     vdW  Elec       q    Type
REMARK                         _______ _______ _______ _____ _____    ______ ____
ROOT
ATOM      2  O   UNL     1       1.440   1.621  23.888  0.00  0.00    -0.336 OA
ATOM      4  N   UNL     1       0.428  -0.330  23.460  0.00  0.00    -0.190 NA
ATOM      5  N   UNL     1       0.115   1.769  24.316  0.00  0.00    -0.056 NA
ATOM     10  C   UNL     1       1.540   0.358  23.398  0.00  0.00    +0.245 A 
ATOM     12  C   UNL     1      -0.418   0.577  24.031  0.00  0.00    +0.202 A 
ENDROOT
BRANCH  10   6
ATOM      3  N   UNL     1       3.947   0.942  23.150  0.00  0.00    -0.292 NA
ATOM      6  C   UNL     1       2.895  -0.055  22.864  0.00  0.00    +0.148 C 
ATOM      7  C   UNL     1       3.411  -1.363  23.492  0.00  0.00    +0.061 C 
ATOM      8  C   UNL     1       4.777  -1.013  24.068  0.00  0.00    +0.130 C 
ATOM      9  C   UNL     1       5.201   0.200  23.261  0.00  0.00    +0.116 C 
ATOM     11  C   UNL     1       4.022   2.000  22.153  0.00  0.00    +0.105 C 
BRANCH   8   1
ATOM      1  O   UNL     1       5.679  -2.090  23.910  0.00  0.00    -0.390 OA
ATOM     19  H   UNL     1       6.440  -1.763  23.402  0.00  0.00    +0.210 HD
ENDBRANCH   8   1
ENDBRANCH  10   6
BRANCH  12  13
ATOM     13  C   UNL     1      -1.791   0.261  24.302  0.00  0.00    +0.022 A 
ATOM     14  C   UNL     1      -2.767   1.252  24.197  0.00  0.00    +0.012 A 
ATOM     15  C   UNL     1      -2.149  -1.035  24.669  0.00  0.00    +0.012 A 
ATOM     16  C   UNL     1      -4.102   0.946  24.461  0.00  0.00    +0.001 A 
ATOM     17  C   UNL     1      -3.483  -1.341  24.934  0.00  0.00    +0.001 A 
ATOM     18  C   UNL     1      -4.460  -0.351  24.829  0.00  0.00    +0.000 A 
ENDBRANCH  12  13
TORSDOF 3
ENDMDL
MODEL 9
REMARK VINA RESULT:      -2.9     14.816     16.427
REMARK  Name = 26744552
REMARK  4 active torsions:
REMARK  status: ('A' for Active; 'I' for Inactive)
REMARK    1  A    between atoms: O_1  and  C_8
REMARK    2  A    between atoms: N_3  and  C_11
REMARK    3  A    between atoms: C_6  and  C_10
REMARK    4  A    between atoms: C_12  and  C_13
REMARK                            x       y       z     vdW  Elec       q    Type
REMARK                         _______ _______ _______ _____ _____    ______ ____
ROOT
ATOM      2  O   UNL     1      -0.480   2.963  24.284  0.00  0.00    -0.336 OA
ATOM      4  N   UNL     1      -1.861   1.281  24.812  0.00  0.00    -0.190 NA
ATOM      5  N   UNL     1      -1.739   3.543  24.486  0.00  0.00    -0.056 NA
ATOM     10  C   UNL     1      -0.640   1.630  24.495  0.00  0.00    +0.245 A 
ATOM     12  C   UNL     1      -2.499   2.488  24.794  0.00  0.00    +0.202 A 
ENDROOT
BRANCH  10   6
ATOM      3  N   UNL     1       0.315  -0.500  23.632  0.00  0.00    -0.292 NA
ATOM      6  C   UNL     1       0.594   0.768  24.336  0.00  0.00    +0.148 C 
ATOM      7  C   UNL     1       1.694   1.449  23.499  0.00  0.00    +0.061 C 
ATOM      8  C   UNL     1       1.997   0.469  22.373  0.00  0.00    +0.130 C 
ATOM      9  C   UNL     1       1.545  -0.867  22.935  0.00  0.00    +0.116 C 
ATOM     11  C   UNL     1      -0.151  -1.558  24.518  0.00  0.00    +0.105 C 
BRANCH   8   1
ATOM      1  O   UNL     1       3.377   0.469  22.065  0.00  0.00    -0.390 OA
ATOM     19  H   UNL     1       3.684   1.391  22.102  0.00  0.00    +0.210 HD
ENDBRANCH   8   1
ENDBRANCH  10   6
BRANCH  12  13
ATOM     13  C   UNL     1      -3.898   2.605  25.088  0.00  0.00    +0.022 A 
ATOM     14  C   UNL     1      -4.725   1.484  24.997  0.00  0.00    +0.012 A 
ATOM     15  C   UNL     1      -4.432   3.837  25.464  0.00  0.00    +0.012 A 
ATOM     16  C   UNL     1      -6.086   1.598  25.282  0.00  0.00    +0.001 A 
ATOM     17  C   UNL     1      -5.792   3.950  25.748  0.00  0.00    +0.001 A 
ATOM     18  C   UNL     1      -6.619   2.830  25.658  0.00  0.00    +0.000 A 
ENDBRANCH  12  13
TORSDOF 3
ENDMDL
MODEL 10
REMARK VINA RESULT:      -2.8     24.087     25.588
REMARK  Name = 26744552
REMARK  4 active torsions:
REMARK  status: ('A' for Active; 'I' for Inactive)
REMARK    1  A    between atoms: O_1  and  C_8
REMARK    2  A    between atoms: N_3  and  C_11
REMARK    3  A    between atoms: C_6  and  C_10
REMARK    4  A    between atoms: C_12  and  C_13
REMARK                            x       y       z     vdW  Elec       q    Type
REMARK                         _______ _______ _______ _____ _____    ______ ____
ROOT
ATOM      2  O   UNL     1      12.521  -5.366  32.005  0.00  0.00    -0.336 OA
ATOM      4  N   UNL     1      12.628  -7.435  31.152  0.00  0.00    -0.190 NA
ATOM      5  N   UNL     1      11.396  -6.045  32.489  0.00  0.00    -0.056 NA
ATOM     10  C   UNL     1      13.192  -6.255  31.226  0.00  0.00    +0.245 A 
ATOM     12  C   UNL     1      11.530  -7.258  31.943  0.00  0.00    +0.202 A 
ENDROOT
BRANCH  10   6
ATOM      3  N   UNL     1      15.658  -5.979  31.418  0.00  0.00    -0.292 NA
ATOM      6  C   UNL     1      14.464  -5.758  30.576  0.00  0.00    +0.148 C 
ATOM      7  C   UNL     1      14.779  -6.478  29.251  0.00  0.00    +0.061 C 
ATOM      8  C   UNL     1      16.186  -7.034  29.428  0.00  0.00    +0.130 C 
ATOM      9  C   UNL     1      16.785  -6.147  30.503  0.00  0.00    +0.116 C 
ATOM     11  C   UNL     1      15.887  -4.910  32.380  0.00  0.00    +0.105 C 
BRANCH   8   1
ATOM      1  O   UNL     1      16.912  -6.956  28.217  0.00  0.00    -0.390 OA
ATOM     19  H   UNL     1      17.535  -6.214  28.297  0.00  0.00    +0.210 HD
ENDBRANCH   8   1
ENDBRANCH  10   6
BRANCH  12  13
ATOM     13  C   UNL     1      10.583  -8.313  32.167  0.00  0.00    +0.022 A 
ATOM     14  C   UNL     1      10.944  -9.636  31.911  0.00  0.00    +0.012 A 
ATOM     15  C   UNL     1       9.306  -8.016  32.639  0.00  0.00    +0.012 A 
ATOM     16  C   UNL     1      10.024 -10.663  32.127  0.00  0.00    +0.001 A 
ATOM     17  C   UNL     1       8.387  -9.042  32.855  0.00  0.00    +0.001 A 
ATOM     18  C   UNL     1       8.746 -10.366  32.600  0.00  0.00    +0.000 A 
ENDBRANCH  12  13
TORSDOF 3
ENDMDL
