MODEL 1
REMARK VINA RESULT:      -0.9      0.000      0.000
REMARK  Name = 75536079
REMARK  5 active torsions:
REMARK  status: ('A' for Active; 'I' for Inactive)
REMARK    1  A    between atoms: O_2  and  C_10
REMARK    2  A    between atoms: O_3  and  C_12
REMARK    3  A    between atoms: N_5  and  C_9
REMARK    4  A    between atoms: C_8  and  C_13
REMARK    5  A    between atoms: C_16  and  C_18
REMARK                            x       y       z     vdW  Elec       q    Type
REMARK                         _______ _______ _______ _____ _____    ______ ____
ROOT
ATOM      8  C   UNL     1      -2.457  -0.277  25.450  0.00  0.00    +0.046 C 
ATOM      9  C   UNL     1      -1.832  -1.084  24.291  0.00  0.00    +0.112 C 
ATOM     10  C   UNL     1      -2.239  -2.524  24.599  0.00  0.00    +0.164 C 
ATOM     11  C   UNL     1      -3.625  -1.144  25.987  0.00  0.00    +0.044 C 
ATOM     12  C   UNL     1      -3.674  -2.379  25.091  0.00  0.00    +0.145 C 
ENDROOT
BRANCH   8  13
ATOM      6  N   UNL     1      -2.231   3.441  24.730  0.00  0.00    -0.263 NA
ATOM     13  C   UNL     1      -2.855   1.127  25.048  0.00  0.00    -0.024 A 
ATOM     14  C   UNL     1      -4.152   1.414  24.639  0.00  0.00    +0.007 A 
ATOM     15  C   UNL     1      -1.940   2.167  25.076  0.00  0.00    +0.114 A 
ATOM     17  C   UNL     1      -4.490   2.713  24.275  0.00  0.00    +0.020 A 
ATOM     19  C   UNL     1      -3.502   3.682  24.338  0.00  0.00    +0.111 A 
ENDBRANCH   8  13
BRANCH   9   5
ATOM      4  O   UNL     1      -0.346   0.448  22.369  0.00  0.00    -0.268 OA
ATOM      5  N   UNL     1      -0.400  -0.930  24.234  0.00  0.00    -0.304 N 
ATOM     16  C   UNL     1       0.232  -0.165  23.263  0.00  0.00    +0.270 C 
ATOM     26  H   UNL     1       0.164  -1.371  24.956  0.00  0.00    +0.149 HD
BRANCH  16  18
ATOM      1  S   UNL     1       2.565   1.314  22.973  0.00  0.00    -0.063 S 
ATOM      7  N   UNL     1       2.442  -1.172  23.650  0.00  0.00    -0.234 NA
ATOM     18  C   UNL     1       1.716  -0.129  23.326  0.00  0.00    +0.164 A 
ATOM     20  C   UNL     1       4.054   0.497  23.272  0.00  0.00    +0.040 A 
ATOM     21  C   UNL     1       3.787  -0.829  23.622  0.00  0.00    +0.079 A 
ATOM     22  C   UNL     1       5.365   0.996  23.201  0.00  0.00    +0.017 A 
ATOM     23  C   UNL     1       4.871  -1.685  23.911  0.00  0.00    +0.029 A 
ATOM     24  C   UNL     1       6.421   0.128  23.492  0.00  0.00    +0.001 A 
ATOM     25  C   UNL     1       6.179  -1.196  23.843  0.00  0.00    +0.002 A 
ENDBRANCH  16  18
ENDBRANCH   9   5
BRANCH  10   2
ATOM      2  O   UNL     1      -2.172  -3.357  23.458  0.00  0.00    -0.387 OA
ATOM     27  H   UNL     1      -2.586  -4.205  23.690  0.00  0.00    +0.210 HD
ENDBRANCH  10   2
BRANCH  12   3
ATOM      3  O   UNL     1      -4.562  -2.123  24.009  0.00  0.00    -0.389 OA
ATOM     28  H   UNL     1      -5.057  -2.942  23.836  0.00  0.00    +0.210 HD
ENDBRANCH  12   3
TORSDOF 5
ENDMDL
MODEL 2
REMARK VINA RESULT:       0.6      1.934      3.555
REMARK  Name = 75536079
REMARK  5 active torsions:
REMARK  status: ('A' for Active; 'I' for Inactive)
REMARK    1  A    between atoms: O_2  and  C_10
REMARK    2  A    between atoms: O_3  and  C_12
REMARK    3  A    between atoms: N_5  and  C_9
REMARK    4  A    between atoms: C_8  and  C_13
REMARK    5  A    between atoms: C_16  and  C_18
REMARK                            x       y       z     vdW  Elec       q    Type
REMARK                         _______ _______ _______ _____ _____    ______ ____
ROOT
ATOM      8  C   UNL     1      -2.592   1.186  23.791  0.00  0.00    +0.046 C 
ATOM      9  C   UNL     1      -1.666   1.844  24.839  0.00  0.00    +0.112 C 
ATOM     10  C   UNL     1      -1.913   3.340  24.642  0.00  0.00    +0.164 C 
ATOM     11  C   UNL     1      -3.701   2.229  23.494  0.00  0.00    +0.044 C 
ATOM     12  C   UNL     1      -3.417   3.414  24.413  0.00  0.00    +0.145 C 
ENDROOT
BRANCH   8  13
ATOM      6  N   UNL     1      -3.245  -1.878  25.930  0.00  0.00    -0.263 NA
ATOM     13  C   UNL     1      -3.109  -0.168  24.226  0.00  0.00    -0.024 A 
ATOM     14  C   UNL     1      -3.893  -0.942  23.378  0.00  0.00    +0.007 A 
ATOM     15  C   UNL     1      -2.816  -0.678  25.481  0.00  0.00    +0.114 A 
ATOM     17  C   UNL     1      -4.354  -2.183  23.804  0.00  0.00    +0.020 A 
ATOM     19  C   UNL     1      -4.005  -2.602  25.078  0.00  0.00    +0.111 A 
ENDBRANCH   8  13
BRANCH   9   5
ATOM      4  O   UNL     1      -0.572   0.416  22.600  0.00  0.00    -0.268 OA
ATOM      5  N   UNL     1      -0.283   1.495  24.634  0.00  0.00    -0.304 N 
ATOM     16  C   UNL     1       0.154   0.801  23.514  0.00  0.00    +0.270 C 
ATOM     26  H   UNL     1       0.401   1.803  25.319  0.00  0.00    +0.149 HD
BRANCH  16  18
ATOM      1  S   UNL     1       2.735   1.707  23.032  0.00  0.00    -0.063 S 
ATOM      7  N   UNL     1       2.098  -0.689  23.743  0.00  0.00    -0.234 NA
ATOM     18  C   UNL     1       1.608   0.495  23.464  0.00  0.00    +0.164 A 
ATOM     20  C   UNL     1       4.016   0.569  23.226  0.00  0.00    +0.040 A 
ATOM     21  C   UNL     1       3.480  -0.663  23.610  0.00  0.00    +0.079 A 
ATOM     22  C   UNL     1       5.397   0.755  23.050  0.00  0.00    +0.017 A 
ATOM     23  C   UNL     1       4.358  -1.747  23.825  0.00  0.00    +0.029 A 
ATOM     24  C   UNL     1       6.245  -0.335  23.270  0.00  0.00    +0.001 A 
ATOM     25  C   UNL     1       5.734  -1.570  23.652  0.00  0.00    +0.002 A 
ENDBRANCH  16  18
ENDBRANCH   9   5
BRANCH  10   2
ATOM      2  O   UNL     1      -1.529   4.100  25.772  0.00  0.00    -0.387 OA
ATOM     27  H   UNL     1      -0.724   4.589  25.536  0.00  0.00    +0.210 HD
ENDBRANCH  10   2
BRANCH  12   3
ATOM      3  O   UNL     1      -4.130   3.229  25.631  0.00  0.00    -0.389 OA
ATOM     28  H   UNL     1      -4.575   4.067  25.840  0.00  0.00    +0.210 HD
ENDBRANCH  12   3
TORSDOF 5
ENDMDL
