MODEL 1
REMARK VINA RESULT:      -2.2      0.000      0.000
REMARK  Name = 25314799
REMARK  6 active torsions:
REMARK  status: ('A' for Active; 'I' for Inactive)
REMARK    1  A    between atoms: O_3  and  C_9
REMARK    2  A    between atoms: O_4  and  C_19
REMARK    3  A    between atoms: O_4  and  C_24
REMARK    4  A    between atoms: N_5  and  C_8
REMARK    5  A    between atoms: N_6  and  C_18
REMARK    6  A    between atoms: N_7  and  C_10
REMARK                            x       y       z     vdW  Elec       q    Type
REMARK                         _______ _______ _______ _____ _____    ______ ____
ROOT
ATOM      5  N   UNL     1      16.084  -7.949  28.453  0.00  0.00    -0.290 NA
ATOM      6  N   UNL     1      16.472  -6.171  26.251  0.00  0.00    -0.325 N 
ATOM     14  C   UNL     1      15.682  -8.347  27.099  0.00  0.00    +0.104 C 
ATOM     15  C   UNL     1      15.901  -6.503  28.625  0.00  0.00    +0.104 C 
ATOM     16  C   UNL     1      16.521  -7.624  26.042  0.00  0.00    +0.120 C 
ATOM     17  C   UNL     1      16.746  -5.718  27.618  0.00  0.00    +0.120 C 
ENDROOT
BRANCH   5   8
ATOM      1  O   UNL     1      17.259  -9.125  30.816  0.00  0.00    -0.343 OA
ATOM      2  O   UNL     1      15.402 -10.494  31.059  0.00  0.00    -0.347 OA
ATOM      8  C   UNL     1      15.314  -8.687  29.455  0.00  0.00    +0.143 C 
ATOM      9  C   UNL     1      14.758  -7.729  30.533  0.00  0.00    +0.156 C 
ATOM     10  C   UNL     1      15.723  -7.493  31.721  0.00  0.00    +0.113 C 
ATOM     11  C   UNL     1      16.196  -9.771  30.103  0.00  0.00    +0.270 C 
ATOM     12  C   UNL     1      16.602  -8.728  32.024  0.00  0.00    +0.166 C 
ATOM     13  C   UNL     1      15.817  -9.988  32.337  0.00  0.00    +0.196 C 
BRANCH  10   7
ATOM      7  N   UNL     1      16.609  -6.356  31.446  0.00  0.00    -0.323 NA
ATOM     25  H   UNL     1      17.034  -6.467  30.526  0.00  0.00    +0.119 HD
ATOM     26  H   UNL     1      17.376  -6.350  32.118  0.00  0.00    +0.119 HD
ENDBRANCH  10   7
BRANCH   9   3
ATOM      3  O   UNL     1      13.544  -8.304  31.039  0.00  0.00    -0.388 OA
ATOM     27  H   UNL     1      13.211  -7.721  31.744  0.00  0.00    +0.210 HD
ENDBRANCH   9   3
ENDBRANCH   5   8
BRANCH   6  18
ATOM     18  C   UNL     1      16.782  -5.340  25.169  0.00  0.00    +0.072 A 
ATOM     19  C   UNL     1      16.919  -3.964  25.348  0.00  0.00    +0.141 A 
ATOM     20  C   UNL     1      16.956  -5.900  23.903  0.00  0.00    +0.027 A 
ATOM     21  C   UNL     1      17.230  -3.147  24.260  0.00  0.00    +0.047 A 
ATOM     22  C   UNL     1      17.268  -5.084  22.816  0.00  0.00    +0.002 A 
ATOM     23  C   UNL     1      17.405  -3.707  22.995  0.00  0.00    +0.004 A 
BRANCH  19   4
ATOM      4  O   UNL     1      16.751  -3.397  26.575  0.00  0.00    -0.493 OA
ATOM     24  C   UNL     1      17.405  -2.150  26.807  0.00  0.00    +0.277 C 
ENDBRANCH  19   4
ENDBRANCH   6  18
TORSDOF 5
ENDMDL
MODEL 2
REMARK VINA RESULT:      -2.0      1.405      2.080
REMARK  Name = 25314799
REMARK  6 active torsions:
REMARK  status: ('A' for Active; 'I' for Inactive)
REMARK    1  A    between atoms: O_3  and  C_9
REMARK    2  A    between atoms: O_4  and  C_19
REMARK    3  A    between atoms: O_4  and  C_24
REMARK    4  A    between atoms: N_5  and  C_8
REMARK    5  A    between atoms: N_6  and  C_18
REMARK    6  A    between atoms: N_7  and  C_10
REMARK                            x       y       z     vdW  Elec       q    Type
REMARK                         _______ _______ _______ _____ _____    ______ ____
ROOT
ATOM      5  N   UNL     1      16.834  -6.277  29.353  0.00  0.00    -0.290 NA
ATOM      6  N   UNL     1      16.920  -5.313  26.665  0.00  0.00    -0.325 N 
ATOM     14  C   UNL     1      16.227  -7.055  28.266  0.00  0.00    +0.104 C 
ATOM     15  C   UNL     1      16.704  -4.842  29.074  0.00  0.00    +0.104 C 
ATOM     16  C   UNL     1      16.912  -6.758  26.930  0.00  0.00    +0.120 C 
ATOM     17  C   UNL     1      17.403  -4.471  27.764  0.00  0.00    +0.120 C 
ENDROOT
BRANCH   5   8
ATOM      1  O   UNL     1      14.784  -8.291  29.648  0.00  0.00    -0.343 OA
ATOM      2  O   UNL     1      14.165  -7.364  31.682  0.00  0.00    -0.347 OA
ATOM      8  C   UNL     1      16.208  -6.609  30.634  0.00  0.00    +0.143 C 
ATOM      9  C   UNL     1      17.015  -7.703  31.370  0.00  0.00    +0.156 C 
ATOM     10  C   UNL     1      16.595  -9.148  31.002  0.00  0.00    +0.113 C 
ATOM     11  C   UNL     1      14.757  -7.074  30.405  0.00  0.00    +0.270 C 
ATOM     12  C   UNL     1      15.092  -9.257  30.659  0.00  0.00    +0.166 C 
ATOM     13  C   UNL     1      14.165  -8.797  31.769  0.00  0.00    +0.196 C 
BRANCH  10   7
ATOM      7  N   UNL     1      17.364  -9.630  29.849  0.00  0.00    -0.323 NA
ATOM     25  H   UNL     1      16.803 -10.293  29.316  0.00  0.00    +0.119 HD
ATOM     26  H   UNL     1      18.183 -10.141  30.175  0.00  0.00    +0.119 HD
ENDBRANCH  10   7
BRANCH   9   3
ATOM      3  O   UNL     1      16.816  -7.515  32.778  0.00  0.00    -0.388 OA
ATOM     27  H   UNL     1      16.872  -8.387  33.206  0.00  0.00    +0.210 HD
ENDBRANCH   9   3
ENDBRANCH   5   8
BRANCH   6  18
ATOM     18  C   UNL     1      17.081  -4.888  25.342  0.00  0.00    +0.072 A 
ATOM     19  C   UNL     1      17.240  -3.534  25.045  0.00  0.00    +0.141 A 
ATOM     20  C   UNL     1      17.082  -5.832  24.314  0.00  0.00    +0.027 A 
ATOM     21  C   UNL     1      17.400  -3.125  23.722  0.00  0.00    +0.047 A 
ATOM     22  C   UNL     1      17.243  -5.423  22.991  0.00  0.00    +0.002 A 
ATOM     23  C   UNL     1      17.402  -4.069  22.695  0.00  0.00    +0.004 A 
BRANCH  19   4
ATOM      4  O   UNL     1      17.239  -2.597  26.033  0.00  0.00    -0.493 OA
ATOM     24  C   UNL     1      16.348  -1.494  25.879  0.00  0.00    +0.277 C 
ENDBRANCH  19   4
ENDBRANCH   6  18
TORSDOF 5
ENDMDL
MODEL 3
REMARK VINA RESULT:      -0.0      1.857      3.269
REMARK  Name = 25314799
REMARK  6 active torsions:
REMARK  status: ('A' for Active; 'I' for Inactive)
REMARK    1  A    between atoms: O_3  and  C_9
REMARK    2  A    between atoms: O_4  and  C_19
REMARK    3  A    between atoms: O_4  and  C_24
REMARK    4  A    between atoms: N_5  and  C_8
REMARK    5  A    between atoms: N_6  and  C_18
REMARK    6  A    between atoms: N_7  and  C_10
REMARK                            x       y       z     vdW  Elec       q    Type
REMARK                         _______ _______ _______ _____ _____    ______ ____
ROOT
ATOM      5  N   UNL     1      15.721  -7.122  30.159  0.00  0.00    -0.290 NA
ATOM      6  N   UNL     1      16.385  -6.640  27.423  0.00  0.00    -0.325 N 
ATOM     14  C   UNL     1      17.084  -7.368  29.672  0.00  0.00    +0.104 C 
ATOM     15  C   UNL     1      14.751  -7.412  29.097  0.00  0.00    +0.104 C 
ATOM     16  C   UNL     1      17.405  -6.480  28.468  0.00  0.00    +0.120 C 
ATOM     17  C   UNL     1      14.995  -6.526  27.873  0.00  0.00    +0.120 C 
ENDROOT
BRANCH   5   8
ATOM      1  O   UNL     1      13.386  -8.801  30.426  0.00  0.00    -0.343 OA
ATOM      2  O   UNL     1      13.687  -8.856  32.726  0.00  0.00    -0.347 OA
ATOM      8  C   UNL     1      15.444  -7.936  31.344  0.00  0.00    +0.143 C 
ATOM      9  C   UNL     1      16.103  -9.329  31.217  0.00  0.00    +0.156 C 
ATOM     10  C   UNL     1      15.211 -10.382  30.514  0.00  0.00    +0.113 C 
ATOM     11  C   UNL     1      13.923  -8.076  31.541  0.00  0.00    +0.270 C 
ATOM     12  C   UNL     1      13.706 -10.153  30.774  0.00  0.00    +0.166 C 
ATOM     13  C   UNL     1      13.320 -10.157  32.242  0.00  0.00    +0.196 C 
BRANCH  10   7
ATOM      7  N   UNL     1      15.434 -10.360  29.064  0.00  0.00    -0.323 NA
ATOM     25  H   UNL     1      15.970  -9.531  28.812  0.00  0.00    +0.119 HD
ATOM     26  H   UNL     1      14.540 -10.283  28.582  0.00  0.00    +0.119 HD
ENDBRANCH  10   7
BRANCH   9   3
ATOM      3  O   UNL     1      16.397  -9.792  32.543  0.00  0.00    -0.388 OA
ATOM     27  H   UNL     1      16.847  -9.070  33.017  0.00  0.00    +0.210 HD
ENDBRANCH   9   3
ENDBRANCH   5   8
BRANCH   6  18
ATOM     18  C   UNL     1      16.724  -6.281  26.113  0.00  0.00    +0.072 A 
ATOM     19  C   UNL     1      17.071  -7.256  25.178  0.00  0.00    +0.141 A 
ATOM     20  C   UNL     1      16.711  -4.935  25.747  0.00  0.00    +0.027 A 
ATOM     21  C   UNL     1      17.405  -6.884  23.876  0.00  0.00    +0.047 A 
ATOM     22  C   UNL     1      17.044  -4.564  24.444  0.00  0.00    +0.002 A 
ATOM     23  C   UNL     1      17.391  -5.538  23.509  0.00  0.00    +0.004 A 
BRANCH  19   4
ATOM      4  O   UNL     1      17.092  -8.575  25.516  0.00  0.00    -0.493 OA
ATOM     24  C   UNL     1      15.847  -9.270  25.494  0.00  0.00    +0.277 C 
ENDBRANCH  19   4
ENDBRANCH   6  18
TORSDOF 5
ENDMDL
