MODEL 1
REMARK VINA RESULT:       0.0      0.000      0.000
REMARK  Name = 45783430
REMARK  12 active torsions:
REMARK  status: ('A' for Active; 'I' for Inactive)
REMARK    1  A    between atoms: O_2  and  C_17
REMARK    2  A    between atoms: O_3  and  C_23
REMARK    3  A    between atoms: O_3  and  C_28
REMARK    4  A    between atoms: O_4  and  C_24
REMARK    5  A    between atoms: O_4  and  C_29
REMARK    6  A    between atoms: O_5  and  C_30
REMARK    7  A    between atoms: O_5  and  C_31
REMARK    8  A    between atoms: N_6  and  C_14
REMARK    9  A    between atoms: C_10  and  C_15
REMARK   10  A    between atoms: C_14  and  C_16
REMARK   11  A    between atoms: C_19  and  C_22
REMARK   12  A    between atoms: C_29  and  C_30
REMARK                            x       y       z     vdW  Elec       q    Type
REMARK                         _______ _______ _______ _____ _____    ______ ____
ROOT
ATOM      6  N   UNL     1      -3.566   3.495  25.164  0.00  0.00    -0.287 NA
ATOM     10  C   UNL     1      -2.323   4.255  24.925  0.00  0.00    +0.146 C 
ATOM     11  C   UNL     1      -2.252   5.265  26.084  0.00  0.00    +0.030 C 
ATOM     12  C   UNL     1      -3.526   5.039  26.886  0.00  0.00    +0.017 C 
ATOM     13  C   UNL     1      -4.466   4.392  25.889  0.00  0.00    +0.085 C 
ENDROOT
BRANCH  10  15
ATOM      1  O   UNL     1      -0.472   3.097  26.024  0.00  0.00    -0.336 OA
ATOM      7  N   UNL     1      -0.547   2.800  23.806  0.00  0.00    -0.190 NA
ATOM      8  N   UNL     1       0.611   2.268  25.706  0.00  0.00    -0.056 NA
ATOM     15  C   UNL     1      -1.101   3.363  24.850  0.00  0.00    +0.245 A 
ATOM     19  C   UNL     1       0.499   2.139  24.380  0.00  0.00    +0.207 A 
BRANCH  19  22
ATOM      9  N   UNL     1       1.888  -0.637  22.319  0.00  0.00    -0.221 NA
ATOM     22  C   UNL     1       1.415   1.356  23.601  0.00  0.00    +0.084 A 
ATOM     24  C   UNL     1       1.058   0.133  23.058  0.00  0.00    +0.226 A 
ATOM     25  C   UNL     1       2.705   1.822  23.369  0.00  0.00    +0.018 A 
ATOM     26  C   UNL     1       3.587   1.057  22.612  0.00  0.00    +0.021 A 
ATOM     27  C   UNL     1       3.134  -0.154  22.114  0.00  0.00    +0.114 A 
BRANCH  24   4
ATOM      4  O   UNL     1      -0.202  -0.368  23.260  0.00  0.00    -0.474 OA
BRANCH   4  29
ATOM     29  C   UNL     1      -0.294  -1.603  23.960  0.00  0.00    +0.258 C 
BRANCH  29  30
ATOM     30  C   UNL     1      -0.311  -1.328  25.451  0.00  0.00    +0.200 C 
BRANCH  30   5
ATOM      5  O   UNL     1      -1.339  -0.387  25.737  0.00  0.00    -0.380 OA
ATOM     31  C   UNL     1      -2.282  -0.911  26.662  0.00  0.00    +0.194 C 
ENDBRANCH  30   5
ENDBRANCH  29  30
ENDBRANCH   4  29
ENDBRANCH  24   4
ENDBRANCH  19  22
ENDBRANCH  10  15
BRANCH   6  14
ATOM     14  C   UNL     1      -4.171   2.983  23.942  0.00  0.00    +0.124 C 
BRANCH  14  16
ATOM     16  C   UNL     1      -4.200   1.477  23.918  0.00  0.00    +0.008 A 
ATOM     17  C   UNL     1      -3.362   0.762  23.061  0.00  0.00    +0.125 A 
ATOM     18  C   UNL     1      -5.075   0.798  24.765  0.00  0.00    +0.012 A 
ATOM     20  C   UNL     1      -3.402  -0.632  23.052  0.00  0.00    +0.091 A 
ATOM     21  C   UNL     1      -5.115  -0.595  24.756  0.00  0.00    +0.046 A 
ATOM     23  C   UNL     1      -4.277  -1.312  23.899  0.00  0.00    +0.124 A 
BRANCH  17   2
ATOM      2  O   UNL     1      -2.502   1.409  22.227  0.00  0.00    -0.506 OA
ATOM     32  H   UNL     1      -2.061   2.124  22.717  0.00  0.00    +0.292 HD
ENDBRANCH  17   2
BRANCH  23   3
ATOM      3  O   UNL     1      -4.315  -2.672  23.891  0.00  0.00    -0.495 OA
ATOM     28  C   UNL     1      -3.278  -3.355  24.593  0.00  0.00    +0.277 C 
ENDBRANCH  23   3
ENDBRANCH  14  16
ENDBRANCH   6  14
TORSDOF 10
ENDMDL
MODEL 2
REMARK VINA RESULT:       1.4      1.954      5.124
REMARK  Name = 45783430
REMARK  12 active torsions:
REMARK  status: ('A' for Active; 'I' for Inactive)
REMARK    1  A    between atoms: O_2  and  C_17
REMARK    2  A    between atoms: O_3  and  C_23
REMARK    3  A    between atoms: O_3  and  C_28
REMARK    4  A    between atoms: O_4  and  C_24
REMARK    5  A    between atoms: O_4  and  C_29
REMARK    6  A    between atoms: O_5  and  C_30
REMARK    7  A    between atoms: O_5  and  C_31
REMARK    8  A    between atoms: N_6  and  C_14
REMARK    9  A    between atoms: C_10  and  C_15
REMARK   10  A    between atoms: C_14  and  C_16
REMARK   11  A    between atoms: C_19  and  C_22
REMARK   12  A    between atoms: C_29  and  C_30
REMARK                            x       y       z     vdW  Elec       q    Type
REMARK                         _______ _______ _______ _____ _____    ______ ____
ROOT
ATOM      6  N   UNL     1      -3.483  -1.709  24.264  0.00  0.00    -0.287 NA
ATOM     10  C   UNL     1      -2.559  -1.732  25.415  0.00  0.00    +0.146 C 
ATOM     11  C   UNL     1      -1.574  -2.873  25.103  0.00  0.00    +0.030 C 
ATOM     12  C   UNL     1      -2.060  -3.470  23.790  0.00  0.00    +0.017 C 
ATOM     13  C   UNL     1      -3.521  -3.073  23.737  0.00  0.00    +0.085 C 
ENDROOT
BRANCH  10  15
ATOM      1  O   UNL     1      -0.964  -0.349  26.646  0.00  0.00    -0.336 OA
ATOM      7  N   UNL     1      -2.005   0.722  24.977  0.00  0.00    -0.190 NA
ATOM      8  N   UNL     1      -0.463   0.960  26.651  0.00  0.00    -0.056 NA
ATOM     15  C   UNL     1      -1.865  -0.403  25.631  0.00  0.00    +0.245 A 
ATOM     19  C   UNL     1      -1.125   1.529  25.639  0.00  0.00    +0.207 A 
BRANCH  19  22
ATOM      9  N   UNL     1       0.328   4.571  24.052  0.00  0.00    -0.221 NA
ATOM     22  C   UNL     1      -0.930   2.899  25.263  0.00  0.00    +0.084 A 
ATOM     24  C   UNL     1       0.107   3.292  24.432  0.00  0.00    +0.226 A 
ATOM     25  C   UNL     1      -1.797   3.880  25.733  0.00  0.00    +0.018 A 
ATOM     26  C   UNL     1      -1.601   5.207  25.364  0.00  0.00    +0.021 A 
ATOM     27  C   UNL     1      -0.534   5.498  24.529  0.00  0.00    +0.114 A 
BRANCH  24   4
ATOM      4  O   UNL     1       0.987   2.362  23.944  0.00  0.00    -0.474 OA
BRANCH   4  29
ATOM     29  C   UNL     1       0.432   1.294  23.185  0.00  0.00    +0.258 C 
BRANCH  29  30
ATOM     30  C   UNL     1       1.356   0.094  23.269  0.00  0.00    +0.200 C 
BRANCH  30   5
ATOM      5  O   UNL     1       2.303   0.165  22.210  0.00  0.00    -0.380 OA
ATOM     31  C   UNL     1       3.576   0.591  22.677  0.00  0.00    +0.194 C 
ENDBRANCH  30   5
ENDBRANCH  29  30
ENDBRANCH   4  29
ENDBRANCH  24   4
ENDBRANCH  19  22
ENDBRANCH  10  15
BRANCH   6  14
ATOM     14  C   UNL     1      -4.811  -1.215  24.603  0.00  0.00    +0.124 C 
BRANCH  14  16
ATOM     16  C   UNL     1      -4.854   0.289  24.657  0.00  0.00    +0.008 A 
ATOM     17  C   UNL     1      -4.216   1.055  23.681  0.00  0.00    +0.125 A 
ATOM     18  C   UNL     1      -5.541   0.915  25.697  0.00  0.00    +0.012 A 
ATOM     20  C   UNL     1      -4.266   2.448  23.746  0.00  0.00    +0.091 A 
ATOM     21  C   UNL     1      -5.591   2.307  25.761  0.00  0.00    +0.046 A 
ATOM     23  C   UNL     1      -4.953   3.074  24.785  0.00  0.00    +0.124 A 
BRANCH  17   2
ATOM      2  O   UNL     1      -3.540   0.460  22.660  0.00  0.00    -0.506 OA
ATOM     32  H   UNL     1      -4.062  -0.290  22.326  0.00  0.00    +0.292 HD
ENDBRANCH  17   2
BRANCH  23   3
ATOM      3  O   UNL     1      -5.002   4.433  24.848  0.00  0.00    -0.495 OA
ATOM     28  C   UNL     1      -6.055   5.009  25.619  0.00  0.00    +0.277 C 
ENDBRANCH  23   3
ENDBRANCH  14  16
ENDBRANCH   6  14
TORSDOF 10
ENDMDL
MODEL 3
REMARK VINA RESULT:       1.6      2.333      4.908
REMARK  Name = 45783430
REMARK  12 active torsions:
REMARK  status: ('A' for Active; 'I' for Inactive)
REMARK    1  A    between atoms: O_2  and  C_17
REMARK    2  A    between atoms: O_3  and  C_23
REMARK    3  A    between atoms: O_3  and  C_28
REMARK    4  A    between atoms: O_4  and  C_24
REMARK    5  A    between atoms: O_4  and  C_29
REMARK    6  A    between atoms: O_5  and  C_30
REMARK    7  A    between atoms: O_5  and  C_31
REMARK    8  A    between atoms: N_6  and  C_14
REMARK    9  A    between atoms: C_10  and  C_15
REMARK   10  A    between atoms: C_14  and  C_16
REMARK   11  A    between atoms: C_19  and  C_22
REMARK   12  A    between atoms: C_29  and  C_30
REMARK                            x       y       z     vdW  Elec       q    Type
REMARK                         _______ _______ _______ _____ _____    ______ ____
ROOT
ATOM      6  N   UNL     1      -4.634  -1.119  24.208  0.00  0.00    -0.287 NA
ATOM     10  C   UNL     1      -3.653  -1.900  24.987  0.00  0.00    +0.146 C 
ATOM     11  C   UNL     1      -3.603  -3.272  24.291  0.00  0.00    +0.030 C 
ATOM     12  C   UNL     1      -4.631  -3.188  23.172  0.00  0.00    +0.017 C 
ATOM     13  C   UNL     1      -5.566  -2.087  23.629  0.00  0.00    +0.085 C 
ENDROOT
BRANCH  10  15
ATOM      1  O   UNL     1      -1.801  -0.992  26.299  0.00  0.00    -0.336 OA
ATOM      7  N   UNL     1      -1.516  -0.834  24.083  0.00  0.00    -0.190 NA
ATOM      8  N   UNL     1      -0.558  -0.374  26.109  0.00  0.00    -0.056 NA
ATOM     15  C   UNL     1      -2.297  -1.229  25.056  0.00  0.00    +0.245 A 
ATOM     19  C   UNL     1      -0.462  -0.316  24.777  0.00  0.00    +0.207 A 
BRANCH  19  22
ATOM      9  N   UNL     1       1.983   2.190  23.500  0.00  0.00    -0.221 NA
ATOM     22  C   UNL     1       0.674   0.251  24.109  0.00  0.00    +0.084 A 
ATOM     24  C   UNL     1       0.926   1.613  24.115  0.00  0.00    +0.226 A 
ATOM     25  C   UNL     1       1.565  -0.574  23.430  0.00  0.00    +0.018 A 
ATOM     26  C   UNL     1       2.664  -0.017  22.785  0.00  0.00    +0.021 A 
ATOM     27  C   UNL     1       2.827   1.357  22.849  0.00  0.00    +0.114 A 
BRANCH  24   4
ATOM      4  O   UNL     1       0.076   2.466  24.770  0.00  0.00    -0.474 OA
BRANCH   4  29
ATOM     29  C   UNL     1       0.634   3.235  25.830  0.00  0.00    +0.258 C 
BRANCH  29  30
ATOM     30  C   UNL     1       0.583   2.424  27.110  0.00  0.00    +0.200 C 
BRANCH  30   5
ATOM      5  O   UNL     1       1.696   2.773  27.925  0.00  0.00    -0.380 OA
ATOM     31  C   UNL     1       1.477   2.420  29.284  0.00  0.00    +0.194 C 
ENDBRANCH  30   5
ENDBRANCH  29  30
ENDBRANCH   4  29
ENDBRANCH  24   4
ENDBRANCH  19  22
ENDBRANCH  10  15
BRANCH   6  14
ATOM     14  C   UNL     1      -5.318  -0.104  24.998  0.00  0.00    +0.124 C 
BRANCH  14  16
ATOM     16  C   UNL     1      -4.696   1.256  24.823  0.00  0.00    +0.008 A 
ATOM     17  C   UNL     1      -5.155   2.350  25.558  0.00  0.00    +0.125 A 
ATOM     18  C   UNL     1      -3.648   1.416  23.916  0.00  0.00    +0.012 A 
ATOM     20  C   UNL     1      -4.567   3.602  25.385  0.00  0.00    +0.091 A 
ATOM     21  C   UNL     1      -3.060   2.668  23.743  0.00  0.00    +0.046 A 
ATOM     23  C   UNL     1      -3.520   3.763  24.477  0.00  0.00    +0.124 A 
BRANCH  17   2
ATOM      2  O   UNL     1      -6.177   2.212  26.447  0.00  0.00    -0.506 OA
ATOM     32  H   UNL     1      -6.796   1.537  26.119  0.00  0.00    +0.292 HD
ENDBRANCH  17   2
BRANCH  23   3
ATOM      3  O   UNL     1      -2.945   4.985  24.308  0.00  0.00    -0.495 OA
ATOM     28  C   UNL     1      -1.826   5.296  25.136  0.00  0.00    +0.277 C 
ENDBRANCH  23   3
ENDBRANCH  14  16
ENDBRANCH   6  14
TORSDOF 10
ENDMDL
MODEL 4
REMARK VINA RESULT:       1.7      2.037      4.885
REMARK  Name = 45783430
REMARK  12 active torsions:
REMARK  status: ('A' for Active; 'I' for Inactive)
REMARK    1  A    between atoms: O_2  and  C_17
REMARK    2  A    between atoms: O_3  and  C_23
REMARK    3  A    between atoms: O_3  and  C_28
REMARK    4  A    between atoms: O_4  and  C_24
REMARK    5  A    between atoms: O_4  and  C_29
REMARK    6  A    between atoms: O_5  and  C_30
REMARK    7  A    between atoms: O_5  and  C_31
REMARK    8  A    between atoms: N_6  and  C_14
REMARK    9  A    between atoms: C_10  and  C_15
REMARK   10  A    between atoms: C_14  and  C_16
REMARK   11  A    between atoms: C_19  and  C_22
REMARK   12  A    between atoms: C_29  and  C_30
REMARK                            x       y       z     vdW  Elec       q    Type
REMARK                         _______ _______ _______ _____ _____    ______ ____
ROOT
ATOM      6  N   UNL     1      -3.830  -1.317  24.527  0.00  0.00    -0.287 NA
ATOM     10  C   UNL     1      -2.901  -2.440  24.760  0.00  0.00    +0.146 C 
ATOM     11  C   UNL     1      -3.283  -3.491  23.702  0.00  0.00    +0.030 C 
ATOM     12  C   UNL     1      -4.474  -2.896  22.964  0.00  0.00    +0.017 C 
ATOM     13  C   UNL     1      -5.043  -1.898  23.951  0.00  0.00    +0.085 C 
ENDROOT
BRANCH  10  15
ATOM      1  O   UNL     1      -0.570  -2.710  25.445  0.00  0.00    -0.336 OA
ATOM      7  N   UNL     1      -0.899  -1.080  23.946  0.00  0.00    -0.190 NA
ATOM      8  N   UNL     1       0.690  -2.151  25.195  0.00  0.00    -0.056 NA
ATOM     15  C   UNL     1      -1.448  -2.022  24.670  0.00  0.00    +0.245 A 
ATOM     19  C   UNL     1       0.413  -1.196  24.302  0.00  0.00    +0.207 A 
BRANCH  19  22
ATOM      9  N   UNL     1       2.227   1.875  23.223  0.00  0.00    -0.221 NA
ATOM     22  C   UNL     1       1.424  -0.345  23.745  0.00  0.00    +0.084 A 
ATOM     24  C   UNL     1       1.301   1.035  23.737  0.00  0.00    +0.226 A 
ATOM     25  C   UNL     1       2.573  -0.900  23.190  0.00  0.00    +0.018 A 
ATOM     26  C   UNL     1       3.548  -0.067  22.651  0.00  0.00    +0.021 A 
ATOM     27  C   UNL     1       3.330   1.300  22.692  0.00  0.00    +0.114 A 
BRANCH  24   4
ATOM      4  O   UNL     1       0.186   1.628  24.272  0.00  0.00    -0.474 OA
BRANCH   4  29
ATOM     29  C   UNL     1       0.316   2.166  25.583  0.00  0.00    +0.258 C 
BRANCH  29  30
ATOM     30  C   UNL     1      -0.775   3.197  25.805  0.00  0.00    +0.200 C 
BRANCH  30   5
ATOM      5  O   UNL     1      -0.722   4.161  24.759  0.00  0.00    -0.380 OA
ATOM     31  C   UNL     1      -1.441   5.338  25.100  0.00  0.00    +0.194 C 
ENDBRANCH  30   5
ENDBRANCH  29  30
ENDBRANCH   4  29
ENDBRANCH  24   4
ENDBRANCH  19  22
ENDBRANCH  10  15
BRANCH   6  14
ATOM     14  C   UNL     1      -4.110  -0.544  25.730  0.00  0.00    +0.124 C 
BRANCH  14  16
ATOM     16  C   UNL     1      -4.407   0.898  25.414  0.00  0.00    +0.008 A 
ATOM     17  C   UNL     1      -3.661   1.586  24.456  0.00  0.00    +0.125 A 
ATOM     18  C   UNL     1      -5.441   1.545  26.090  0.00  0.00    +0.012 A 
ATOM     20  C   UNL     1      -3.949   2.921  24.176  0.00  0.00    +0.091 A 
ATOM     21  C   UNL     1      -5.729   2.880  25.809  0.00  0.00    +0.046 A 
ATOM     23  C   UNL     1      -4.983   3.569  24.851  0.00  0.00    +0.124 A 
BRANCH  17   2
ATOM      2  O   UNL     1      -2.647   0.968  23.788  0.00  0.00    -0.506 OA
ATOM     32  H   UNL     1      -2.681   1.226  22.851  0.00  0.00    +0.292 HD
ENDBRANCH  17   2
BRANCH  23   3
ATOM      3  O   UNL     1      -5.266   4.872  24.577  0.00  0.00    -0.495 OA
ATOM     28  C   UNL     1      -6.322   5.477  25.320  0.00  0.00    +0.277 C 
ENDBRANCH  23   3
ENDBRANCH  14  16
ENDBRANCH   6  14
TORSDOF 10
ENDMDL
MODEL 5
REMARK VINA RESULT:       1.7      1.518      5.899
REMARK  Name = 45783430
REMARK  12 active torsions:
REMARK  status: ('A' for Active; 'I' for Inactive)
REMARK    1  A    between atoms: O_2  and  C_17
REMARK    2  A    between atoms: O_3  and  C_23
REMARK    3  A    between atoms: O_3  and  C_28
REMARK    4  A    between atoms: O_4  and  C_24
REMARK    5  A    between atoms: O_4  and  C_29
REMARK    6  A    between atoms: O_5  and  C_30
REMARK    7  A    between atoms: O_5  and  C_31
REMARK    8  A    between atoms: N_6  and  C_14
REMARK    9  A    between atoms: C_10  and  C_15
REMARK   10  A    between atoms: C_14  and  C_16
REMARK   11  A    between atoms: C_19  and  C_22
REMARK   12  A    between atoms: C_29  and  C_30
REMARK                            x       y       z     vdW  Elec       q    Type
REMARK                         _______ _______ _______ _____ _____    ______ ____
ROOT
ATOM      6  N   UNL     1       1.083  -0.583  23.620  0.00  0.00    -0.287 NA
ATOM     10  C   UNL     1       0.846   0.811  24.042  0.00  0.00    +0.146 C 
ATOM     11  C   UNL     1       1.836   1.646  23.210  0.00  0.00    +0.030 C 
ATOM     12  C   UNL     1       2.627   0.631  22.398  0.00  0.00    +0.017 C 
ATOM     13  C   UNL     1       2.480  -0.652  23.189  0.00  0.00    +0.085 C 
ENDROOT
BRANCH  10  15
ATOM      1  O   UNL     1      -0.962   1.562  22.577  0.00  0.00    -0.336 OA
ATOM      7  N   UNL     1      -1.553   1.356  24.728  0.00  0.00    -0.190 NA
ATOM      8  N   UNL     1      -2.313   1.923  22.646  0.00  0.00    -0.056 NA
ATOM     15  C   UNL     1      -0.593   1.242  23.845  0.00  0.00    +0.245 A 
ATOM     19  C   UNL     1      -2.589   1.778  23.945  0.00  0.00    +0.207 A 
BRANCH  19  22
ATOM      9  N   UNL     1      -5.510   3.615  25.350  0.00  0.00    -0.221 NA
ATOM     22  C   UNL     1      -3.888   2.041  24.493  0.00  0.00    +0.084 A 
ATOM     24  C   UNL     1      -4.297   3.321  24.832  0.00  0.00    +0.226 A 
ATOM     25  C   UNL     1      -4.782   0.996  24.697  0.00  0.00    +0.018 A 
ATOM     26  C   UNL     1      -6.040   1.259  25.229  0.00  0.00    +0.021 A 
ATOM     27  C   UNL     1      -6.353   2.573  25.536  0.00  0.00    +0.114 A 
BRANCH  24   4
ATOM      4  O   UNL     1      -3.450   4.383  24.649  0.00  0.00    -0.474 OA
BRANCH   4  29
ATOM     29  C   UNL     1      -2.510   4.637  25.687  0.00  0.00    +0.258 C 
BRANCH  29  30
ATOM     30  C   UNL     1      -1.262   5.252  25.084  0.00  0.00    +0.200 C 
BRANCH  30   5
ATOM      5  O   UNL     1      -0.224   4.278  25.074  0.00  0.00    -0.380 OA
ATOM     31  C   UNL     1      -0.263   3.464  26.238  0.00  0.00    +0.194 C 
ENDBRANCH  30   5
ENDBRANCH  29  30
ENDBRANCH   4  29
ENDBRANCH  24   4
ENDBRANCH  19  22
ENDBRANCH  10  15
BRANCH   6  14
ATOM     14  C   UNL     1       0.782  -1.558  24.661  0.00  0.00    +0.124 C 
BRANCH  14  16
ATOM     16  C   UNL     1      -0.678  -1.925  24.679  0.00  0.00    +0.008 A 
ATOM     17  C   UNL     1      -1.516  -1.464  25.695  0.00  0.00    +0.125 A 
ATOM     18  C   UNL     1      -1.191  -2.734  23.665  0.00  0.00    +0.012 A 
ATOM     20  C   UNL     1      -2.866  -1.814  25.697  0.00  0.00    +0.091 A 
ATOM     21  C   UNL     1      -2.541  -3.084  23.668  0.00  0.00    +0.046 A 
ATOM     23  C   UNL     1      -3.380  -2.623  24.684  0.00  0.00    +0.124 A 
BRANCH  17   2
ATOM      2  O   UNL     1      -1.031  -0.674  26.693  0.00  0.00    -0.506 OA
ATOM     32  H   UNL     1      -1.133  -1.136  27.543  0.00  0.00    +0.292 HD
ENDBRANCH  17   2
BRANCH  23   3
ATOM      3  O   UNL     1      -4.697  -2.964  24.685  0.00  0.00    -0.495 OA
ATOM     28  C   UNL     1      -5.369  -2.964  23.426  0.00  0.00    +0.277 C 
ENDBRANCH  23   3
ENDBRANCH  14  16
ENDBRANCH   6  14
TORSDOF 10
ENDMDL
MODEL 6
REMARK VINA RESULT:       1.8      2.345      7.427
REMARK  Name = 45783430
REMARK  12 active torsions:
REMARK  status: ('A' for Active; 'I' for Inactive)
REMARK    1  A    between atoms: O_2  and  C_17
REMARK    2  A    between atoms: O_3  and  C_23
REMARK    3  A    between atoms: O_3  and  C_28
REMARK    4  A    between atoms: O_4  and  C_24
REMARK    5  A    between atoms: O_4  and  C_29
REMARK    6  A    between atoms: O_5  and  C_30
REMARK    7  A    between atoms: O_5  and  C_31
REMARK    8  A    between atoms: N_6  and  C_14
REMARK    9  A    between atoms: C_10  and  C_15
REMARK   10  A    between atoms: C_14  and  C_16
REMARK   11  A    between atoms: C_19  and  C_22
REMARK   12  A    between atoms: C_29  and  C_30
REMARK                            x       y       z     vdW  Elec       q    Type
REMARK                         _______ _______ _______ _____ _____    ______ ____
ROOT
ATOM      6  N   UNL     1       0.446  -0.684  24.030  0.00  0.00    -0.287 NA
ATOM     10  C   UNL     1      -0.940  -1.063  23.688  0.00  0.00    +0.146 C 
ATOM     11  C   UNL     1      -1.325  -2.124  24.735  0.00  0.00    +0.030 C 
ATOM     12  C   UNL     1      -0.075  -2.318  25.582  0.00  0.00    +0.017 C 
ATOM     13  C   UNL     1       1.046  -1.851  24.676  0.00  0.00    +0.085 C 
ENDROOT
BRANCH  10  15
ATOM      1  O   UNL     1      -1.815   0.944  22.602  0.00  0.00    -0.336 OA
ATOM      7  N   UNL     1      -2.771   0.480  24.573  0.00  0.00    -0.190 NA
ATOM      8  N   UNL     1      -2.765   1.950  22.820  0.00  0.00    -0.056 NA
ATOM     15  C   UNL     1      -1.883   0.121  23.681  0.00  0.00    +0.245 A 
ATOM     19  C   UNL     1      -3.286   1.608  24.002  0.00  0.00    +0.207 A 
BRANCH  19  22
ATOM      9  N   UNL     1      -5.136   4.474  25.501  0.00  0.00    -0.221 NA
ATOM     22  C   UNL     1      -4.323   2.368  24.637  0.00  0.00    +0.084 A 
ATOM     24  C   UNL     1      -4.186   3.720  24.904  0.00  0.00    +0.226 A 
ATOM     25  C   UNL     1      -5.514   1.749  25.005  0.00  0.00    +0.018 A 
ATOM     26  C   UNL     1      -6.515   2.492  25.621  0.00  0.00    +0.021 A 
ATOM     27  C   UNL     1      -6.280   3.839  25.844  0.00  0.00    +0.114 A 
BRANCH  24   4
ATOM      4  O   UNL     1      -3.030   4.374  24.561  0.00  0.00    -0.474 OA
BRANCH   4  29
ATOM     29  C   UNL     1      -2.027   4.468  25.566  0.00  0.00    +0.258 C 
BRANCH  29  30
ATOM     30  C   UNL     1      -0.662   4.434  24.907  0.00  0.00    +0.200 C 
BRANCH  30   5
ATOM      5  O   UNL     1      -0.237   3.082  24.789  0.00  0.00    -0.380 OA
ATOM     31  C   UNL     1      -0.120   2.460  26.062  0.00  0.00    +0.194 C 
ENDBRANCH  30   5
ENDBRANCH  29  30
ENDBRANCH   4  29
ENDBRANCH  24   4
ENDBRANCH  19  22
ENDBRANCH  10  15
BRANCH   6  14
ATOM     14  C   UNL     1       1.219  -0.237  22.879  0.00  0.00    +0.124 C 
BRANCH  14  16
ATOM     16  C   UNL     1       2.698  -0.243  23.160  0.00  0.00    +0.008 A 
ATOM     17  C   UNL     1       3.439   0.938  23.109  0.00  0.00    +0.125 A 
ATOM     18  C   UNL     1       3.327  -1.448  23.476  0.00  0.00    +0.012 A 
ATOM     20  C   UNL     1       4.808   0.914  23.373  0.00  0.00    +0.091 A 
ATOM     21  C   UNL     1       4.696  -1.471  23.740  0.00  0.00    +0.046 A 
ATOM     23  C   UNL     1       5.438  -0.290  23.689  0.00  0.00    +0.124 A 
BRANCH  17   2
ATOM      2  O   UNL     1       2.841   2.122  22.801  0.00  0.00    -0.506 OA
ATOM     32  H   UNL     1       2.344   2.021  21.971  0.00  0.00    +0.292 HD
ENDBRANCH  17   2
BRANCH  23   3
ATOM      3  O   UNL     1       6.774  -0.314  23.947  0.00  0.00    -0.495 OA
ATOM     28  C   UNL     1       7.642  -0.599  22.852  0.00  0.00    +0.277 C 
ENDBRANCH  23   3
ENDBRANCH  14  16
ENDBRANCH   6  14
TORSDOF 10
ENDMDL
MODEL 7
REMARK VINA RESULT:       2.4      2.142      5.264
REMARK  Name = 45783430
REMARK  12 active torsions:
REMARK  status: ('A' for Active; 'I' for Inactive)
REMARK    1  A    between atoms: O_2  and  C_17
REMARK    2  A    between atoms: O_3  and  C_23
REMARK    3  A    between atoms: O_3  and  C_28
REMARK    4  A    between atoms: O_4  and  C_24
REMARK    5  A    between atoms: O_4  and  C_29
REMARK    6  A    between atoms: O_5  and  C_30
REMARK    7  A    between atoms: O_5  and  C_31
REMARK    8  A    between atoms: N_6  and  C_14
REMARK    9  A    between atoms: C_10  and  C_15
REMARK   10  A    between atoms: C_14  and  C_16
REMARK   11  A    between atoms: C_19  and  C_22
REMARK   12  A    between atoms: C_29  and  C_30
REMARK                            x       y       z     vdW  Elec       q    Type
REMARK                         _______ _______ _______ _____ _____    ______ ____
ROOT
ATOM      6  N   UNL     1      -4.346  -1.285  24.272  0.00  0.00    -0.287 NA
ATOM     10  C   UNL     1      -3.376  -1.471  25.369  0.00  0.00    +0.146 C 
ATOM     11  C   UNL     1      -2.677  -2.805  25.051  0.00  0.00    +0.030 C 
ATOM     12  C   UNL     1      -3.362  -3.323  23.794  0.00  0.00    +0.017 C 
ATOM     13  C   UNL     1      -4.706  -2.624  23.807  0.00  0.00    +0.085 C 
ENDROOT
BRANCH  10  15
ATOM      1  O   UNL     1      -1.350  -0.496  26.327  0.00  0.00    -0.336 OA
ATOM      7  N   UNL     1      -2.427   0.852  24.899  0.00  0.00    -0.190 NA
ATOM      8  N   UNL     1      -0.605   0.689  26.273  0.00  0.00    -0.056 NA
ATOM     15  C   UNL     1      -2.405  -0.316  25.490  0.00  0.00    +0.245 A 
ATOM     19  C   UNL     1      -1.304   1.434  25.411  0.00  0.00    +0.207 A 
BRANCH  19  22
ATOM      9  N   UNL     1       0.302   4.238  23.554  0.00  0.00    -0.221 NA
ATOM     22  C   UNL     1      -0.906   2.761  25.039  0.00  0.00    +0.084 A 
ATOM     24  C   UNL     1      -0.097   3.006  23.941  0.00  0.00    +0.226 A 
ATOM     25  C   UNL     1      -1.335   3.852  25.788  0.00  0.00    +0.018 A 
ATOM     26  C   UNL     1      -0.946   5.136  25.421  0.00  0.00    +0.021 A 
ATOM     27  C   UNL     1      -0.135   5.274  24.306  0.00  0.00    +0.114 A 
BRANCH  24   4
ATOM      4  O   UNL     1       0.352   1.963  23.173  0.00  0.00    -0.474 OA
BRANCH   4  29
ATOM     29  C   UNL     1       1.580   1.362  23.566  0.00  0.00    +0.258 C 
BRANCH  29  30
ATOM     30  C   UNL     1       1.710   0.011  22.888  0.00  0.00    +0.200 C 
BRANCH  30   5
ATOM      5  O   UNL     1       3.089  -0.311  22.756  0.00  0.00    -0.380 OA
ATOM     31  C   UNL     1       3.900   0.856  22.775  0.00  0.00    +0.194 C 
ENDBRANCH  30   5
ENDBRANCH  29  30
ENDBRANCH   4  29
ENDBRANCH  24   4
ENDBRANCH  19  22
ENDBRANCH  10  15
BRANCH   6  14
ATOM     14  C   UNL     1      -5.515  -0.509  24.665  0.00  0.00    +0.124 C 
BRANCH  14  16
ATOM     16  C   UNL     1      -5.235   0.971  24.657  0.00  0.00    +0.008 A 
ATOM     17  C   UNL     1      -5.748   1.799  25.655  0.00  0.00    +0.125 A 
ATOM     18  C   UNL     1      -4.451   1.511  23.637  0.00  0.00    +0.012 A 
ATOM     20  C   UNL     1      -5.478   3.167  25.633  0.00  0.00    +0.091 A 
ATOM     21  C   UNL     1      -4.182   2.879  23.614  0.00  0.00    +0.046 A 
ATOM     23  C   UNL     1      -4.695   3.708  24.613  0.00  0.00    +0.124 A 
BRANCH  17   2
ATOM      2  O   UNL     1      -6.514   1.288  26.658  0.00  0.00    -0.506 OA
ATOM     32  H   UNL     1      -6.399   1.831  27.456  0.00  0.00    +0.292 HD
ENDBRANCH  17   2
BRANCH  23   3
ATOM      3  O   UNL     1      -4.430   5.043  24.591  0.00  0.00    -0.495 OA
ATOM     28  C   UNL     1      -3.801   5.561  23.421  0.00  0.00    +0.277 C 
ENDBRANCH  23   3
ENDBRANCH  14  16
ENDBRANCH   6  14
TORSDOF 10
ENDMDL
MODEL 8
REMARK VINA RESULT:       2.5      2.023      4.083
REMARK  Name = 45783430
REMARK  12 active torsions:
REMARK  status: ('A' for Active; 'I' for Inactive)
REMARK    1  A    between atoms: O_2  and  C_17
REMARK    2  A    between atoms: O_3  and  C_23
REMARK    3  A    between atoms: O_3  and  C_28
REMARK    4  A    between atoms: O_4  and  C_24
REMARK    5  A    between atoms: O_4  and  C_29
REMARK    6  A    between atoms: O_5  and  C_30
REMARK    7  A    between atoms: O_5  and  C_31
REMARK    8  A    between atoms: N_6  and  C_14
REMARK    9  A    between atoms: C_10  and  C_15
REMARK   10  A    between atoms: C_14  and  C_16
REMARK   11  A    between atoms: C_19  and  C_22
REMARK   12  A    between atoms: C_29  and  C_30
REMARK                            x       y       z     vdW  Elec       q    Type
REMARK                         _______ _______ _______ _____ _____    ______ ____
ROOT
ATOM      6  N   UNL     1      -2.125   4.978  24.719  0.00  0.00    -0.287 NA
ATOM     10  C   UNL     1      -1.120   4.093  24.099  0.00  0.00    +0.146 C 
ATOM     11  C   UNL     1       0.231   4.773  24.385  0.00  0.00    +0.030 C 
ATOM     12  C   UNL     1      -0.121   6.061  25.116  0.00  0.00    +0.017 C 
ATOM     13  C   UNL     1      -1.555   6.325  24.706  0.00  0.00    +0.085 C 
ENDROOT
BRANCH  10  15
ATOM      1  O   UNL     1      -0.596   2.451  25.832  0.00  0.00    -0.336 OA
ATOM      7  N   UNL     1      -1.733   1.614  24.093  0.00  0.00    -0.190 NA
ATOM      8  N   UNL     1      -0.783   1.090  26.107  0.00  0.00    -0.056 NA
ATOM     15  C   UNL     1      -1.185   2.676  24.628  0.00  0.00    +0.245 A 
ATOM     19  C   UNL     1      -1.460   0.666  25.036  0.00  0.00    +0.207 A 
BRANCH  19  22
ATOM      9  N   UNL     1      -1.389  -2.969  24.217  0.00  0.00    -0.221 NA
ATOM     22  C   UNL     1      -1.881  -0.696  24.878  0.00  0.00    +0.084 A 
ATOM     24  C   UNL     1      -1.035  -1.674  24.382  0.00  0.00    +0.226 A 
ATOM     25  C   UNL     1      -3.174  -1.070  25.230  0.00  0.00    +0.018 A 
ATOM     26  C   UNL     1      -3.575  -2.393  25.074  0.00  0.00    +0.021 A 
ATOM     27  C   UNL     1      -2.654  -3.295  24.568  0.00  0.00    +0.114 A 
BRANCH  24   4
ATOM      4  O   UNL     1       0.248  -1.354  24.021  0.00  0.00    -0.474 OA
BRANCH   4  29
ATOM     29  C   UNL     1       0.399  -0.397  22.979  0.00  0.00    +0.258 C 
BRANCH  29  30
ATOM     30  C   UNL     1       1.849  -0.371  22.536  0.00  0.00    +0.200 C 
BRANCH  30   5
ATOM      5  O   UNL     1       2.468   0.806  23.043  0.00  0.00    -0.380 OA
ATOM     31  C   UNL     1       3.855   0.837  22.739  0.00  0.00    +0.194 C 
ENDBRANCH  30   5
ENDBRANCH  29  30
ENDBRANCH   4  29
ENDBRANCH  24   4
ENDBRANCH  19  22
ENDBRANCH  10  15
BRANCH   6  14
ATOM     14  C   UNL     1      -3.423   4.926  24.057  0.00  0.00    +0.124 C 
BRANCH  14  16
ATOM     16  C   UNL     1      -4.316   3.873  24.657  0.00  0.00    +0.008 A 
ATOM     17  C   UNL     1      -4.582   2.688  23.971  0.00  0.00    +0.125 A 
ATOM     18  C   UNL     1      -4.879   4.091  25.915  0.00  0.00    +0.012 A 
ATOM     20  C   UNL     1      -5.412   1.723  24.541  0.00  0.00    +0.091 A 
ATOM     21  C   UNL     1      -5.708   3.126  26.485  0.00  0.00    +0.046 A 
ATOM     23  C   UNL     1      -5.975   1.941  25.798  0.00  0.00    +0.124 A 
BRANCH  17   2
ATOM      2  O   UNL     1      -4.042   2.459  22.742  0.00  0.00    -0.506 OA
ATOM     32  H   UNL     1      -3.836   1.512  22.656  0.00  0.00    +0.292 HD
ENDBRANCH  17   2
BRANCH  23   3
ATOM      3  O   UNL     1      -6.784   0.999  26.356  0.00  0.00    -0.495 OA
ATOM     28  C   UNL     1      -7.064   1.126  27.749  0.00  0.00    +0.277 C 
ENDBRANCH  23   3
ENDBRANCH  14  16
ENDBRANCH   6  14
TORSDOF 10
ENDMDL
MODEL 9
REMARK VINA RESULT:       2.7      2.202      6.343
REMARK  Name = 45783430
REMARK  12 active torsions:
REMARK  status: ('A' for Active; 'I' for Inactive)
REMARK    1  A    between atoms: O_2  and  C_17
REMARK    2  A    between atoms: O_3  and  C_23
REMARK    3  A    between atoms: O_3  and  C_28
REMARK    4  A    between atoms: O_4  and  C_24
REMARK    5  A    between atoms: O_4  and  C_29
REMARK    6  A    between atoms: O_5  and  C_30
REMARK    7  A    between atoms: O_5  and  C_31
REMARK    8  A    between atoms: N_6  and  C_14
REMARK    9  A    between atoms: C_10  and  C_15
REMARK   10  A    between atoms: C_14  and  C_16
REMARK   11  A    between atoms: C_19  and  C_22
REMARK   12  A    between atoms: C_29  and  C_30
REMARK                            x       y       z     vdW  Elec       q    Type
REMARK                         _______ _______ _______ _____ _____    ______ ____
ROOT
ATOM      6  N   UNL     1      -1.621  -1.534  24.009  0.00  0.00    -0.287 NA
ATOM     10  C   UNL     1      -3.070  -1.267  24.088  0.00  0.00    +0.146 C 
ATOM     11  C   UNL     1      -3.583  -2.213  25.190  0.00  0.00    +0.030 C 
ATOM     12  C   UNL     1      -2.364  -3.012  25.626  0.00  0.00    +0.017 C 
ATOM     13  C   UNL     1      -1.432  -2.921  24.435  0.00  0.00    +0.085 C 
ENDROOT
BRANCH  10  15
ATOM      1  O   UNL     1      -4.607   0.455  24.892  0.00  0.00    -0.336 OA
ATOM      7  N   UNL     1      -2.631   1.246  24.197  0.00  0.00    -0.190 NA
ATOM      8  N   UNL     1      -4.660   1.844  25.069  0.00  0.00    -0.056 NA
ATOM     15  C   UNL     1      -3.380   0.187  24.375  0.00  0.00    +0.245 A 
ATOM     19  C   UNL     1      -3.458   2.238  24.636  0.00  0.00    +0.207 A 
BRANCH  19  22
ATOM      9  N   UNL     1      -1.644   5.377  25.497  0.00  0.00    -0.221 NA
ATOM     22  C   UNL     1      -3.053   3.614  24.631  0.00  0.00    +0.084 A 
ATOM     24  C   UNL     1      -2.057   4.090  25.468  0.00  0.00    +0.226 A 
ATOM     25  C   UNL     1      -3.665   4.517  23.767  0.00  0.00    +0.018 A 
ATOM     26  C   UNL     1      -3.266   5.849  23.768  0.00  0.00    +0.021 A 
ATOM     27  C   UNL     1      -2.261   6.226  24.644  0.00  0.00    +0.114 A 
BRANCH  24   4
ATOM      4  O   UNL     1      -1.425   3.239  26.338  0.00  0.00    -0.474 OA
BRANCH   4  29
ATOM     29  C   UNL     1      -0.024   3.070  26.162  0.00  0.00    +0.258 C 
BRANCH  29  30
ATOM     30  C   UNL     1       0.539   2.324  27.356  0.00  0.00    +0.200 C 
BRANCH  30   5
ATOM      5  O   UNL     1       1.738   2.963  27.778  0.00  0.00    -0.380 OA
ATOM     31  C   UNL     1       2.061   2.629  29.121  0.00  0.00    +0.194 C 
ENDBRANCH  30   5
ENDBRANCH  29  30
ENDBRANCH   4  29
ENDBRANCH  24   4
ENDBRANCH  19  22
ENDBRANCH  10  15
BRANCH   6  14
ATOM     14  C   UNL     1      -1.062  -1.286  22.687  0.00  0.00    +0.124 C 
BRANCH  14  16
ATOM     16  C   UNL     1       0.282  -0.611  22.762  0.00  0.00    +0.008 A 
ATOM     17  C   UNL     1       0.665   0.087  23.908  0.00  0.00    +0.125 A 
ATOM     18  C   UNL     1       1.147  -0.689  21.671  0.00  0.00    +0.012 A 
ATOM     20  C   UNL     1       1.913   0.706  23.962  0.00  0.00    +0.091 A 
ATOM     21  C   UNL     1       2.395  -0.070  21.725  0.00  0.00    +0.046 A 
ATOM     23  C   UNL     1       2.779   0.629  22.871  0.00  0.00    +0.124 A 
BRANCH  17   2
ATOM      2  O   UNL     1      -0.168   0.173  24.982  0.00  0.00    -0.506 OA
ATOM     32  H   UNL     1      -0.861  -0.505  24.903  0.00  0.00    +0.292 HD
ENDBRANCH  17   2
BRANCH  23   3
ATOM      3  O   UNL     1       3.998   1.232  22.923  0.00  0.00    -0.495 OA
ATOM     28  C   UNL     1       5.079   0.467  23.453  0.00  0.00    +0.277 C 
ENDBRANCH  23   3
ENDBRANCH  14  16
ENDBRANCH   6  14
TORSDOF 10
ENDMDL
MODEL 10
REMARK VINA RESULT:       2.8      1.930      6.233
REMARK  Name = 45783430
REMARK  12 active torsions:
REMARK  status: ('A' for Active; 'I' for Inactive)
REMARK    1  A    between atoms: O_2  and  C_17
REMARK    2  A    between atoms: O_3  and  C_23
REMARK    3  A    between atoms: O_3  and  C_28
REMARK    4  A    between atoms: O_4  and  C_24
REMARK    5  A    between atoms: O_4  and  C_29
REMARK    6  A    between atoms: O_5  and  C_30
REMARK    7  A    between atoms: O_5  and  C_31
REMARK    8  A    between atoms: N_6  and  C_14
REMARK    9  A    between atoms: C_10  and  C_15
REMARK   10  A    between atoms: C_14  and  C_16
REMARK   11  A    between atoms: C_19  and  C_22
REMARK   12  A    between atoms: C_29  and  C_30
REMARK                            x       y       z     vdW  Elec       q    Type
REMARK                         _______ _______ _______ _____ _____    ______ ____
ROOT
ATOM      6  N   UNL     1       2.507   1.285  23.500  0.00  0.00    -0.287 NA
ATOM     10  C   UNL     1       2.041   0.081  22.783  0.00  0.00    +0.146 C 
ATOM     11  C   UNL     1       3.278  -0.833  22.708  0.00  0.00    +0.030 C 
ATOM     12  C   UNL     1       4.402  -0.034  23.353  0.00  0.00    +0.017 C 
ATOM     13  C   UNL     1       3.939   1.403  23.223  0.00  0.00    +0.085 C 
ENDROOT
BRANCH  10  15
ATOM      1  O   UNL     1       1.131  -1.265  24.609  0.00  0.00    -0.336 OA
ATOM      7  N   UNL     1      -0.397  -0.602  23.112  0.00  0.00    -0.190 NA
ATOM      8  N   UNL     1      -0.095  -1.783  25.047  0.00  0.00    -0.056 NA
ATOM     15  C   UNL     1       0.863  -0.583  23.464  0.00  0.00    +0.245 A 
ATOM     19  C   UNL     1      -0.946  -1.350  24.112  0.00  0.00    +0.207 A 
BRANCH  19  22
ATOM      9  N   UNL     1      -4.639  -0.881  24.284  0.00  0.00    -0.221 NA
ATOM     22  C   UNL     1      -2.349  -1.645  24.150  0.00  0.00    +0.084 A 
ATOM     24  C   UNL     1      -3.307  -0.649  24.246  0.00  0.00    +0.226 A 
ATOM     25  C   UNL     1      -2.784  -2.965  24.088  0.00  0.00    +0.018 A 
ATOM     26  C   UNL     1      -4.147  -3.243  24.125  0.00  0.00    +0.021 A 
ATOM     27  C   UNL     1      -5.025  -2.176  24.223  0.00  0.00    +0.114 A 
BRANCH  24   4
ATOM      4  O   UNL     1      -2.927   0.666  24.310  0.00  0.00    -0.474 OA
BRANCH   4  29
ATOM     29  C   UNL     1      -3.524   1.551  23.369  0.00  0.00    +0.258 C 
BRANCH  29  30
ATOM     30  C   UNL     1      -4.294   2.622  24.116  0.00  0.00    +0.200 C 
BRANCH  30   5
ATOM      5  O   UNL     1      -5.593   2.130  24.425  0.00  0.00    -0.380 OA
ATOM     31  C   UNL     1      -5.839   2.154  25.825  0.00  0.00    +0.194 C 
ENDBRANCH  30   5
ENDBRANCH  29  30
ENDBRANCH   4  29
ENDBRANCH  24   4
ENDBRANCH  19  22
ENDBRANCH  10  15
BRANCH   6  14
ATOM     14  C   UNL     1       1.777   2.491  23.132  0.00  0.00    +0.124 C 
BRANCH  14  16
ATOM     16  C   UNL     1       0.679   2.803  24.114  0.00  0.00    +0.008 A 
ATOM     17  C   UNL     1      -0.095   3.955  23.975  0.00  0.00    +0.125 A 
ATOM     18  C   UNL     1       0.439   1.925  25.171  0.00  0.00    +0.012 A 
ATOM     20  C   UNL     1      -1.108   4.230  24.894  0.00  0.00    +0.091 A 
ATOM     21  C   UNL     1      -0.574   2.199  26.090  0.00  0.00    +0.046 A 
ATOM     23  C   UNL     1      -1.348   3.352  25.951  0.00  0.00    +0.124 A 
BRANCH  17   2
ATOM      2  O   UNL     1       0.126   4.824  22.950  0.00  0.00    -0.506 OA
ATOM     32  H   UNL     1       1.068   5.066  22.935  0.00  0.00    +0.292 HD
ENDBRANCH  17   2
BRANCH  23   3
ATOM      3  O   UNL     1      -2.337   3.618  26.848  0.00  0.00    -0.495 OA
ATOM     28  C   UNL     1      -3.314   4.586  26.469  0.00  0.00    +0.277 C 
ENDBRANCH  23   3
ENDBRANCH  14  16
ENDBRANCH   6  14
TORSDOF 10
ENDMDL
