MODEL 1
REMARK VINA RESULT:       1.0      0.000      0.000
REMARK  Name = 11884020
REMARK  7 active torsions:
REMARK  status: ('A' for Active; 'I' for Inactive)
REMARK    1  A    between atoms: O_3  and  C_13
REMARK    2  A    between atoms: O_3  and  C_17
REMARK    3  A    between atoms: O_7  and  C_27
REMARK    4  A    between atoms: O_7  and  C_28
REMARK    5  A    between atoms: N_8  and  C_12
REMARK    6  A    between atoms: N_9  and  C_20
REMARK    7  A    between atoms: C_16  and  C_18
REMARK                            x       y       z     vdW  Elec       q    Type
REMARK                         _______ _______ _______ _____ _____    ______ ____
ROOT
ATOM      3  O   UNL     1      -2.762   5.286  25.019  0.00  0.00    -0.442 OA
ENDROOT
BRANCH   3  13
ATOM      1  O   UNL     1      -3.470   2.818  26.072  0.00  0.00    -0.368 OA
ATOM      2  O   UNL     1      -6.126   4.069  25.188  0.00  0.00    -0.368 OA
ATOM     10  C   UNL     1      -5.448   2.868  24.766  0.00  0.00    +0.173 C 
ATOM     11  C   UNL     1      -3.964   3.176  24.771  0.00  0.00    +0.192 C 
ATOM     12  C   UNL     1      -5.598   1.791  25.816  0.00  0.00    +0.130 C 
ATOM     13  C   UNL     1      -3.940   4.669  24.555  0.00  0.00    +0.235 C 
ATOM     14  C   UNL     1      -4.509   2.156  26.810  0.00  0.00    +0.185 C 
ATOM     15  C   UNL     1      -5.161   5.123  25.322  0.00  0.00    +0.207 C 
BRANCH  12   8
ATOM      4  O   UNL     1      -3.133   0.421  25.732  0.00  0.00    -0.267 OA
ATOM      8  N   UNL     1      -5.380   0.479  25.256  0.00  0.00    -0.301 N 
ATOM     16  C   UNL     1      -4.126  -0.131  25.254  0.00  0.00    +0.280 C 
ATOM     34  H   UNL     1      -6.180  -0.035  24.897  0.00  0.00    +0.150 HD
BRANCH  16  18
ATOM      6  O   UNL     1      -3.384  -2.436  25.358  0.00  0.00    -0.458 OA
ATOM     18  C   UNL     1      -4.071  -1.481  24.677  0.00  0.00    +0.189 A 
ATOM     19  C   UNL     1      -4.605  -2.003  23.522  0.00  0.00    +0.054 A 
ATOM     21  C   UNL     1      -4.222  -3.365  23.491  0.00  0.00    +0.042 A 
ATOM     22  C   UNL     1      -3.481  -3.579  24.629  0.00  0.00    +0.196 A 
ENDBRANCH  16  18
ENDBRANCH  12   8
ENDBRANCH   3  13
BRANCH   3  17
ATOM      5  O   UNL     1      -0.480   5.147  24.964  0.00  0.00    -0.226 OA
ATOM      9  N   UNL     1      -1.837   3.363  24.286  0.00  0.00    -0.251 N 
ATOM     17  C   UNL     1      -1.574   4.631  24.768  0.00  0.00    +0.405 C 
ATOM     35  H   UNL     1      -2.818   3.113  24.193  0.00  0.00    +0.158 HD
BRANCH   9  20
ATOM     20  C   UNL     1      -0.909   2.367  23.906  0.00  0.00    +0.037 A 
ATOM     23  C   UNL     1      -1.335   1.265  23.164  0.00  0.00    +0.027 A 
ATOM     24  C   UNL     1       0.432   2.487  24.270  0.00  0.00    +0.027 A 
ATOM     25  C   UNL     1      -0.419   0.282  22.787  0.00  0.00    +0.048 A 
ATOM     26  C   UNL     1       1.347   1.505  23.893  0.00  0.00    +0.048 A 
ATOM     27  C   UNL     1       0.922   0.402  23.152  0.00  0.00    +0.129 A 
BRANCH  27   7
ATOM      7  O   UNL     1       1.816  -0.556  22.783  0.00  0.00    -0.456 OA
BRANCH   7  28
ATOM     28  C   UNL     1       3.144  -0.363  23.124  0.00  0.00    +0.128 A 
ATOM     29  C   UNL     1       3.779   0.837  22.805  0.00  0.00    +0.046 A 
ATOM     30  C   UNL     1       3.847  -1.370  23.786  0.00  0.00    +0.046 A 
ATOM     31  C   UNL     1       5.117   1.031  23.148  0.00  0.00    +0.004 A 
ATOM     32  C   UNL     1       5.185  -1.175  24.129  0.00  0.00    +0.004 A 
ATOM     33  C   UNL     1       5.820   0.025  23.811  0.00  0.00    +0.000 A 
ENDBRANCH   7  28
ENDBRANCH  27   7
ENDBRANCH   9  20
ENDBRANCH   3  17
TORSDOF 7
ENDMDL
MODEL 2
REMARK VINA RESULT:       3.0      2.412      4.551
REMARK  Name = 11884020
REMARK  7 active torsions:
REMARK  status: ('A' for Active; 'I' for Inactive)
REMARK    1  A    between atoms: O_3  and  C_13
REMARK    2  A    between atoms: O_3  and  C_17
REMARK    3  A    between atoms: O_7  and  C_27
REMARK    4  A    between atoms: O_7  and  C_28
REMARK    5  A    between atoms: N_8  and  C_12
REMARK    6  A    between atoms: N_9  and  C_20
REMARK    7  A    between atoms: C_16  and  C_18
REMARK                            x       y       z     vdW  Elec       q    Type
REMARK                         _______ _______ _______ _____ _____    ______ ____
ROOT
ATOM      3  O   UNL     1      -5.085   0.920  24.212  0.00  0.00    -0.442 OA
ENDROOT
BRANCH   3  13
ATOM      1  O   UNL     1      -2.646   2.157  24.685  0.00  0.00    -0.368 OA
ATOM      2  O   UNL     1      -4.735   4.173  25.670  0.00  0.00    -0.368 OA
ATOM     10  C   UNL     1      -3.680   3.476  26.362  0.00  0.00    +0.173 C 
ATOM     11  C   UNL     1      -3.599   2.088  25.758  0.00  0.00    +0.192 C 
ATOM     12  C   UNL     1      -2.342   4.094  26.028  0.00  0.00    +0.130 C 
ATOM     13  C   UNL     1      -5.003   1.873  25.247  0.00  0.00    +0.235 C 
ATOM     14  C   UNL     1      -2.011   3.445  24.695  0.00  0.00    +0.185 C 
ATOM     15  C   UNL     1      -5.387   3.258  24.777  0.00  0.00    +0.207 C 
BRANCH  12   8
ATOM      4  O   UNL     1      -0.030   2.529  25.622  0.00  0.00    -0.267 OA
ATOM      8  N   UNL     1      -1.352   3.776  27.028  0.00  0.00    -0.301 N 
ATOM     16  C   UNL     1      -0.233   2.993  26.746  0.00  0.00    +0.280 C 
ATOM     34  H   UNL     1      -1.452   4.180  27.955  0.00  0.00    +0.150 HD
BRANCH  16  18
ATOM      6  O   UNL     1       2.014   3.069  27.651  0.00  0.00    -0.458 OA
ATOM     18  C   UNL     1       0.701   2.785  27.861  0.00  0.00    +0.189 A 
ATOM     19  C   UNL     1       0.503   2.336  29.146  0.00  0.00    +0.054 A 
ATOM     21  C   UNL     1       1.775   2.345  29.766  0.00  0.00    +0.042 A 
ATOM     22  C   UNL     1       2.660   2.798  28.816  0.00  0.00    +0.196 A 
ENDBRANCH  16  18
ENDBRANCH  12   8
ENDBRANCH   3  13
BRANCH   3  17
ATOM      5  O   UNL     1      -4.306  -1.230  24.248  0.00  0.00    -0.226 OA
ATOM      9  N   UNL     1      -2.863   0.596  23.988  0.00  0.00    -0.251 N 
ATOM     17  C   UNL     1      -4.085  -0.029  24.157  0.00  0.00    +0.405 C 
ATOM     35  H   UNL     1      -2.882   1.611  23.931  0.00  0.00    +0.158 HD
BRANCH   9  20
ATOM     20  C   UNL     1      -1.587  -0.003  23.882  0.00  0.00    +0.037 A 
ATOM     23  C   UNL     1      -1.214  -1.008  24.774  0.00  0.00    +0.027 A 
ATOM     24  C   UNL     1      -0.703   0.411  22.886  0.00  0.00    +0.027 A 
ATOM     25  C   UNL     1       0.046  -1.601  24.669  0.00  0.00    +0.048 A 
ATOM     26  C   UNL     1       0.555  -0.182  22.781  0.00  0.00    +0.048 A 
ATOM     27  C   UNL     1       0.930  -1.187  23.673  0.00  0.00    +0.129 A 
BRANCH  27   7
ATOM      7  O   UNL     1       2.158  -1.766  23.570  0.00  0.00    -0.456 OA
BRANCH   7  28
ATOM     28  C   UNL     1       3.258  -0.930  23.484  0.00  0.00    +0.128 A 
ATOM     29  C   UNL     1       3.148   0.305  22.845  0.00  0.00    +0.046 A 
ATOM     30  C   UNL     1       4.478  -1.324  24.034  0.00  0.00    +0.046 A 
ATOM     31  C   UNL     1       4.257   1.147  22.758  0.00  0.00    +0.004 A 
ATOM     32  C   UNL     1       5.587  -0.482  23.947  0.00  0.00    +0.004 A 
ATOM     33  C   UNL     1       5.476   0.754  23.310  0.00  0.00    +0.000 A 
ENDBRANCH   7  28
ENDBRANCH  27   7
ENDBRANCH   9  20
ENDBRANCH   3  17
TORSDOF 7
ENDMDL
