MODEL 1
REMARK VINA RESULT:       0.5      0.000      0.000
REMARK  Name = 28960045
REMARK  7 active torsions:
REMARK  status: ('A' for Active; 'I' for Inactive)
REMARK    1  A    between atoms: O_2  and  C_21
REMARK    2  A    between atoms: N_5  and  C_14
REMARK    3  A    between atoms: C_8  and  C_12
REMARK    4  A    between atoms: C_9  and  C_15
REMARK    5  A    between atoms: C_12  and  C_14
REMARK    6  A    between atoms: C_15  and  C_21
REMARK    7  A    between atoms: C_18  and  C_22
REMARK                            x       y       z     vdW  Elec       q    Type
REMARK                         _______ _______ _______ _____ _____    ______ ____
ROOT
ATOM      1  O   UNL     1      -5.618   0.637  26.801  0.00  0.00    -0.270 OA
ATOM      4  N   UNL     1      -5.011   1.833  24.884  0.00  0.00    -0.297 N 
ATOM      8  C   UNL     1      -3.273   2.968  23.519  0.00  0.00    +0.011 C 
ATOM      9  C   UNL     1      -3.835   4.329  24.004  0.00  0.00    +0.006 C 
ATOM     10  C   UNL     1      -4.379   1.899  23.559  0.00  0.00    +0.112 C 
ATOM     11  C   UNL     1      -4.527   4.200  25.372  0.00  0.00    +0.023 C 
ATOM     13  C   UNL     1      -5.581   3.094  25.356  0.00  0.00    +0.108 C 
ATOM     18  C   UNL     1      -5.095   0.695  25.690  0.00  0.00    +0.247 C 
ENDROOT
BRANCH  18  22
ATOM     22  C   UNL     1      -4.513  -0.553  25.183  0.00  0.00    +0.037 A 
ATOM     24  C   UNL     1      -3.579  -1.250  25.951  0.00  0.00    +0.013 A 
ATOM     25  C   UNL     1      -4.892  -1.041  23.933  0.00  0.00    +0.013 A 
ATOM     27  C   UNL     1      -3.027  -2.437  25.468  0.00  0.00    +0.001 A 
ATOM     28  C   UNL     1      -4.340  -2.227  23.451  0.00  0.00    +0.001 A 
ATOM     30  C   UNL     1      -3.407  -2.926  24.219  0.00  0.00    +0.000 A 
ENDBRANCH  18  22
BRANCH   8  12
ATOM     12  C   UNL     1      -2.041   2.490  24.299  0.00  0.00    +0.020 C 
BRANCH  12  14
ATOM     14  C   UNL     1      -1.752   1.025  24.011  0.00  0.00    +0.085 C 
BRANCH  14   5
ATOM      5  N   UNL     1      -0.400   0.882  23.472  0.00  0.00    -0.299 NA
ATOM      6  N   UNL     1       2.363   0.158  23.520  0.00  0.00    -0.313 N 
ATOM      7  N   UNL     1       4.558   0.787  22.893  0.00  0.00    -0.240 NA
ATOM     16  C   UNL     1      -0.001  -0.531  23.450  0.00  0.00    +0.103 C 
ATOM     17  C   UNL     1       0.557   1.658  24.271  0.00  0.00    +0.103 C 
ATOM     19  C   UNL     1       1.391  -0.699  22.836  0.00  0.00    +0.122 C 
ATOM     20  C   UNL     1       1.968   1.563  23.683  0.00  0.00    +0.122 C 
ATOM     23  C   UNL     1       3.729  -0.135  23.433  0.00  0.00    +0.121 A 
ATOM     26  C   UNL     1       4.146  -1.365  23.913  0.00  0.00    +0.043 A 
ATOM     29  C   UNL     1       5.499  -1.671  23.833  0.00  0.00    +0.005 A 
ATOM     31  C   UNL     1       5.867   0.455  22.833  0.00  0.00    +0.113 A 
ATOM     32  C   UNL     1       6.384  -0.748  23.284  0.00  0.00    +0.020 A 
ENDBRANCH  14   5
ENDBRANCH  12  14
ENDBRANCH   8  12
BRANCH   9  15
ATOM     15  C   UNL     1      -2.783   5.437  24.036  0.00  0.00    +0.124 C 
BRANCH  15  21
ATOM      3  O   UNL     1      -2.002   4.844  26.268  0.00  0.00    -0.251 OA
ATOM     21  C   UNL     1      -1.771   5.209  25.125  0.00  0.00    +0.305 C 
BRANCH  21   2
ATOM      2  O   UNL     1      -0.525   5.472  24.653  0.00  0.00    -0.481 OA
ATOM     33  H   UNL     1       0.107   5.665  25.378  0.00  0.00    +0.295 HD
ENDBRANCH  21   2
ENDBRANCH  15  21
ENDBRANCH   9  15
TORSDOF 7
ENDMDL
MODEL 2
REMARK VINA RESULT:       0.6      1.780      4.808
REMARK  Name = 28960045
REMARK  7 active torsions:
REMARK  status: ('A' for Active; 'I' for Inactive)
REMARK    1  A    between atoms: O_2  and  C_21
REMARK    2  A    between atoms: N_5  and  C_14
REMARK    3  A    between atoms: C_8  and  C_12
REMARK    4  A    between atoms: C_9  and  C_15
REMARK    5  A    between atoms: C_12  and  C_14
REMARK    6  A    between atoms: C_15  and  C_21
REMARK    7  A    between atoms: C_18  and  C_22
REMARK                            x       y       z     vdW  Elec       q    Type
REMARK                         _______ _______ _______ _____ _____    ______ ____
ROOT
ATOM      1  O   UNL     1      -5.644   4.204  25.346  0.00  0.00    -0.270 OA
ATOM      4  N   UNL     1      -4.448   2.206  25.579  0.00  0.00    -0.297 N 
ATOM      8  C   UNL     1      -3.223   0.303  24.555  0.00  0.00    +0.011 C 
ATOM      9  C   UNL     1      -4.464  -0.588  24.820  0.00  0.00    +0.006 C 
ATOM     10  C   UNL     1      -3.182   1.460  25.569  0.00  0.00    +0.112 C 
ATOM     11  C   UNL     1      -5.757   0.244  24.868  0.00  0.00    +0.023 C 
ATOM     13  C   UNL     1      -5.635   1.400  25.858  0.00  0.00    +0.108 C 
ATOM     18  C   UNL     1      -4.587   3.576  25.344  0.00  0.00    +0.247 C 
ENDROOT
BRANCH  18  22
ATOM     22  C   UNL     1      -3.374   4.354  25.068  0.00  0.00    +0.037 A 
ATOM     24  C   UNL     1      -2.188   4.062  25.742  0.00  0.00    +0.013 A 
ATOM     25  C   UNL     1      -3.407   5.387  24.131  0.00  0.00    +0.013 A 
ATOM     27  C   UNL     1      -1.035   4.802  25.478  0.00  0.00    +0.001 A 
ATOM     28  C   UNL     1      -2.255   6.127  23.867  0.00  0.00    +0.001 A 
ATOM     30  C   UNL     1      -1.068   5.834  24.541  0.00  0.00    +0.000 A 
ENDBRANCH  18  22
BRANCH   8  12
ATOM     12  C   UNL     1      -3.142   0.845  23.122  0.00  0.00    +0.020 C 
BRANCH  12  14
ATOM     14  C   UNL     1      -1.984   1.822  22.978  0.00  0.00    +0.085 C 
BRANCH  14   5
ATOM      5  N   UNL     1      -0.748   1.201  23.453  0.00  0.00    -0.299 NA
ATOM      6  N   UNL     1       2.007   0.456  23.338  0.00  0.00    -0.313 N 
ATOM      7  N   UNL     1       3.585  -1.258  23.761  0.00  0.00    -0.240 NA
ATOM     16  C   UNL     1       0.303   2.212  23.624  0.00  0.00    +0.103 C 
ATOM     17  C   UNL     1      -0.298   0.166  22.515  0.00  0.00    +0.103 C 
ATOM     19  C   UNL     1       1.586   1.583  24.175  0.00  0.00    +0.122 C 
ATOM     20  C   UNL     1       0.964  -0.531  23.029  0.00  0.00    +0.122 C 
ATOM     23  C   UNL     1       3.335   0.016  23.383  0.00  0.00    +0.121 A 
ATOM     26  C   UNL     1       4.317   0.928  23.033  0.00  0.00    +0.043 A 
ATOM     29  C   UNL     1       5.641   0.507  23.073  0.00  0.00    +0.005 A 
ATOM     31  C   UNL     1       4.884  -1.632  23.787  0.00  0.00    +0.113 A 
ATOM     32  C   UNL     1       5.939  -0.797  23.455  0.00  0.00    +0.020 A 
ENDBRANCH  14   5
ENDBRANCH  12  14
ENDBRANCH   8  12
BRANCH   9  15
ATOM     15  C   UNL     1      -4.602  -1.739  23.823  0.00  0.00    +0.124 C 
BRANCH  15  21
ATOM      3  O   UNL     1      -3.102  -3.594  23.322  0.00  0.00    -0.251 OA
ATOM     21  C   UNL     1      -3.644  -2.857  24.132  0.00  0.00    +0.305 C 
BRANCH  21   2
ATOM      2  O   UNL     1      -3.455  -2.940  25.474  0.00  0.00    -0.481 OA
ATOM     33  H   UNL     1      -2.631  -3.423  25.698  0.00  0.00    +0.295 HD
ENDBRANCH  21   2
ENDBRANCH  15  21
ENDBRANCH   9  15
TORSDOF 7
ENDMDL
MODEL 3
REMARK VINA RESULT:       2.4      1.036      1.851
REMARK  Name = 28960045
REMARK  7 active torsions:
REMARK  status: ('A' for Active; 'I' for Inactive)
REMARK    1  A    between atoms: O_2  and  C_21
REMARK    2  A    between atoms: N_5  and  C_14
REMARK    3  A    between atoms: C_8  and  C_12
REMARK    4  A    between atoms: C_9  and  C_15
REMARK    5  A    between atoms: C_12  and  C_14
REMARK    6  A    between atoms: C_15  and  C_21
REMARK    7  A    between atoms: C_18  and  C_22
REMARK                            x       y       z     vdW  Elec       q    Type
REMARK                         _______ _______ _______ _____ _____    ______ ____
ROOT
ATOM      1  O   UNL     1      -4.376  -0.658  27.130  0.00  0.00    -0.270 OA
ATOM      4  N   UNL     1      -4.766   0.769  25.317  0.00  0.00    -0.297 N 
ATOM      8  C   UNL     1      -3.929   2.435  23.674  0.00  0.00    +0.011 C 
ATOM      9  C   UNL     1      -4.629   3.544  24.501  0.00  0.00    +0.006 C 
ATOM     10  C   UNL     1      -4.646   1.090  23.887  0.00  0.00    +0.112 C 
ATOM     11  C   UNL     1      -4.773   3.142  25.979  0.00  0.00    +0.023 C 
ATOM     13  C   UNL     1      -5.451   1.781  26.119  0.00  0.00    +0.108 C 
ATOM     18  C   UNL     1      -4.283  -0.388  25.933  0.00  0.00    +0.247 C 
ENDROOT
BRANCH  18  22
ATOM     22  C   UNL     1      -3.602  -1.382  25.097  0.00  0.00    +0.037 A 
ATOM     24  C   UNL     1      -4.342  -2.204  24.246  0.00  0.00    +0.013 A 
ATOM     25  C   UNL     1      -2.214  -1.506  25.154  0.00  0.00    +0.013 A 
ATOM     27  C   UNL     1      -3.692  -3.149  23.451  0.00  0.00    +0.001 A 
ATOM     28  C   UNL     1      -1.565  -2.450  24.358  0.00  0.00    +0.001 A 
ATOM     30  C   UNL     1      -2.304  -3.272  23.507  0.00  0.00    +0.000 A 
ENDBRANCH  18  22
BRANCH   8  12
ATOM     12  C   UNL     1      -2.430   2.293  23.968  0.00  0.00    +0.020 C 
BRANCH  12  14
ATOM     14  C   UNL     1      -1.728   1.534  22.852  0.00  0.00    +0.085 C 
BRANCH  14   5
ATOM      5  N   UNL     1      -0.496   0.931  23.359  0.00  0.00    -0.299 NA
ATOM      6  N   UNL     1       2.288   0.293  23.355  0.00  0.00    -0.313 N 
ATOM      7  N   UNL     1       3.908  -1.384  23.767  0.00  0.00    -0.240 NA
ATOM     16  C   UNL     1       0.504   1.967  23.644  0.00  0.00    +0.103 C 
ATOM     17  C   UNL     1       0.043  -0.031  22.390  0.00  0.00    +0.103 C 
ATOM     19  C   UNL     1       1.779   1.354  24.228  0.00  0.00    +0.122 C 
ATOM     20  C   UNL     1       1.303  -0.711  22.934  0.00  0.00    +0.122 C 
ATOM     23  C   UNL     1       3.628  -0.100  23.448  0.00  0.00    +0.121 A 
ATOM     26  C   UNL     1       4.591   0.866  23.204  0.00  0.00    +0.043 A 
ATOM     29  C   UNL     1       5.926   0.491  23.293  0.00  0.00    +0.005 A 
ATOM     31  C   UNL     1       5.217  -1.711  23.844  0.00  0.00    +0.113 A 
ATOM     32  C   UNL     1       6.254  -0.821  23.618  0.00  0.00    +0.020 A 
ENDBRANCH  14   5
ENDBRANCH  12  14
ENDBRANCH   8  12
BRANCH   9  15
ATOM     15  C   UNL     1      -3.948   4.907  24.378  0.00  0.00    +0.124 C 
BRANCH  15  21
ATOM      3  O   UNL     1      -1.591   5.331  24.837  0.00  0.00    -0.251 OA
ATOM     21  C   UNL     1      -2.699   4.980  25.214  0.00  0.00    +0.305 C 
BRANCH  21   2
ATOM      2  O   UNL     1      -2.977   4.592  26.485  0.00  0.00    -0.481 OA
ATOM     33  H   UNL     1      -3.230   5.352  27.052  0.00  0.00    +0.295 HD
ENDBRANCH  21   2
ENDBRANCH  15  21
ENDBRANCH   9  15
TORSDOF 7
ENDMDL
MODEL 4
REMARK VINA RESULT:       3.7      1.827      4.759
REMARK  Name = 28960045
REMARK  7 active torsions:
REMARK  status: ('A' for Active; 'I' for Inactive)
REMARK    1  A    between atoms: O_2  and  C_21
REMARK    2  A    between atoms: N_5  and  C_14
REMARK    3  A    between atoms: C_8  and  C_12
REMARK    4  A    between atoms: C_9  and  C_15
REMARK    5  A    between atoms: C_12  and  C_14
REMARK    6  A    between atoms: C_15  and  C_21
REMARK    7  A    between atoms: C_18  and  C_22
REMARK                            x       y       z     vdW  Elec       q    Type
REMARK                         _______ _______ _______ _____ _____    ______ ____
ROOT
ATOM      1  O   UNL     1      -3.980   2.980  22.348  0.00  0.00    -0.270 OA
ATOM      4  N   UNL     1      -4.142   1.816  24.371  0.00  0.00    -0.297 N 
ATOM      8  C   UNL     1      -3.169   0.241  26.028  0.00  0.00    +0.011 C 
ATOM      9  C   UNL     1      -4.133  -0.851  25.498  0.00  0.00    +0.006 C 
ATOM     10  C   UNL     1      -3.770   1.636  25.782  0.00  0.00    +0.112 C 
ATOM     11  C   UNL     1      -4.529  -0.594  24.034  0.00  0.00    +0.023 C 
ATOM     13  C   UNL     1      -5.076   0.819  23.849  0.00  0.00    +0.108 C 
ATOM     18  C   UNL     1      -3.676   2.830  23.530  0.00  0.00    +0.247 C 
ENDROOT
BRANCH  18  22
ATOM     22  C   UNL     1      -2.740   3.812  24.088  0.00  0.00    +0.037 A 
ATOM     24  C   UNL     1      -3.195   4.778  24.987  0.00  0.00    +0.013 A 
ATOM     25  C   UNL     1      -1.396   3.781  23.718  0.00  0.00    +0.013 A 
ATOM     27  C   UNL     1      -2.304   5.711  25.517  0.00  0.00    +0.001 A 
ATOM     28  C   UNL     1      -0.505   4.714  24.249  0.00  0.00    +0.001 A 
ATOM     30  C   UNL     1      -0.959   5.680  25.148  0.00  0.00    +0.000 A 
ENDBRANCH  18  22
BRANCH   8  12
ATOM     12  C   UNL     1      -1.753   0.159  25.442  0.00  0.00    +0.020 C 
BRANCH  12  14
ATOM     14  C   UNL     1      -1.758   0.521  23.964  0.00  0.00    +0.085 C 
BRANCH  14   5
ATOM      5  N   UNL     1      -0.386   0.560  23.458  0.00  0.00    -0.299 NA
ATOM      6  N   UNL     1       2.430   0.080  23.517  0.00  0.00    -0.313 N 
ATOM      7  N   UNL     1       4.572   0.967  23.037  0.00  0.00    -0.240 NA
ATOM     16  C   UNL     1       0.140  -0.801  23.291  0.00  0.00    +0.103 C 
ATOM     17  C   UNL     1       0.478   1.321  24.369  0.00  0.00    +0.103 C 
ATOM     19  C   UNL     1       1.556  -0.775  22.709  0.00  0.00    +0.122 C 
ATOM     20  C   UNL     1       1.904   1.418  23.822  0.00  0.00    +0.122 C 
ATOM     23  C   UNL     1       3.818  -0.079  23.444  0.00  0.00    +0.121 A 
ATOM     26  C   UNL     1       4.334  -1.315  23.797  0.00  0.00    +0.043 A 
ATOM     29  C   UNL     1       5.711  -1.489  23.728  0.00  0.00    +0.005 A 
ATOM     31  C   UNL     1       5.907   0.761  22.984  0.00  0.00    +0.113 A 
ATOM     32  C   UNL     1       6.520  -0.436  23.316  0.00  0.00    +0.020 A 
ENDBRANCH  14   5
ENDBRANCH  12  14
ENDBRANCH   8  12
BRANCH   9  15
ATOM     15  C   UNL     1      -3.585  -2.269  25.666  0.00  0.00    +0.124 C 
BRANCH  15  21
ATOM      3  O   UNL     1      -4.299  -3.386  23.620  0.00  0.00    -0.251 OA
ATOM     21  C   UNL     1      -3.410  -2.957  24.340  0.00  0.00    +0.305 C 
BRANCH  21   2
ATOM      2  O   UNL     1      -2.088  -3.039  24.039  0.00  0.00    -0.481 OA
ATOM     33  H   UNL     1      -1.676  -3.844  24.419  0.00  0.00    +0.295 HD
ENDBRANCH  21   2
ENDBRANCH  15  21
ENDBRANCH   9  15
TORSDOF 7
ENDMDL
