MODEL 1
REMARK VINA RESULT:      -5.2      0.000      0.000
REMARK  Name = 51137713
REMARK  3 active torsions:
REMARK  status: ('A' for Active; 'I' for Inactive)
REMARK    1  A    between atoms: C_6  and  C_10
REMARK    2  A    between atoms: C_11  and  C_12
REMARK    3  A    between atoms: C_13  and  C_16
REMARK                            x       y       z     vdW  Elec       q    Type
REMARK                         _______ _______ _______ _____ _____    ______ ____
ROOT
ATOM      2  O   UNL     1      -0.656  -1.004  26.492  0.00  0.00    -0.270 OA
ATOM      3  N   UNL     1      -1.021   0.699  24.955  0.00  0.00    -0.297 N 
ATOM      6  C   UNL     1      -1.415   2.808  23.926  0.00  0.00    +0.095 C 
ATOM      7  C   UNL     1      -0.012   2.794  24.555  0.00  0.00    +0.033 C 
ATOM      8  C   UNL     1      -1.737   1.310  23.834  0.00  0.00    +0.121 C 
ATOM      9  C   UNL     1      -0.062   1.627  25.532  0.00  0.00    +0.109 C 
ATOM     11  C   UNL     1      -1.233  -0.557  25.502  0.00  0.00    +0.247 C 
ENDROOT
BRANCH   6  10
ATOM      1  O   UNL     1      -3.701   3.346  24.640  0.00  0.00    -0.425 OA
ATOM      4  N   UNL     1      -2.137   4.680  25.522  0.00  0.00    -0.112 NA
ATOM      5  N   UNL     1      -3.368   5.088  26.004  0.00  0.00    -0.113 NA
ATOM     10  C   UNL     1      -2.380   3.661  24.731  0.00  0.00    +0.222 A 
ATOM     13  C   UNL     1      -4.250   4.281  25.463  0.00  0.00    +0.214 A 
ATOM     16  C   UNL     1      -5.710   4.250  25.622  0.00  0.00    +0.111 C 
ENDBRANCH   6  10
BRANCH  11  12
ATOM     12  C   UNL     1      -2.234  -1.420  24.857  0.00  0.00    +0.037 A 
ATOM     14  C   UNL     1      -1.890  -2.711  24.457  0.00  0.00    +0.013 A 
ATOM     15  C   UNL     1      -3.529  -0.947  24.647  0.00  0.00    +0.013 A 
ATOM     17  C   UNL     1      -2.840  -3.528  23.846  0.00  0.00    +0.001 A 
ATOM     18  C   UNL     1      -4.480  -1.765  24.036  0.00  0.00    +0.001 A 
ATOM     19  C   UNL     1      -4.136  -3.056  23.636  0.00  0.00    +0.000 A 
ENDBRANCH  11  12
TORSDOF 2
ENDMDL
MODEL 2
REMARK VINA RESULT:      -4.7      1.867      5.555
REMARK  Name = 51137713
REMARK  3 active torsions:
REMARK  status: ('A' for Active; 'I' for Inactive)
REMARK    1  A    between atoms: C_6  and  C_10
REMARK    2  A    between atoms: C_11  and  C_12
REMARK    3  A    between atoms: C_13  and  C_16
REMARK                            x       y       z     vdW  Elec       q    Type
REMARK                         _______ _______ _______ _____ _____    ______ ____
ROOT
ATOM      2  O   UNL     1      -3.216   2.816  22.128  0.00  0.00    -0.270 OA
ATOM      3  N   UNL     1      -1.969   1.984  23.902  0.00  0.00    -0.297 N 
ATOM      6  C   UNL     1      -0.596   0.633  25.300  0.00  0.00    +0.095 C 
ATOM      7  C   UNL     1       0.233   1.162  24.119  0.00  0.00    +0.033 C 
ATOM      8  C   UNL     1      -1.795   1.592  25.302  0.00  0.00    +0.121 C 
ATOM      9  C   UNL     1      -0.815   1.599  23.104  0.00  0.00    +0.109 C 
ATOM     11  C   UNL     1      -3.085   2.569  23.325  0.00  0.00    +0.247 C 
ENDROOT
BRANCH   6  10
ATOM      1  O   UNL     1      -2.193  -1.172  24.833  0.00  0.00    -0.425 OA
ATOM      4  N   UNL     1      -0.118  -1.885  25.269  0.00  0.00    -0.112 NA
ATOM      5  N   UNL     1      -0.908  -2.993  25.024  0.00  0.00    -0.113 NA
ATOM     10  C   UNL     1      -0.909  -0.845  25.146  0.00  0.00    +0.222 A 
ATOM     13  C   UNL     1      -2.110  -2.529  24.774  0.00  0.00    +0.214 A 
ATOM     16  C   UNL     1      -3.344  -3.255  24.447  0.00  0.00    +0.111 C 
ENDBRANCH   6  10
BRANCH  11  12
ATOM     12  C   UNL     1      -4.208   2.909  24.212  0.00  0.00    +0.037 A 
ATOM     14  C   UNL     1      -5.126   1.927  24.584  0.00  0.00    +0.013 A 
ATOM     15  C   UNL     1      -4.355   4.215  24.681  0.00  0.00    +0.013 A 
ATOM     17  C   UNL     1      -6.190   2.251  25.425  0.00  0.00    +0.001 A 
ATOM     18  C   UNL     1      -5.419   4.538  25.522  0.00  0.00    +0.001 A 
ATOM     19  C   UNL     1      -6.337   3.557  25.895  0.00  0.00    +0.000 A 
ENDBRANCH  11  12
TORSDOF 2
ENDMDL
MODEL 3
REMARK VINA RESULT:      -4.5      2.743      5.414
REMARK  Name = 51137713
REMARK  3 active torsions:
REMARK  status: ('A' for Active; 'I' for Inactive)
REMARK    1  A    between atoms: C_6  and  C_10
REMARK    2  A    between atoms: C_11  and  C_12
REMARK    3  A    between atoms: C_13  and  C_16
REMARK                            x       y       z     vdW  Elec       q    Type
REMARK                         _______ _______ _______ _____ _____    ______ ____
ROOT
ATOM      2  O   UNL     1      -3.584   4.535  23.573  0.00  0.00    -0.270 OA
ATOM      3  N   UNL     1      -1.980   3.385  24.798  0.00  0.00    -0.297 N 
ATOM      6  C   UNL     1      -0.020   2.219  25.476  0.00  0.00    +0.095 C 
ATOM      7  C   UNL     1       0.333   3.682  25.162  0.00  0.00    +0.033 C 
ATOM      8  C   UNL     1      -1.541   2.293  25.668  0.00  0.00    +0.121 C 
ATOM      9  C   UNL     1      -0.848   4.172  24.334  0.00  0.00    +0.109 C 
ATOM     11  C   UNL     1      -3.270   3.647  24.364  0.00  0.00    +0.247 C 
ENDROOT
BRANCH   6  10
ATOM      1  O   UNL     1       1.752   1.481  23.946  0.00  0.00    -0.425 OA
ATOM      4  N   UNL     1      -0.125   0.271  23.813  0.00  0.00    -0.112 NA
ATOM      5  N   UNL     1       0.783  -0.247  22.907  0.00  0.00    -0.113 NA
ATOM     10  C   UNL     1       0.484   1.278  24.396  0.00  0.00    +0.222 A 
ATOM     13  C   UNL     1       1.863   0.490  23.020  0.00  0.00    +0.214 A 
ATOM     16  C   UNL     1       3.141   0.392  22.303  0.00  0.00    +0.111 C 
ENDBRANCH   6  10
BRANCH  11  12
ATOM     12  C   UNL     1      -4.347   2.788  24.877  0.00  0.00    +0.037 A 
ATOM     14  C   UNL     1      -5.291   3.307  25.764  0.00  0.00    +0.013 A 
ATOM     15  C   UNL     1      -4.427   1.455  24.475  0.00  0.00    +0.013 A 
ATOM     17  C   UNL     1      -6.313   2.492  26.250  0.00  0.00    +0.001 A 
ATOM     18  C   UNL     1      -5.449   0.640  24.961  0.00  0.00    +0.001 A 
ATOM     19  C   UNL     1      -6.392   1.158  25.848  0.00  0.00    +0.000 A 
ENDBRANCH  11  12
TORSDOF 2
ENDMDL
MODEL 4
REMARK VINA RESULT:      -4.3      0.809      1.334
REMARK  Name = 51137713
REMARK  3 active torsions:
REMARK  status: ('A' for Active; 'I' for Inactive)
REMARK    1  A    between atoms: C_6  and  C_10
REMARK    2  A    between atoms: C_11  and  C_12
REMARK    3  A    between atoms: C_13  and  C_16
REMARK                            x       y       z     vdW  Elec       q    Type
REMARK                         _______ _______ _______ _____ _____    ______ ____
ROOT
ATOM      2  O   UNL     1      -0.821  -0.684  26.959  0.00  0.00    -0.270 OA
ATOM      3  N   UNL     1      -1.188   0.826  25.232  0.00  0.00    -0.297 N 
ATOM      6  C   UNL     1      -1.747   2.760  23.964  0.00  0.00    +0.095 C 
ATOM      7  C   UNL     1      -0.504   3.047  24.821  0.00  0.00    +0.033 C 
ATOM      8  C   UNL     1      -1.780   1.225  23.955  0.00  0.00    +0.121 C 
ATOM      9  C   UNL     1      -0.529   1.950  25.878  0.00  0.00    +0.109 C 
ATOM     11  C   UNL     1      -1.274  -0.413  25.848  0.00  0.00    +0.247 C 
ENDROOT
BRANCH   6  10
ATOM      1  O   UNL     1      -4.004   2.668  24.925  0.00  0.00    -0.425 OA
ATOM      4  N   UNL     1      -3.216   4.744  24.653  0.00  0.00    -0.112 NA
ATOM      5  N   UNL     1      -4.484   4.836  25.199  0.00  0.00    -0.113 NA
ATOM     10  C   UNL     1      -2.978   3.461  24.511  0.00  0.00    +0.222 A 
ATOM     13  C   UNL     1      -4.904   3.601  25.340  0.00  0.00    +0.214 A 
ATOM     16  C   UNL     1      -6.178   3.102  25.873  0.00  0.00    +0.111 C 
ENDBRANCH   6  10
BRANCH  11  12
ATOM     12  C   UNL     1      -1.972  -1.485  25.123  0.00  0.00    +0.037 A 
ATOM     14  C   UNL     1      -3.364  -1.565  25.168  0.00  0.00    +0.013 A 
ATOM     15  C   UNL     1      -1.243  -2.421  24.390  0.00  0.00    +0.013 A 
ATOM     17  C   UNL     1      -4.026  -2.582  24.480  0.00  0.00    +0.001 A 
ATOM     18  C   UNL     1      -1.905  -3.437  23.701  0.00  0.00    +0.001 A 
ATOM     19  C   UNL     1      -3.297  -3.518  23.746  0.00  0.00    +0.000 A 
ENDBRANCH  11  12
TORSDOF 2
ENDMDL
MODEL 5
REMARK VINA RESULT:      -4.1      2.225      3.154
REMARK  Name = 51137713
REMARK  3 active torsions:
REMARK  status: ('A' for Active; 'I' for Inactive)
REMARK    1  A    between atoms: C_6  and  C_10
REMARK    2  A    between atoms: C_11  and  C_12
REMARK    3  A    between atoms: C_13  and  C_16
REMARK                            x       y       z     vdW  Elec       q    Type
REMARK                         _______ _______ _______ _____ _____    ______ ____
ROOT
ATOM      2  O   UNL     1       0.363   2.592  26.464  0.00  0.00    -0.270 OA
ATOM      3  N   UNL     1      -1.317   3.148  24.958  0.00  0.00    -0.297 N 
ATOM      6  C   UNL     1      -3.317   3.961  23.959  0.00  0.00    +0.095 C 
ATOM      7  C   UNL     1      -2.464   5.144  24.442  0.00  0.00    +0.033 C 
ATOM      8  C   UNL     1      -2.287   2.824  23.911  0.00  0.00    +0.121 C 
ATOM      9  C   UNL     1      -1.489   4.514  25.427  0.00  0.00    +0.109 C 
ATOM     11  C   UNL     1      -0.386   2.297  25.534  0.00  0.00    +0.247 C 
ENDROOT
BRANCH   6  10
ATOM      1  O   UNL     1      -4.770   2.466  25.257  0.00  0.00    -0.425 OA
ATOM      4  N   UNL     1      -5.398   4.613  25.308  0.00  0.00    -0.112 NA
ATOM      5  N   UNL     1      -6.293   3.888  26.074  0.00  0.00    -0.113 NA
ATOM     10  C   UNL     1      -4.527   3.743  24.852  0.00  0.00    +0.222 A 
ATOM     13  C   UNL     1      -5.887   2.641  26.016  0.00  0.00    +0.214 A 
ATOM     16  C   UNL     1      -6.457   1.442  26.642  0.00  0.00    +0.111 C 
ENDBRANCH   6  10
BRANCH  11  12
ATOM     12  C   UNL     1      -0.295   0.930  25.001  0.00  0.00    +0.037 A 
ATOM     14  C   UNL     1       0.428   0.681  23.835  0.00  0.00    +0.013 A 
ATOM     15  C   UNL     1      -0.930  -0.121  25.664  0.00  0.00    +0.013 A 
ATOM     17  C   UNL     1       0.515  -0.616  23.331  0.00  0.00    +0.001 A 
ATOM     18  C   UNL     1      -0.843  -1.418  25.161  0.00  0.00    +0.001 A 
ATOM     19  C   UNL     1      -0.121  -1.666  23.994  0.00  0.00    +0.000 A 
ENDBRANCH  11  12
TORSDOF 2
ENDMDL
MODEL 6
REMARK VINA RESULT:      -4.0      2.379      6.248
REMARK  Name = 51137713
REMARK  3 active torsions:
REMARK  status: ('A' for Active; 'I' for Inactive)
REMARK    1  A    between atoms: C_6  and  C_10
REMARK    2  A    between atoms: C_11  and  C_12
REMARK    3  A    between atoms: C_13  and  C_16
REMARK                            x       y       z     vdW  Elec       q    Type
REMARK                         _______ _______ _______ _____ _____    ______ ____
ROOT
ATOM      2  O   UNL     1      -3.810   4.182  27.274  0.00  0.00    -0.270 OA
ATOM      3  N   UNL     1      -4.273   2.807  25.460  0.00  0.00    -0.297 N 
ATOM      6  C   UNL     1      -4.865   0.961  24.081  0.00  0.00    +0.095 C 
ATOM      7  C   UNL     1      -6.100   1.440  24.860  0.00  0.00    +0.033 C 
ATOM      8  C   UNL     1      -3.933   2.176  24.184  0.00  0.00    +0.121 C 
ATOM      9  C   UNL     1      -5.516   2.273  25.994  0.00  0.00    +0.109 C 
ATOM     11  C   UNL     1      -3.520   3.732  26.167  0.00  0.00    +0.247 C 
ENDROOT
BRANCH   6  10
ATOM      1  O   UNL     1      -4.301  -1.408  23.769  0.00  0.00    -0.425 OA
ATOM      4  N   UNL     1      -3.885  -0.638  25.829  0.00  0.00    -0.112 NA
ATOM      5  N   UNL     1      -3.524  -1.972  25.790  0.00  0.00    -0.113 NA
ATOM     10  C   UNL     1      -4.333  -0.352  24.628  0.00  0.00    +0.222 A 
ATOM     13  C   UNL     1      -3.783  -2.380  24.570  0.00  0.00    +0.214 A 
ATOM     16  C   UNL     1      -3.595  -3.705  23.966  0.00  0.00    +0.111 C 
ENDBRANCH   6  10
BRANCH  11  12
ATOM     12  C   UNL     1      -2.270   4.202  25.553  0.00  0.00    +0.037 A 
ATOM     14  C   UNL     1      -1.224   3.308  25.325  0.00  0.00    +0.013 A 
ATOM     15  C   UNL     1      -2.130   5.544  25.196  0.00  0.00    +0.013 A 
ATOM     17  C   UNL     1      -0.039   3.755  24.742  0.00  0.00    +0.001 A 
ATOM     18  C   UNL     1      -0.945   5.991  24.613  0.00  0.00    +0.001 A 
ATOM     19  C   UNL     1       0.101   5.097  24.385  0.00  0.00    +0.000 A 
ENDBRANCH  11  12
TORSDOF 2
ENDMDL
MODEL 7
REMARK VINA RESULT:      -3.7      3.329      6.440
REMARK  Name = 51137713
REMARK  3 active torsions:
REMARK  status: ('A' for Active; 'I' for Inactive)
REMARK    1  A    between atoms: C_6  and  C_10
REMARK    2  A    between atoms: C_11  and  C_12
REMARK    3  A    between atoms: C_13  and  C_16
REMARK                            x       y       z     vdW  Elec       q    Type
REMARK                         _______ _______ _______ _____ _____    ______ ____
ROOT
ATOM      2  O   UNL     1      -1.379   0.194  26.394  0.00  0.00    -0.270 OA
ATOM      3  N   UNL     1      -0.402   0.265  24.288  0.00  0.00    -0.297 N 
ATOM      6  C   UNL     1       1.093   0.042  22.450  0.00  0.00    +0.095 C 
ATOM      7  C   UNL     1       0.604  -1.347  22.889  0.00  0.00    +0.033 C 
ATOM      8  C   UNL     1       0.039   0.964  23.080  0.00  0.00    +0.121 C 
ATOM      9  C   UNL     1       0.057  -1.115  24.291  0.00  0.00    +0.109 C 
ATOM     11  C   UNL     1      -1.091   0.801  25.364  0.00  0.00    +0.247 C 
ENDROOT
BRANCH   6  10
ATOM      1  O   UNL     1       3.244  -0.801  23.280  0.00  0.00    -0.425 OA
ATOM      4  N   UNL     1       3.228   1.398  22.869  0.00  0.00    -0.112 NA
ATOM      5  N   UNL     1       4.488   1.057  23.325  0.00  0.00    -0.113 NA
ATOM     10  C   UNL     1       2.536   0.283  22.858  0.00  0.00    +0.222 A 
ATOM     13  C   UNL     1       4.451  -0.235  23.552  0.00  0.00    +0.214 A 
ATOM     16  C   UNL     1       5.507  -1.129  24.044  0.00  0.00    +0.111 C 
ENDBRANCH   6  10
BRANCH  11  12
ATOM     12  C   UNL     1      -1.501   2.211  25.275  0.00  0.00    +0.037 A 
ATOM     14  C   UNL     1      -0.547   3.223  25.384  0.00  0.00    +0.013 A 
ATOM     15  C   UNL     1      -2.843   2.536  25.081  0.00  0.00    +0.013 A 
ATOM     17  C   UNL     1      -0.936   4.560  25.298  0.00  0.00    +0.001 A 
ATOM     18  C   UNL     1      -3.232   3.873  24.995  0.00  0.00    +0.001 A 
ATOM     19  C   UNL     1      -2.279   4.885  25.104  0.00  0.00    +0.000 A 
ENDBRANCH  11  12
TORSDOF 2
ENDMDL
MODEL 8
REMARK VINA RESULT:      -3.0     15.542     18.088
REMARK  Name = 51137713
REMARK  3 active torsions:
REMARK  status: ('A' for Active; 'I' for Inactive)
REMARK    1  A    between atoms: C_6  and  C_10
REMARK    2  A    between atoms: C_11  and  C_12
REMARK    3  A    between atoms: C_13  and  C_16
REMARK                            x       y       z     vdW  Elec       q    Type
REMARK                         _______ _______ _______ _____ _____    ______ ____
ROOT
ATOM      2  O   UNL     1      15.480   6.775  18.584  0.00  0.00    -0.270 OA
ATOM      3  N   UNL     1      14.131   8.139  19.894  0.00  0.00    -0.297 N 
ATOM      6  C   UNL     1      12.666   8.976  21.571  0.00  0.00    +0.095 C 
ATOM      7  C   UNL     1      14.015   8.601  22.205  0.00  0.00    +0.033 C 
ATOM      8  C   UNL     1      13.033   9.088  20.085  0.00  0.00    +0.121 C 
ATOM      9  C   UNL     1      14.663   7.690  21.171  0.00  0.00    +0.109 C 
ATOM     11  C   UNL     1      14.600   7.628  18.694  0.00  0.00    +0.247 C 
ENDROOT
BRANCH   6  10
ATOM      1  O   UNL     1      11.748   6.702  21.478  0.00  0.00    -0.425 OA
ATOM      4  N   UNL     1      10.482   8.146  22.626  0.00  0.00    -0.112 NA
ATOM      5  N   UNL     1       9.856   6.913  22.653  0.00  0.00    -0.113 NA
ATOM     10  C   UNL     1      11.582   7.975  21.930  0.00  0.00    +0.222 A 
ATOM     13  C   UNL     1      10.630   6.102  21.971  0.00  0.00    +0.214 A 
ATOM     16  C   UNL     1      10.460   4.673  21.677  0.00  0.00    +0.111 C 
ENDBRANCH   6  10
BRANCH  11  12
ATOM     12  C   UNL     1      13.990   8.132  17.455  0.00  0.00    +0.037 A 
ATOM     14  C   UNL     1      14.796   8.478  16.370  0.00  0.00    +0.013 A 
ATOM     15  C   UNL     1      12.604   8.264  17.364  0.00  0.00    +0.013 A 
ATOM     17  C   UNL     1      14.216   8.956  15.195  0.00  0.00    +0.001 A 
ATOM     18  C   UNL     1      12.024   8.742  16.189  0.00  0.00    +0.001 A 
ATOM     19  C   UNL     1      12.830   9.088  15.104  0.00  0.00    +0.000 A 
ENDBRANCH  11  12
TORSDOF 2
ENDMDL
MODEL 9
REMARK VINA RESULT:      -2.8      2.472      5.913
REMARK  Name = 51137713
REMARK  3 active torsions:
REMARK  status: ('A' for Active; 'I' for Inactive)
REMARK    1  A    between atoms: C_6  and  C_10
REMARK    2  A    between atoms: C_11  and  C_12
REMARK    3  A    between atoms: C_13  and  C_16
REMARK                            x       y       z     vdW  Elec       q    Type
REMARK                         _______ _______ _______ _____ _____    ______ ____
ROOT
ATOM      2  O   UNL     1       0.782   1.777  23.349  0.00  0.00    -0.270 OA
ATOM      3  N   UNL     1      -0.508   0.623  24.899  0.00  0.00    -0.297 N 
ATOM      6  C   UNL     1      -1.930  -0.955  25.971  0.00  0.00    +0.095 C 
ATOM      7  C   UNL     1      -0.591  -1.622  25.619  0.00  0.00    +0.033 C 
ATOM      8  C   UNL     1      -1.570   0.536  25.902  0.00  0.00    +0.121 C 
ATOM      9  C   UNL     1       0.017  -0.694  24.575  0.00  0.00    +0.109 C 
ATOM     11  C   UNL     1      -0.066   1.760  24.240  0.00  0.00    +0.247 C 
ENDROOT
BRANCH   6  10
ATOM      1  O   UNL     1      -2.968  -2.707  24.600  0.00  0.00    -0.425 OA
ATOM      4  N   UNL     1      -4.104  -0.780  24.624  0.00  0.00    -0.112 NA
ATOM      5  N   UNL     1      -4.794  -1.672  23.823  0.00  0.00    -0.113 NA
ATOM     10  C   UNL     1      -3.047  -1.426  25.056  0.00  0.00    +0.222 A 
ATOM     13  C   UNL     1      -4.094  -2.782  23.839  0.00  0.00    +0.214 A 
ATOM     16  C   UNL     1      -4.355  -4.062  23.167  0.00  0.00    +0.111 C 
ENDBRANCH   6  10
BRANCH  11  12
ATOM     12  C   UNL     1      -0.666   3.046  24.625  0.00  0.00    +0.037 A 
ATOM     14  C   UNL     1      -0.068   4.242  24.230  0.00  0.00    +0.013 A 
ATOM     15  C   UNL     1      -1.836   3.069  25.385  0.00  0.00    +0.013 A 
ATOM     17  C   UNL     1      -0.639   5.461  24.596  0.00  0.00    +0.001 A 
ATOM     18  C   UNL     1      -2.407   4.288  25.751  0.00  0.00    +0.001 A 
ATOM     19  C   UNL     1      -1.808   5.484  25.356  0.00  0.00    +0.000 A 
ENDBRANCH  11  12
TORSDOF 2
ENDMDL
MODEL 10
REMARK VINA RESULT:      -2.8      3.503      5.135
REMARK  Name = 51137713
REMARK  3 active torsions:
REMARK  status: ('A' for Active; 'I' for Inactive)
REMARK    1  A    between atoms: C_6  and  C_10
REMARK    2  A    between atoms: C_11  and  C_12
REMARK    3  A    between atoms: C_13  and  C_16
REMARK                            x       y       z     vdW  Elec       q    Type
REMARK                         _______ _______ _______ _____ _____    ______ ____
ROOT
ATOM      2  O   UNL     1       1.212  -0.513  21.217  0.00  0.00    -0.270 OA
ATOM      3  N   UNL     1       0.394  -0.296  23.380  0.00  0.00    -0.297 N 
ATOM      6  C   UNL     1      -0.854   0.349  25.301  0.00  0.00    +0.095 C 
ATOM      7  C   UNL     1      -1.752  -0.455  24.347  0.00  0.00    +0.033 C 
ATOM      8  C   UNL     1       0.551  -0.032  24.811  0.00  0.00    +0.121 C 
ATOM      9  C   UNL     1      -1.010  -0.406  23.019  0.00  0.00    +0.109 C 
ATOM     11  C   UNL     1       1.395  -0.361  22.423  0.00  0.00    +0.247 C 
ENDROOT
BRANCH   6  10
ATOM      1  O   UNL     1      -2.478   2.154  24.942  0.00  0.00    -0.425 OA
ATOM      4  N   UNL     1      -0.447   2.867  25.552  0.00  0.00    -0.112 NA
ATOM      5  N   UNL     1      -1.258   3.976  25.385  0.00  0.00    -0.113 NA
ATOM     10  C   UNL     1      -1.201   1.827  25.283  0.00  0.00    +0.222 A 
ATOM     13  C   UNL     1      -2.433   3.512  25.030  0.00  0.00    +0.214 A 
ATOM     16  C   UNL     1      -3.672   4.238  24.725  0.00  0.00    +0.111 C 
ENDBRANCH   6  10
BRANCH  11  12
ATOM     12  C   UNL     1       2.785  -0.223  22.884  0.00  0.00    +0.037 A 
ATOM     14  C   UNL     1       3.426  -1.298  23.499  0.00  0.00    +0.013 A 
ATOM     15  C   UNL     1       3.463   0.982  22.703  0.00  0.00    +0.013 A 
ATOM     17  C   UNL     1       4.745  -1.167  23.935  0.00  0.00    +0.001 A 
ATOM     18  C   UNL     1       4.782   1.113  23.138  0.00  0.00    +0.001 A 
ATOM     19  C   UNL     1       5.423   0.038  23.754  0.00  0.00    +0.000 A 
ENDBRANCH  11  12
TORSDOF 2
ENDMDL
