MODEL 1
REMARK VINA RESULT:       4.1      0.000      0.000
REMARK  Name = 40780660
REMARK  8 active torsions:
REMARK  status: ('A' for Active; 'I' for Inactive)
REMARK    1  A    between atoms: O_3  and  C_13
REMARK    2  A    between atoms: O_4  and  C_14
REMARK    3  A    between atoms: N_10  and  C_23
REMARK    4  A    between atoms: N_11  and  C_17
REMARK    5  A    between atoms: C_12  and  C_16
REMARK    6  A    between atoms: C_15  and  C_17
REMARK    7  A    between atoms: C_16  and  C_18
REMARK    8  A    between atoms: C_24  and  C_27
REMARK                            x       y       z     vdW  Elec       q    Type
REMARK                         _______ _______ _______ _____ _____    ______ ____
ROOT
ATOM      2  O   UNL     1      -4.202   1.623  23.951  0.00  0.00    -0.366 OA
ATOM     12  C   UNL     1      -4.991   0.718  24.758  0.00  0.00    +0.159 C 
ATOM     13  C   UNL     1      -6.018   1.578  25.487  0.00  0.00    +0.175 C 
ATOM     14  C   UNL     1      -5.295   2.904  25.602  0.00  0.00    +0.176 C 
ATOM     15  C   UNL     1      -4.577   2.975  24.264  0.00  0.00    +0.167 C 
ENDROOT
BRANCH  13   3
ATOM      3  O   UNL     1      -7.163   1.709  24.645  0.00  0.00    -0.387 OA
ATOM     37  H   UNL     1      -7.233   0.892  24.122  0.00  0.00    +0.210 HD
ENDBRANCH  13   3
BRANCH  14   4
ATOM      4  O   UNL     1      -6.164   4.000  25.795  0.00  0.00    -0.387 OA
ATOM     38  H   UNL     1      -7.048   3.642  25.982  0.00  0.00    +0.210 HD
ENDBRANCH  14   4
BRANCH  12  16
ATOM     16  C   UNL     1      -4.044  -0.008  25.703  0.00  0.00    +0.130 C 
BRANCH  16  18
ATOM      5  O   UNL     1      -3.940  -2.185  24.762  0.00  0.00    -0.276 OA
ATOM      9  N   UNL     1      -2.032  -0.873  24.566  0.00  0.00    -0.298 N 
ATOM     10  N   UNL     1       0.760  -0.537  23.881  0.00  0.00    -0.327 N 
ATOM     18  C   UNL     1      -3.344  -1.126  24.971  0.00  0.00    +0.218 C 
ATOM     19  C   UNL     1      -1.289  -1.904  23.847  0.00  0.00    +0.126 C 
ATOM     20  C   UNL     1      -1.323   0.382  24.827  0.00  0.00    +0.126 C 
ATOM     21  C   UNL     1       0.203  -1.862  24.172  0.00  0.00    +0.124 C 
ATOM     22  C   UNL     1      -0.152   0.609  23.869  0.00  0.00    +0.124 C 
BRANCH  10  23
ATOM      1  F   UNL     1       6.123   0.074  22.718  0.00  0.00    -0.205 F 
ATOM     23  C   UNL     1       2.112  -0.384  23.588  0.00  0.00    +0.030 A 
ATOM     25  C   UNL     1       2.570   0.802  23.011  0.00  0.00    +0.026 A 
ATOM     26  C   UNL     1       3.010  -1.414  23.870  0.00  0.00    +0.026 A 
ATOM     28  C   UNL     1       3.925   0.957  22.718  0.00  0.00    +0.040 A 
ATOM     29  C   UNL     1       4.364  -1.258  23.576  0.00  0.00    +0.040 A 
ATOM     31  C   UNL     1       4.822  -0.074  23.000  0.00  0.00    +0.124 A 
ENDBRANCH  10  23
ENDBRANCH  16  18
ENDBRANCH  12  16
BRANCH  15  17
ATOM     17  C   UNL     1      -3.340   3.855  24.291  0.00  0.00    +0.138 C 
BRANCH  17  11
ATOM      6  O   UNL     1      -0.470   3.815  24.384  0.00  0.00    -0.270 OA
ATOM     11  N   UNL     1      -2.524   3.567  25.434  0.00  0.00    -0.309 N 
ATOM     24  C   UNL     1      -1.134   3.570  25.389  0.00  0.00    +0.244 C 
ATOM     39  H   UNL     1      -3.008   3.409  26.312  0.00  0.00    +0.149 HD
BRANCH  24  27
ATOM      7  O   UNL     1       2.903   2.674  28.075  0.00  0.00    -0.453 OA
ATOM      8  O   UNL     1       1.622   2.285  30.079  0.00  0.00    -0.453 OA
ATOM     27  C   UNL     1      -0.434   3.225  26.653  0.00  0.00    +0.040 A 
ATOM     30  C   UNL     1       0.959   3.131  26.670  0.00  0.00    +0.062 A 
ATOM     32  C   UNL     1      -1.181   2.998  27.823  0.00  0.00    +0.017 A 
ATOM     33  C   UNL     1       1.565   2.810  27.868  0.00  0.00    +0.167 A 
ATOM     34  C   UNL     1      -0.543   2.675  29.022  0.00  0.00    +0.050 A 
ATOM     35  C   UNL     1       0.833   2.588  29.013  0.00  0.00    +0.166 A 
ATOM     36  C   UNL     1       2.932   2.341  29.478  0.00  0.00    +0.466 C 
ENDBRANCH  24  27
ENDBRANCH  17  11
ENDBRANCH  15  17
TORSDOF 8
ENDMDL
MODEL 2
REMARK VINA RESULT:       8.0      3.716      8.280
REMARK  Name = 40780660
REMARK  8 active torsions:
REMARK  status: ('A' for Active; 'I' for Inactive)
REMARK    1  A    between atoms: O_3  and  C_13
REMARK    2  A    between atoms: O_4  and  C_14
REMARK    3  A    between atoms: N_10  and  C_23
REMARK    4  A    between atoms: N_11  and  C_17
REMARK    5  A    between atoms: C_12  and  C_16
REMARK    6  A    between atoms: C_15  and  C_17
REMARK    7  A    between atoms: C_16  and  C_18
REMARK    8  A    between atoms: C_24  and  C_27
REMARK                            x       y       z     vdW  Elec       q    Type
REMARK                         _______ _______ _______ _____ _____    ______ ____
ROOT
ATOM      2  O   UNL     1       3.330  -1.003  22.734  0.00  0.00    -0.366 OA
ATOM     12  C   UNL     1       3.792   0.358  22.574  0.00  0.00    +0.159 C 
ATOM     13  C   UNL     1       5.054   0.484  23.421  0.00  0.00    +0.175 C 
ATOM     14  C   UNL     1       4.804  -0.534  24.514  0.00  0.00    +0.176 C 
ATOM     15  C   UNL     1       4.129  -1.653  23.737  0.00  0.00    +0.167 C 
ENDROOT
BRANCH  13   3
ATOM      3  O   UNL     1       6.167   0.089  22.620  0.00  0.00    -0.387 OA
ATOM     37  H   UNL     1       5.841  -0.036  21.712  0.00  0.00    +0.210 HD
ENDBRANCH  13   3
BRANCH  14   4
ATOM      4  O   UNL     1       5.985  -0.972  25.152  0.00  0.00    -0.387 OA
ATOM     38  H   UNL     1       6.070  -1.926  24.985  0.00  0.00    +0.210 HD
ENDBRANCH  14   4
BRANCH  12  16
ATOM     16  C   UNL     1       2.674   1.286  23.028  0.00  0.00    +0.130 C 
BRANCH  16  18
ATOM      5  O   UNL     1       1.280  -0.267  21.897  0.00  0.00    -0.276 OA
ATOM      9  N   UNL     1       0.219   1.275  23.273  0.00  0.00    -0.298 N 
ATOM     10  N   UNL     1      -2.172   2.556  24.283  0.00  0.00    -0.327 N 
ATOM     18  C   UNL     1       1.335   0.688  22.674  0.00  0.00    +0.218 C 
ATOM     19  C   UNL     1      -1.113   0.751  22.986  0.00  0.00    +0.126 C 
ATOM     20  C   UNL     1       0.287   2.418  24.187  0.00  0.00    +0.126 C 
ATOM     21  C   UNL     1      -2.174   1.850  22.998  0.00  0.00    +0.124 C 
ATOM     22  C   UNL     1      -0.946   2.532  25.085  0.00  0.00    +0.124 C 
BRANCH  10  23
ATOM      1  F   UNL     1      -6.720   5.105  26.101  0.00  0.00    -0.205 F 
ATOM     23  C   UNL     1      -3.319   3.199  24.742  0.00  0.00    +0.030 A 
ATOM     25  C   UNL     1      -4.579   2.686  24.428  0.00  0.00    +0.026 A 
ATOM     26  C   UNL     1      -3.210   4.355  25.515  0.00  0.00    +0.026 A 
ATOM     28  C   UNL     1      -5.727   3.330  24.887  0.00  0.00    +0.040 A 
ATOM     29  C   UNL     1      -4.359   4.998  25.974  0.00  0.00    +0.040 A 
ATOM     31  C   UNL     1      -5.617   4.486  25.660  0.00  0.00    +0.124 A 
ENDBRANCH  10  23
ENDBRANCH  16  18
ENDBRANCH  12  16
BRANCH  15  17
ATOM     17  C   UNL     1       3.246  -2.537  24.600  0.00  0.00    +0.138 C 
BRANCH  17  11
ATOM      6  O   UNL     1       0.951  -3.852  25.716  0.00  0.00    -0.270 OA
ATOM     11  N   UNL     1       1.919  -2.005  24.699  0.00  0.00    -0.309 N 
ATOM     24  C   UNL     1       0.861  -2.716  25.257  0.00  0.00    +0.244 C 
ATOM     39  H   UNL     1       1.786  -1.048  24.388  0.00  0.00    +0.149 HD
BRANCH  24  27
ATOM      7  O   UNL     1      -3.779  -2.112  23.701  0.00  0.00    -0.453 OA
ATOM      8  O   UNL     1      -4.152  -0.244  25.177  0.00  0.00    -0.453 OA
ATOM     27  C   UNL     1      -0.460  -2.034  25.261  0.00  0.00    +0.040 A 
ATOM     30  C   UNL     1      -1.473  -2.483  24.412  0.00  0.00    +0.062 A 
ATOM     32  C   UNL     1      -0.677  -0.944  26.122  0.00  0.00    +0.017 A 
ATOM     33  C   UNL     1      -2.683  -1.820  24.452  0.00  0.00    +0.167 A 
ATOM     34  C   UNL     1      -1.911  -0.290  26.144  0.00  0.00    +0.050 A 
ATOM     35  C   UNL     1      -2.896  -0.752  25.295  0.00  0.00    +0.166 A 
ATOM     36  C   UNL     1      -4.707  -1.110  24.165  0.00  0.00    +0.466 C 
ENDBRANCH  24  27
ENDBRANCH  17  11
ENDBRANCH  15  17
TORSDOF 8
ENDMDL
