MODEL 1
REMARK VINA RESULT:      -4.5      0.000      0.000
REMARK  Name = 75536962
REMARK  2 active torsions:
REMARK  status: ('A' for Active; 'I' for Inactive)
REMARK    1  A    between atoms: O_3  and  C_6
REMARK    2  A    between atoms: O_3  and  C_14
REMARK                            x       y       z     vdW  Elec       q    Type
REMARK                         _______ _______ _______ _____ _____    ______ ____
ROOT
ATOM      1  S   UNL     1      17.059  -5.586  23.954  0.00  0.00    -0.052 S 
ATOM      2  O   UNL     1      15.277  -8.840  26.696  0.00  0.00    -0.375 OA
ATOM      4  N   UNL     1      17.405  -6.887  26.275  0.00  0.00    -0.304 N 
ATOM      5  N   UNL     1      17.370  -4.494  26.269  0.00  0.00    -0.225 NA
ATOM      6  C   UNL     1      15.904  -7.041  28.260  0.00  0.00    +0.216 C 
ATOM      7  C   UNL     1      17.346  -7.034  27.736  0.00  0.00    +0.154 C 
ATOM      8  C   UNL     1      17.318  -8.151  25.532  0.00  0.00    +0.135 C 
ATOM      9  C   UNL     1      14.849  -7.634  27.324  0.00  0.00    +0.206 C 
ATOM     10  C   UNL     1      15.873  -8.624  25.414  0.00  0.00    +0.179 C 
ATOM     11  C   UNL     1      17.299  -5.647  25.646  0.00  0.00    +0.162 A 
ATOM     12  C   UNL     1      17.045  -3.863  24.029  0.00  0.00    +0.041 A 
ATOM     13  C   UNL     1      17.226  -3.462  25.355  0.00  0.00    +0.080 A 
ATOM     15  C   UNL     1      16.883  -2.935  22.987  0.00  0.00    +0.017 A 
ATOM     16  C   UNL     1      17.248  -2.081  25.648  0.00  0.00    +0.029 A 
ATOM     19  C   UNL     1      16.909  -1.574  23.304  0.00  0.00    +0.001 A 
ATOM     20  C   UNL     1      17.088  -1.150  24.617  0.00  0.00    +0.002 A 
ENDROOT
BRANCH   6   3
ATOM      3  O   UNL     1      15.490  -5.718  28.594  0.00  0.00    -0.485 OA
BRANCH   3  14
ATOM     14  C   UNL     1      14.966  -5.537  29.844  0.00  0.00    +0.121 A 
ATOM     17  C   UNL     1      15.537  -4.608  30.714  0.00  0.00    +0.045 A 
ATOM     18  C   UNL     1      13.858  -6.283  30.251  0.00  0.00    +0.045 A 
ATOM     21  C   UNL     1      15.002  -4.425  31.989  0.00  0.00    +0.004 A 
ATOM     22  C   UNL     1      13.323  -6.098  31.525  0.00  0.00    +0.004 A 
ATOM     23  C   UNL     1      13.895  -5.170  32.395  0.00  0.00    +0.000 A 
ENDBRANCH   3  14
ENDBRANCH   6   3
TORSDOF 2
ENDMDL
MODEL 2
REMARK VINA RESULT:      -4.4     26.473     28.134
REMARK  Name = 75536962
REMARK  2 active torsions:
REMARK  status: ('A' for Active; 'I' for Inactive)
REMARK    1  A    between atoms: O_3  and  C_6
REMARK    2  A    between atoms: O_3  and  C_14
REMARK                            x       y       z     vdW  Elec       q    Type
REMARK                         _______ _______ _______ _____ _____    ______ ____
ROOT
ATOM      1  S   UNL     1      -3.871 -10.684  13.897  0.00  0.00    -0.052 S 
ATOM      2  O   UNL     1      -3.440  -8.602   9.803  0.00  0.00    -0.375 OA
ATOM      4  N   UNL     1      -4.641 -10.781  11.328  0.00  0.00    -0.304 N 
ATOM      5  N   UNL     1      -6.304 -10.771  13.049  0.00  0.00    -0.225 NA
ATOM      6  C   UNL     1      -5.852  -9.086   9.958  0.00  0.00    +0.216 C 
ATOM      7  C   UNL     1      -5.577 -10.573  10.215  0.00  0.00    +0.154 C 
ATOM      8  C   UNL     1      -3.223 -10.757  10.946  0.00  0.00    +0.135 C 
ATOM      9  C   UNL     1      -4.701  -8.125  10.265  0.00  0.00    +0.206 C 
ATOM     10  C   UNL     1      -2.715  -9.326  10.800  0.00  0.00    +0.179 C 
ATOM     11  C   UNL     1      -5.050 -10.751  12.661  0.00  0.00    +0.162 A 
ATOM     12  C   UNL     1      -5.125 -10.680  15.080  0.00  0.00    +0.041 A 
ATOM     13  C   UNL     1      -6.364 -10.730  14.434  0.00  0.00    +0.080 A 
ATOM     15  C   UNL     1      -5.020 -10.634  16.480  0.00  0.00    +0.017 A 
ATOM     16  C   UNL     1      -7.537 -10.736  15.218  0.00  0.00    +0.029 A 
ATOM     19  C   UNL     1      -6.197 -10.641  17.232  0.00  0.00    +0.001 A 
ATOM     20  C   UNL     1      -7.441 -10.691  16.612  0.00  0.00    +0.002 A 
ENDROOT
BRANCH   6   3
ATOM      3  O   UNL     1      -6.986  -8.654  10.706  0.00  0.00    -0.485 OA
BRANCH   3  14
ATOM     14  C   UNL     1      -8.214  -8.918  10.164  0.00  0.00    +0.121 A 
ATOM     17  C   UNL     1      -8.533  -8.445   8.892  0.00  0.00    +0.045 A 
ATOM     18  C   UNL     1      -9.149  -9.662  10.886  0.00  0.00    +0.045 A 
ATOM     21  C   UNL     1      -9.786  -8.714   8.340  0.00  0.00    +0.004 A 
ATOM     22  C   UNL     1     -10.401  -9.932  10.333  0.00  0.00    +0.004 A 
ATOM     23  C   UNL     1     -10.720  -9.458   9.061  0.00  0.00    +0.000 A 
ENDBRANCH   3  14
ENDBRANCH   6   3
TORSDOF 2
ENDMDL
MODEL 3
REMARK VINA RESULT:      -3.0     19.022     19.929
REMARK  Name = 75536962
REMARK  2 active torsions:
REMARK  status: ('A' for Active; 'I' for Inactive)
REMARK    1  A    between atoms: O_3  and  C_6
REMARK    2  A    between atoms: O_3  and  C_14
REMARK                            x       y       z     vdW  Elec       q    Type
REMARK                         _______ _______ _______ _____ _____    ______ ____
ROOT
ATOM      1  S   UNL     1       0.041   1.297  24.393  0.00  0.00    -0.052 S 
ATOM      2  O   UNL     1      -2.283  -2.677  24.093  0.00  0.00    -0.375 OA
ATOM      4  N   UNL     1      -1.237  -0.576  25.828  0.00  0.00    -0.304 N 
ATOM      5  N   UNL     1      -1.865   1.719  26.078  0.00  0.00    -0.225 NA
ATOM      6  C   UNL     1      -3.603  -1.352  25.697  0.00  0.00    +0.216 C 
ATOM      7  C   UNL     1      -2.372  -1.125  26.584  0.00  0.00    +0.154 C 
ATOM      8  C   UNL     1      -0.384  -1.587  25.190  0.00  0.00    +0.135 C 
ATOM      9  C   UNL     1      -3.325  -1.717  24.237  0.00  0.00    +0.206 C 
ATOM     10  C   UNL     1      -0.998  -2.084  23.885  0.00  0.00    +0.179 C 
ATOM     11  C   UNL     1      -1.125   0.782  25.533  0.00  0.00    +0.162 A 
ATOM     12  C   UNL     1      -0.467   2.928  24.627  0.00  0.00    +0.041 A 
ATOM     13  C   UNL     1      -1.499   2.956  25.568  0.00  0.00    +0.080 A 
ATOM     15  C   UNL     1       0.015   4.099  24.019  0.00  0.00    +0.017 A 
ATOM     16  C   UNL     1      -2.069   4.201  25.913  0.00  0.00    +0.029 A 
ATOM     19  C   UNL     1      -0.566   5.318  24.378  0.00  0.00    +0.001 A 
ATOM     20  C   UNL     1      -1.595   5.371  25.313  0.00  0.00    +0.002 A 
ENDROOT
BRANCH   6   3
ATOM      3  O   UNL     1      -4.439  -0.196  25.702  0.00  0.00    -0.485 OA
BRANCH   3  14
ATOM     14  C   UNL     1      -4.204   0.734  24.727  0.00  0.00    +0.121 A 
ATOM     17  C   UNL     1      -3.424   0.404  23.619  0.00  0.00    +0.045 A 
ATOM     18  C   UNL     1      -4.744   2.016  24.841  0.00  0.00    +0.045 A 
ATOM     21  C   UNL     1      -3.183   1.353  22.626  0.00  0.00    +0.004 A 
ATOM     22  C   UNL     1      -4.505   2.964  23.847  0.00  0.00    +0.004 A 
ATOM     23  C   UNL     1      -3.724   2.633  22.740  0.00  0.00    +0.000 A 
ENDBRANCH   3  14
ENDBRANCH   6   3
TORSDOF 2
ENDMDL
MODEL 4
REMARK VINA RESULT:      -2.5     19.528     20.865
REMARK  Name = 75536962
REMARK  2 active torsions:
REMARK  status: ('A' for Active; 'I' for Inactive)
REMARK    1  A    between atoms: O_3  and  C_6
REMARK    2  A    between atoms: O_3  and  C_14
REMARK                            x       y       z     vdW  Elec       q    Type
REMARK                         _______ _______ _______ _____ _____    ______ ____
ROOT
ATOM      1  S   UNL     1      -1.163  -0.479  25.798  0.00  0.00    -0.052 S 
ATOM      2  O   UNL     1      -0.843   4.123  25.866  0.00  0.00    -0.375 OA
ATOM      4  N   UNL     1      -0.593   1.673  24.299  0.00  0.00    -0.304 N 
ATOM      5  N   UNL     1      -2.242   0.117  23.532  0.00  0.00    -0.225 NA
ATOM      6  C   UNL     1      -2.004   3.652  23.744  0.00  0.00    +0.216 C 
ATOM      7  C   UNL     1      -0.883   2.705  23.295  0.00  0.00    +0.154 C 
ATOM      8  C   UNL     1       0.383   2.074  25.321  0.00  0.00    +0.135 C 
ATOM      9  C   UNL     1      -2.109   3.907  25.249  0.00  0.00    +0.206 C 
ATOM     10  C   UNL     1      -0.270   2.927  26.404  0.00  0.00    +0.179 C 
ATOM     11  C   UNL     1      -1.359   0.514  24.419  0.00  0.00    +0.162 A 
ATOM     12  C   UNL     1      -2.361  -1.554  25.181  0.00  0.00    +0.041 A 
ATOM     13  C   UNL     1      -2.825  -1.068  23.955  0.00  0.00    +0.080 A 
ATOM     15  C   UNL     1      -2.856  -2.743  25.742  0.00  0.00    +0.017 A 
ATOM     16  C   UNL     1      -3.819  -1.798  23.268  0.00  0.00    +0.029 A 
ATOM     19  C   UNL     1      -3.838  -3.447  25.041  0.00  0.00    +0.001 A 
ATOM     20  C   UNL     1      -4.316  -2.983  23.820  0.00  0.00    +0.002 A 
ENDROOT
BRANCH   6   3
ATOM      3  O   UNL     1      -3.270   3.171  23.298  0.00  0.00    -0.485 OA
BRANCH   3  14
ATOM     14  C   UNL     1      -4.214   2.946  24.262  0.00  0.00    +0.121 A 
ATOM     17  C   UNL     1      -4.767   4.018  24.962  0.00  0.00    +0.045 A 
ATOM     18  C   UNL     1      -4.625   1.642  24.545  0.00  0.00    +0.045 A 
ATOM     21  C   UNL     1      -5.729   3.788  25.945  0.00  0.00    +0.004 A 
ATOM     22  C   UNL     1      -5.588   1.413  25.527  0.00  0.00    +0.004 A 
ATOM     23  C   UNL     1      -6.140   2.485  26.228  0.00  0.00    +0.000 A 
ENDBRANCH   3  14
ENDBRANCH   6   3
TORSDOF 2
ENDMDL
MODEL 5
REMARK VINA RESULT:      -1.9     18.573     19.436
REMARK  Name = 75536962
REMARK  2 active torsions:
REMARK  status: ('A' for Active; 'I' for Inactive)
REMARK    1  A    between atoms: O_3  and  C_6
REMARK    2  A    between atoms: O_3  and  C_14
REMARK                            x       y       z     vdW  Elec       q    Type
REMARK                         _______ _______ _______ _____ _____    ______ ____
ROOT
ATOM      1  S   UNL     1      -0.101  -1.862  24.163  0.00  0.00    -0.052 S 
ATOM      2  O   UNL     1      -4.694  -2.279  24.050  0.00  0.00    -0.375 OA
ATOM      4  N   UNL     1      -2.372  -1.118  25.384  0.00  0.00    -0.304 N 
ATOM      5  N   UNL     1      -0.822   0.561  24.673  0.00  0.00    -0.225 NA
ATOM      6  C   UNL     1      -4.339   0.121  24.482  0.00  0.00    +0.216 C 
ATOM      7  C   UNL     1      -3.464  -0.188  25.704  0.00  0.00    +0.154 C 
ATOM      8  C   UNL     1      -2.731  -2.538  25.491  0.00  0.00    +0.135 C 
ATOM      9  C   UNL     1      -4.482  -1.003  23.453  0.00  0.00    +0.206 C 
ATOM     10  C   UNL     1      -3.483  -3.013  24.251  0.00  0.00    +0.179 C 
ATOM     11  C   UNL     1      -1.184  -0.696  24.790  0.00  0.00    +0.162 A 
ATOM     12  C   UNL     1       0.966  -0.597  23.680  0.00  0.00    +0.041 A 
ATOM     13  C   UNL     1       0.408   0.633  24.038  0.00  0.00    +0.080 A 
ATOM     15  C   UNL     1       2.207  -0.689  23.029  0.00  0.00    +0.017 A 
ATOM     16  C   UNL     1       1.120   1.814  23.734  0.00  0.00    +0.029 A 
ATOM     19  C   UNL     1       2.891   0.495  22.740  0.00  0.00    +0.001 A 
ATOM     20  C   UNL     1       2.357   1.732  23.087  0.00  0.00    +0.002 A 
ENDROOT
BRANCH   6   3
ATOM      3  O   UNL     1      -3.850   1.273  23.798  0.00  0.00    -0.485 OA
BRANCH   3  14
ATOM     14  C   UNL     1      -3.621   2.386  24.559  0.00  0.00    +0.121 A 
ATOM     17  C   UNL     1      -4.622   2.876  25.399  0.00  0.00    +0.045 A 
ATOM     18  C   UNL     1      -2.386   3.034  24.495  0.00  0.00    +0.045 A 
ATOM     21  C   UNL     1      -4.389   4.012  26.174  0.00  0.00    +0.004 A 
ATOM     22  C   UNL     1      -2.154   4.168  25.272  0.00  0.00    +0.004 A 
ATOM     23  C   UNL     1      -3.155   4.658  26.111  0.00  0.00    +0.000 A 
ENDBRANCH   3  14
ENDBRANCH   6   3
TORSDOF 2
ENDMDL
MODEL 6
REMARK VINA RESULT:      -1.7     17.453     18.978
REMARK  Name = 75536962
REMARK  2 active torsions:
REMARK  status: ('A' for Active; 'I' for Inactive)
REMARK    1  A    between atoms: O_3  and  C_6
REMARK    2  A    between atoms: O_3  and  C_14
REMARK                            x       y       z     vdW  Elec       q    Type
REMARK                         _______ _______ _______ _____ _____    ______ ____
ROOT
ATOM      1  S   UNL     1      -3.556   1.041  25.101  0.00  0.00    -0.052 S 
ATOM      2  O   UNL     1      -0.531   4.396  24.164  0.00  0.00    -0.375 OA
ATOM      4  N   UNL     1      -1.105   1.967  25.679  0.00  0.00    -0.304 N 
ATOM      5  N   UNL     1      -1.360  -0.306  24.976  0.00  0.00    -0.225 NA
ATOM      6  C   UNL     1       0.851   2.355  24.181  0.00  0.00    +0.216 C 
ATOM      7  C   UNL     1       0.362   1.988  25.589  0.00  0.00    +0.154 C 
ATOM      8  C   UNL     1      -1.714   3.267  25.987  0.00  0.00    +0.135 C 
ATOM      9  C   UNL     1      -0.042   3.308  23.384  0.00  0.00    +0.206 C 
ATOM     10  C   UNL     1      -1.815   4.140  24.740  0.00  0.00    +0.179 C 
ATOM     11  C   UNL     1      -1.861   0.873  25.262  0.00  0.00    +0.162 A 
ATOM     12  C   UNL     1      -3.661  -0.606  24.601  0.00  0.00    +0.041 A 
ATOM     13  C   UNL     1      -2.380  -1.165  24.595  0.00  0.00    +0.080 A 
ATOM     15  C   UNL     1      -4.797  -1.349  24.240  0.00  0.00    +0.017 A 
ATOM     16  C   UNL     1      -2.231  -2.516  24.214  0.00  0.00    +0.029 A 
ATOM     19  C   UNL     1      -4.622  -2.685  23.867  0.00  0.00    +0.001 A 
ATOM     20  C   UNL     1      -3.357  -3.263  23.853  0.00  0.00    +0.002 A 
ENDROOT
BRANCH   6   3
ATOM      3  O   UNL     1       1.036   1.178  23.397  0.00  0.00    -0.485 OA
BRANCH   3  14
ATOM     14  C   UNL     1       2.306   0.672  23.343  0.00  0.00    +0.121 A 
ATOM     17  C   UNL     1       2.532  -0.677  23.618  0.00  0.00    +0.045 A 
ATOM     18  C   UNL     1       3.376   1.504  23.012  0.00  0.00    +0.045 A 
ATOM     21  C   UNL     1       3.827  -1.193  23.564  0.00  0.00    +0.004 A 
ATOM     22  C   UNL     1       4.670   0.988  22.956  0.00  0.00    +0.004 A 
ATOM     23  C   UNL     1       4.896  -0.361  23.233  0.00  0.00    +0.000 A 
ENDBRANCH   3  14
ENDBRANCH   6   3
TORSDOF 2
ENDMDL
MODEL 7
REMARK VINA RESULT:      -0.7     19.097     20.539
REMARK  Name = 75536962
REMARK  2 active torsions:
REMARK  status: ('A' for Active; 'I' for Inactive)
REMARK    1  A    between atoms: O_3  and  C_6
REMARK    2  A    between atoms: O_3  and  C_14
REMARK                            x       y       z     vdW  Elec       q    Type
REMARK                         _______ _______ _______ _____ _____    ______ ____
ROOT
ATOM      1  S   UNL     1      -4.533   0.918  23.744  0.00  0.00    -0.052 S 
ATOM      2  O   UNL     1      -2.160   4.854  24.134  0.00  0.00    -0.375 OA
ATOM      4  N   UNL     1      -3.770   2.822  25.474  0.00  0.00    -0.304 N 
ATOM      5  N   UNL     1      -3.311   0.529  25.982  0.00  0.00    -0.225 NA
ATOM      6  C   UNL     1      -1.481   3.567  26.123  0.00  0.00    +0.216 C 
ATOM      7  C   UNL     1      -2.943   3.383  26.551  0.00  0.00    +0.154 C 
ATOM      8  C   UNL     1      -4.339   3.821  24.560  0.00  0.00    +0.135 C 
ATOM      9  C   UNL     1      -1.246   3.888  24.645  0.00  0.00    +0.206 C 
ATOM     10  C   UNL     1      -3.313   4.269  23.523  0.00  0.00    +0.179 C 
ATOM     11  C   UNL     1      -3.806   1.457  25.195  0.00  0.00    +0.162 A 
ATOM     12  C   UNL     1      -4.168  -0.711  24.178  0.00  0.00    +0.041 A 
ATOM     13  C   UNL     1      -3.511  -0.719  25.412  0.00  0.00    +0.080 A 
ATOM     15  C   UNL     1      -4.443  -1.895  23.475  0.00  0.00    +0.017 A 
ATOM     16  C   UNL     1      -3.116  -1.958  25.961  0.00  0.00    +0.029 A 
ATOM     19  C   UNL     1      -4.042  -3.108  24.041  0.00  0.00    +0.001 A 
ATOM     20  C   UNL     1      -3.387  -3.142  25.268  0.00  0.00    +0.002 A 
ENDROOT
BRANCH   6   3
ATOM      3  O   UNL     1      -0.720   2.403  26.439  0.00  0.00    -0.485 OA
BRANCH   3  14
ATOM     14  C   UNL     1      -0.232   1.684  25.382  0.00  0.00    +0.121 A 
ATOM     17  C   UNL     1       0.663   2.274  24.489  0.00  0.00    +0.045 A 
ATOM     18  C   UNL     1      -0.632   0.360  25.196  0.00  0.00    +0.045 A 
ATOM     21  C   UNL     1       1.159   1.540  23.411  0.00  0.00    +0.004 A 
ATOM     22  C   UNL     1      -0.134  -0.373  24.119  0.00  0.00    +0.004 A 
ATOM     23  C   UNL     1       0.760   0.217  23.226  0.00  0.00    +0.000 A 
ENDBRANCH   3  14
ENDBRANCH   6   3
TORSDOF 2
ENDMDL
MODEL 8
REMARK VINA RESULT:      -0.6     19.153     20.212
REMARK  Name = 75536962
REMARK  2 active torsions:
REMARK  status: ('A' for Active; 'I' for Inactive)
REMARK    1  A    between atoms: O_3  and  C_6
REMARK    2  A    between atoms: O_3  and  C_14
REMARK                            x       y       z     vdW  Elec       q    Type
REMARK                         _______ _______ _______ _____ _____    ______ ____
ROOT
ATOM      1  S   UNL     1      -1.797   3.283  23.696  0.00  0.00    -0.052 S 
ATOM      2  O   UNL     1       0.609  -0.654  23.686  0.00  0.00    -0.375 OA
ATOM      4  N   UNL     1      -0.273   1.674  25.211  0.00  0.00    -0.304 N 
ATOM      5  N   UNL     1      -2.440   2.314  25.998  0.00  0.00    -0.225 NA
ATOM      6  C   UNL     1      -0.602  -0.718  25.832  0.00  0.00    +0.216 C 
ATOM      7  C   UNL     1      -0.037   0.650  26.237  0.00  0.00    +0.154 C 
ATOM      8  C   UNL     1       0.760   1.743  24.169  0.00  0.00    +0.135 C 
ATOM      9  C   UNL     1      -0.603  -1.030  24.334  0.00  0.00    +0.206 C 
ATOM     10  C   UNL     1       0.557   0.657  23.117  0.00  0.00    +0.179 C 
ATOM     11  C   UNL     1      -1.489   2.346  25.094  0.00  0.00    +0.162 A 
ATOM     12  C   UNL     1      -3.345   3.700  24.329  0.00  0.00    +0.041 A 
ATOM     13  C   UNL     1      -3.512   3.086  25.574  0.00  0.00    +0.080 A 
ATOM     15  C   UNL     1      -4.342   4.513  23.764  0.00  0.00    +0.017 A 
ATOM     16  C   UNL     1      -4.718   3.293  26.276  0.00  0.00    +0.029 A 
ATOM     19  C   UNL     1      -5.526   4.703  24.480  0.00  0.00    +0.001 A 
ATOM     20  C   UNL     1      -5.715   4.102  25.720  0.00  0.00    +0.002 A 
ENDROOT
BRANCH   6   3
ATOM      3  O   UNL     1      -1.940  -0.863  26.304  0.00  0.00    -0.485 OA
BRANCH   3  14
ATOM     14  C   UNL     1      -2.859  -1.332  25.407  0.00  0.00    +0.121 A 
ATOM     17  C   UNL     1      -2.886  -2.687  25.078  0.00  0.00    +0.045 A 
ATOM     18  C   UNL     1      -3.772  -0.454  24.819  0.00  0.00    +0.045 A 
ATOM     21  C   UNL     1      -3.823  -3.165  24.162  0.00  0.00    +0.004 A 
ATOM     22  C   UNL     1      -4.709  -0.933  23.905  0.00  0.00    +0.004 A 
ATOM     23  C   UNL     1      -4.735  -2.288  23.575  0.00  0.00    +0.000 A 
ENDBRANCH   3  14
ENDBRANCH   6   3
TORSDOF 2
ENDMDL
