MODEL 1
REMARK VINA RESULT:       7.0      0.000      0.000
REMARK  Name = 11911786
REMARK  7 active torsions:
REMARK  status: ('A' for Active; 'I' for Inactive)
REMARK    1  A    between atoms: N_4  and  C_11
REMARK    2  A    between atoms: N_5  and  C_12
REMARK    3  A    between atoms: N_8  and  C_30
REMARK    4  A    between atoms: N_8  and  C_31
REMARK    5  A    between atoms: N_8  and  C_32
REMARK    6  A    between atoms: C_15  and  C_21
REMARK    7  A    between atoms: C_22  and  C_24
REMARK                            x       y       z     vdW  Elec       q    Type
REMARK                         _______ _______ _______ _____ _____    ______ ____
ROOT
ATOM      1  O   UNL     1      -4.197  -1.671  23.502  0.00  0.00    -0.370 OA
ATOM      2  O   UNL     1      -2.862  -0.912  26.218  0.00  0.00    -0.370 OA
ATOM      9  C   UNL     1      -3.150  -0.169  25.021  0.00  0.00    +0.171 C 
ATOM     10  C   UNL     1      -2.923  -1.102  23.848  0.00  0.00    +0.171 C 
ATOM     11  C   UNL     1      -4.622   0.163  24.951  0.00  0.00    +0.130 C 
ATOM     12  C   UNL     1      -2.003  -2.168  24.398  0.00  0.00    +0.130 C 
ATOM     13  C   UNL     1      -5.215  -1.087  24.328  0.00  0.00    +0.185 C 
ATOM     14  C   UNL     1      -2.409  -2.225  25.860  0.00  0.00    +0.185 C 
ENDROOT
BRANCH  11   4
ATOM      4  N   UNL     1      -4.831   1.302  24.085  0.00  0.00    -0.306 N 
ATOM      6  N   UNL     1      -3.080   2.514  25.070  0.00  0.00    -0.219 NA
ATOM      7  N   UNL     1      -4.375   3.454  23.267  0.00  0.00    -0.223 NA
ATOM     20  C   UNL     1      -4.073   2.458  24.142  0.00  0.00    +0.216 A 
ATOM     21  C   UNL     1      -2.360   3.654  25.098  0.00  0.00    +0.049 A 
ATOM     23  C   UNL     1      -2.584   4.724  24.256  0.00  0.00    +0.043 A 
ATOM     25  C   UNL     1      -3.615   4.566  23.351  0.00  0.00    +0.116 A 
ATOM     33  H   UNL     1      -5.534   1.250  23.355  0.00  0.00    +0.149 HD
BRANCH  21  15
ATOM     15  C   UNL     1      -1.248   3.734  26.128  0.00  0.00    +0.038 C 
ATOM     16  C   UNL     1       0.187   3.857  25.595  0.00  0.00    +0.010 C 
ATOM     17  C   UNL     1      -1.172   2.469  26.990  0.00  0.00    +0.010 C 
ATOM     18  C   UNL     1       0.739   2.431  25.502  0.00  0.00    +0.001 C 
ATOM     19  C   UNL     1      -0.276   1.528  26.196  0.00  0.00    +0.001 C 
ENDBRANCH  21  15
ENDBRANCH  11   4
BRANCH  12   5
ATOM      3  O   UNL     1      -0.982   0.057  22.897  0.00  0.00    -0.270 OA
ATOM      5  N   UNL     1      -0.619  -1.788  24.254  0.00  0.00    -0.304 N 
ATOM     22  C   UNL     1      -0.220  -0.690  23.503  0.00  0.00    +0.244 C 
ATOM     34  H   UNL     1       0.074  -2.426  24.632  0.00  0.00    +0.149 HD
BRANCH  22  24
ATOM     24  C   UNL     1       1.243  -0.449  23.431  0.00  0.00    +0.037 A 
ATOM     26  C   UNL     1       1.696   0.769  22.968  0.00  0.00    +0.015 A 
ATOM     27  C   UNL     1       2.105  -1.450  23.832  0.00  0.00    +0.015 A 
ATOM     28  C   UNL     1       3.071   0.996  22.902  0.00  0.00    +0.024 A 
ATOM     29  C   UNL     1       3.479  -1.223  23.766  0.00  0.00    +0.024 A 
ATOM     30  C   UNL     1       3.962  -0.000  23.302  0.00  0.00    +0.029 A 
BRANCH  30   8
ATOM      8  N   UNL     1       5.352   0.230  23.237  0.00  0.00    -0.336 N 
ATOM     31  C   UNL     1       6.165  -0.460  22.255  0.00  0.00    +0.129 C 
ATOM     32  C   UNL     1       5.988   1.148  24.160  0.00  0.00    +0.129 C 
ENDBRANCH  30   8
ENDBRANCH  22  24
ENDBRANCH  12   5
TORSDOF 5
ENDMDL
MODEL 2
REMARK VINA RESULT:       7.6      1.649      2.284
REMARK  Name = 11911786
REMARK  7 active torsions:
REMARK  status: ('A' for Active; 'I' for Inactive)
REMARK    1  A    between atoms: N_4  and  C_11
REMARK    2  A    between atoms: N_5  and  C_12
REMARK    3  A    between atoms: N_8  and  C_30
REMARK    4  A    between atoms: N_8  and  C_31
REMARK    5  A    between atoms: N_8  and  C_32
REMARK    6  A    between atoms: C_15  and  C_21
REMARK    7  A    between atoms: C_22  and  C_24
REMARK                            x       y       z     vdW  Elec       q    Type
REMARK                         _______ _______ _______ _____ _____    ______ ____
ROOT
ATOM      1  O   UNL     1      -5.797   1.134  23.757  0.00  0.00    -0.370 OA
ATOM      2  O   UNL     1      -4.274  -0.316  26.064  0.00  0.00    -0.370 OA
ATOM      9  C   UNL     1      -4.342   1.057  25.638  0.00  0.00    +0.171 C 
ATOM     10  C   UNL     1      -4.409   1.054  24.124  0.00  0.00    +0.171 C 
ATOM     11  C   UNL     1      -5.652   1.674  26.066  0.00  0.00    +0.130 C 
ATOM     12  C   UNL     1      -3.838  -0.289  23.732  0.00  0.00    +0.130 C 
ATOM     13  C   UNL     1      -6.591   1.271  24.945  0.00  0.00    +0.185 C 
ATOM     14  C   UNL     1      -4.230  -1.165  24.908  0.00  0.00    +0.185 C 
ENDROOT
BRANCH  11   4
ATOM      4  N   UNL     1      -5.526   3.113  26.121  0.00  0.00    -0.306 N 
ATOM      6  N   UNL     1      -3.255   3.048  25.535  0.00  0.00    -0.219 NA
ATOM      7  N   UNL     1      -4.366   5.147  25.944  0.00  0.00    -0.223 NA
ATOM     20  C   UNL     1      -4.347   3.789  25.859  0.00  0.00    +0.216 A 
ATOM     21  C   UNL     1      -2.123   3.738  25.286  0.00  0.00    +0.049 A 
ATOM     23  C   UNL     1      -2.036   5.114  25.345  0.00  0.00    +0.043 A 
ATOM     25  C   UNL     1      -3.200   5.773  25.682  0.00  0.00    +0.116 A 
ATOM     33  H   UNL     1      -6.347   3.679  26.309  0.00  0.00    +0.149 HD
BRANCH  21  15
ATOM     15  C   UNL     1      -0.893   2.925  24.923  0.00  0.00    +0.038 C 
ATOM     16  C   UNL     1      -0.873   1.456  25.368  0.00  0.00    +0.010 C 
ATOM     17  C   UNL     1       0.376   3.484  25.577  0.00  0.00    +0.010 C 
ATOM     18  C   UNL     1      -0.168   1.423  26.728  0.00  0.00    +0.001 C 
ATOM     19  C   UNL     1       0.420   2.814  26.944  0.00  0.00    +0.001 C 
ENDBRANCH  21  15
ENDBRANCH  11   4
BRANCH  12   5
ATOM      3  O   UNL     1      -1.959  -2.394  24.267  0.00  0.00    -0.270 OA
ATOM      5  N   UNL     1      -2.404  -0.223  23.583  0.00  0.00    -0.304 N 
ATOM     22  C   UNL     1      -1.574  -1.299  23.868  0.00  0.00    +0.244 C 
ATOM     34  H   UNL     1      -2.007   0.686  23.368  0.00  0.00    +0.149 HD
BRANCH  22  24
ATOM     24  C   UNL     1      -0.119  -1.061  23.690  0.00  0.00    +0.037 A 
ATOM     26  C   UNL     1       0.771  -1.736  24.500  0.00  0.00    +0.015 A 
ATOM     27  C   UNL     1       0.298  -0.175  22.717  0.00  0.00    +0.015 A 
ATOM     28  C   UNL     1       2.137  -1.514  24.331  0.00  0.00    +0.024 A 
ATOM     29  C   UNL     1       1.664   0.046  22.549  0.00  0.00    +0.024 A 
ATOM     30  C   UNL     1       2.584  -0.623  23.355  0.00  0.00    +0.029 A 
BRANCH  30   8
ATOM      8  N   UNL     1       3.966  -0.400  23.184  0.00  0.00    -0.336 N 
ATOM     31  C   UNL     1       4.934  -1.242  23.859  0.00  0.00    +0.129 C 
ATOM     32  C   UNL     1       4.436   0.681  22.341  0.00  0.00    +0.129 C 
ENDBRANCH  30   8
ENDBRANCH  22  24
ENDBRANCH  12   5
TORSDOF 5
ENDMDL
