MODEL 1
REMARK VINA RESULT:       8.9      0.000      0.000
REMARK  Name = 7155575
REMARK  3 active torsions:
REMARK  status: ('A' for Active; 'I' for Inactive)
REMARK    1  A    between atoms: N_7  and  C_20
REMARK    2  A    between atoms: N_9  and  C_28
REMARK    3  A    between atoms: C_19  and  C_22
REMARK                            x       y       z     vdW  Elec       q    Type
REMARK                         _______ _______ _______ _____ _____    ______ ____
ROOT
ATOM      2  O   UNL     1      -0.695   3.115  25.984  0.00  0.00    -0.266 OA
ATOM      3  O   UNL     1      -3.782  -0.838  27.253  0.00  0.00    -0.270 OA
ATOM      5  N   UNL     1      -4.873   0.414  25.605  0.00  0.00    -0.297 N 
ATOM      6  N   UNL     1      -2.709   2.626  24.906  0.00  0.00    -0.310 N 
ATOM     10  C   UNL     1      -4.987   2.860  26.055  0.00  0.00    +0.027 C 
ATOM     11  C   UNL     1      -4.863   2.048  23.735  0.00  0.00    +0.054 C 
ATOM     12  C   UNL     1      -5.517   3.087  24.644  0.00  0.00    +0.018 C 
ATOM     13  C   UNL     1      -5.338   1.441  26.539  0.00  0.00    +0.113 C 
ATOM     14  C   UNL     1      -3.474   3.115  26.062  0.00  0.00    +0.130 C 
ATOM     15  C   UNL     1      -5.258   0.632  24.201  0.00  0.00    +0.117 C 
ATOM     16  C   UNL     1      -3.353   2.186  23.745  0.00  0.00    +0.027 A 
ATOM     17  C   UNL     1      -2.636   1.854  22.658  0.00  0.00    +0.024 A 
ATOM     18  C   UNL     1      -1.305   2.718  24.990  0.00  0.00    +0.273 A 
ATOM     19  C   UNL     1      -4.106  -0.651  26.081  0.00  0.00    +0.248 C 
ATOM     20  C   UNL     1      -0.542   2.312  23.768  0.00  0.00    +0.100 A 
ATOM     21  C   UNL     1      -1.202   1.918  22.673  0.00  0.00    +0.030 A 
ENDROOT
BRANCH  20   7
ATOM      4  O   UNL     1       1.252   0.239  23.009  0.00  0.00    -0.252 OA
ATOM      7  N   UNL     1       0.820   2.370  23.816  0.00  0.00    -0.265 N 
ATOM      9  N   UNL     1       3.001   1.689  23.596  0.00  0.00    -0.269 N 
ATOM     25  C   UNL     1       1.662   1.319  23.429  0.00  0.00    +0.308 C 
ATOM     34  H   UNL     1       1.231   3.108  24.382  0.00  0.00    +0.157 HD
ATOM     35  H   UNL     1       3.172   2.625  23.954  0.00  0.00    +0.156 HD
BRANCH   9  28
ATOM      1 CL   UNL     1       7.824  -1.524  22.459  0.00  0.00    -0.084 Cl
ATOM     28  C   UNL     1       4.156   0.919  23.324  0.00  0.00    +0.035 A 
ATOM     29  C   UNL     1       5.044   0.643  24.351  0.00  0.00    +0.025 A 
ATOM     30  C   UNL     1       4.375   0.459  22.036  0.00  0.00    +0.025 A 
ATOM     31  C   UNL     1       6.183  -0.116  24.082  0.00  0.00    +0.022 A 
ATOM     32  C   UNL     1       5.515  -0.301  21.768  0.00  0.00    +0.022 A 
ATOM     33  C   UNL     1       6.419  -0.588  22.791  0.00  0.00    +0.041 A 
ENDBRANCH   9  28
ENDBRANCH  20   7
BRANCH  19  22
ATOM      8  N   UNL     1      -1.756  -2.805  24.121  0.00  0.00    -0.263 NA
ATOM     22  C   UNL     1      -3.620  -1.635  25.110  0.00  0.00    +0.055 A 
ATOM     23  C   UNL     1      -4.502  -2.315  24.283  0.00  0.00    +0.016 A 
ATOM     24  C   UNL     1      -2.269  -1.910  24.995  0.00  0.00    +0.123 A 
ATOM     26  C   UNL     1      -4.012  -3.243  23.371  0.00  0.00    +0.020 A 
ATOM     27  C   UNL     1      -2.643  -3.450  23.330  0.00  0.00    +0.111 A 
ENDBRANCH  19  22
TORSDOF 3
ENDMDL
