MODEL 1
REMARK VINA RESULT:       1.7      0.000      0.000
REMARK  Name = 45783599
REMARK  7 active torsions:
REMARK  status: ('A' for Active; 'I' for Inactive)
REMARK    1  A    between atoms: S_1  and  N_8
REMARK    2  A    between atoms: S_1  and  C_30
REMARK    3  A    between atoms: N_5  and  C_15
REMARK    4  A    between atoms: C_11  and  C_16
REMARK    5  A    between atoms: C_15  and  C_17
REMARK    6  A    between atoms: C_20  and  C_21
REMARK    7  A    between atoms: C_24  and  C_29
REMARK                            x       y       z     vdW  Elec       q    Type
REMARK                         _______ _______ _______ _____ _____    ______ ____
ROOT
ATOM      2  O   UNL     1      -2.143   3.682  24.697  0.00  0.00    -0.336 OA
ATOM      6  N   UNL     1      -2.345   1.757  23.571  0.00  0.00    -0.190 NA
ATOM      7  N   UNL     1      -0.841   3.200  24.514  0.00  0.00    -0.056 NA
ATOM     16  C   UNL     1      -2.966   2.774  24.113  0.00  0.00    +0.245 A 
ATOM     20  C   UNL     1      -1.043   2.062  23.843  0.00  0.00    +0.202 A 
ENDROOT
BRANCH  20  21
ATOM      8  N   UNL     1       3.565   0.495  24.235  0.00  0.00    -0.204 N 
ATOM      9  N   UNL     1       2.130  -0.455  22.623  0.00  0.00    -0.239 NA
ATOM     21  C   UNL     1       0.032   1.208  23.430  0.00  0.00    +0.027 A 
ATOM     25  C   UNL     1       1.271   1.291  24.058  0.00  0.00    +0.056 A 
ATOM     26  C   UNL     1      -0.158   0.293  22.400  0.00  0.00    +0.031 A 
ATOM     27  C   UNL     1       2.278   0.445  23.620  0.00  0.00    +0.138 A 
ATOM     28  C   UNL     1       0.912  -0.508  22.037  0.00  0.00    +0.113 A 
ATOM     31  H   UNL     1       3.642   1.116  25.051  0.00  0.00    +0.175 HD
BRANCH   8   1
ATOM      1  S   UNL     1       4.955   0.372  23.225  0.00  0.00    +0.041 S 
ATOM      3  O   UNL     1       4.525   0.462  21.842  0.00  0.00    -0.155 OA
ATOM      4  O   UNL     1       6.029   1.210  23.718  0.00  0.00    -0.155 OA
ATOM     30  C   UNL     1       5.407  -1.323  23.516  0.00  0.00    +0.218 C 
ENDBRANCH   8   1
ENDBRANCH  20  21
BRANCH  16  11
ATOM      5  N   UNL     1      -5.125   2.366  25.282  0.00  0.00    -0.287 NA
ATOM     11  C   UNL     1      -4.450   3.070  24.174  0.00  0.00    +0.146 C 
ATOM     12  C   UNL     1      -4.749   4.561  24.418  0.00  0.00    +0.030 C 
ATOM     13  C   UNL     1      -5.646   4.591  25.648  0.00  0.00    +0.017 C 
ATOM     14  C   UNL     1      -6.258   3.205  25.676  0.00  0.00    +0.085 C 
BRANCH   5  15
ATOM     15  C   UNL     1      -5.540   1.013  24.935  0.00  0.00    +0.120 C 
BRANCH  15  17
ATOM     17  C   UNL     1      -4.385   0.047  24.965  0.00  0.00    -0.033 A 
ATOM     18  C   UNL     1      -4.281  -0.948  23.993  0.00  0.00    +0.006 A 
ATOM     19  C   UNL     1      -3.417   0.148  25.966  0.00  0.00    +0.006 A 
ATOM     22  C   UNL     1      -3.212  -1.842  24.021  0.00  0.00    +0.019 A 
ATOM     23  C   UNL     1      -2.348  -0.746  25.993  0.00  0.00    +0.019 A 
ATOM     24  C   UNL     1      -2.245  -1.741  25.021  0.00  0.00    +0.052 A 
BRANCH  24  29
ATOM     10  N   UNL     1      -0.257  -3.400  25.074  0.00  0.00    -0.191 NA
ATOM     29  C   UNL     1      -1.148  -2.656  25.050  0.00  0.00    +0.099 C 
ENDBRANCH  24  29
ENDBRANCH  15  17
ENDBRANCH   5  15
ENDBRANCH  16  11
TORSDOF 6
ENDMDL
MODEL 2
REMARK VINA RESULT:       2.2      1.964      4.230
REMARK  Name = 45783599
REMARK  7 active torsions:
REMARK  status: ('A' for Active; 'I' for Inactive)
REMARK    1  A    between atoms: S_1  and  N_8
REMARK    2  A    between atoms: S_1  and  C_30
REMARK    3  A    between atoms: N_5  and  C_15
REMARK    4  A    between atoms: C_11  and  C_16
REMARK    5  A    between atoms: C_15  and  C_17
REMARK    6  A    between atoms: C_20  and  C_21
REMARK    7  A    between atoms: C_24  and  C_29
REMARK                            x       y       z     vdW  Elec       q    Type
REMARK                         _______ _______ _______ _____ _____    ______ ____
ROOT
ATOM      2  O   UNL     1      -2.041  -0.367  26.289  0.00  0.00    -0.336 OA
ATOM      6  N   UNL     1      -1.438  -0.738  24.164  0.00  0.00    -0.190 NA
ATOM      7  N   UNL     1      -0.812   0.281  26.113  0.00  0.00    -0.056 NA
ATOM     16  C   UNL     1      -2.336  -0.942  25.094  0.00  0.00    +0.245 A 
ATOM     20  C   UNL     1      -0.522   0.017  24.836  0.00  0.00    +0.202 A 
ENDROOT
BRANCH  20  21
ATOM      8  N   UNL     1       3.962  -0.739  23.056  0.00  0.00    -0.204 N 
ATOM      9  N   UNL     1       3.006   1.415  22.969  0.00  0.00    -0.239 NA
ATOM     21  C   UNL     1       0.674   0.490  24.202  0.00  0.00    +0.027 A 
ATOM     25  C   UNL     1       1.724  -0.386  23.949  0.00  0.00    +0.056 A 
ATOM     26  C   UNL     1       0.789   1.828  23.838  0.00  0.00    +0.031 A 
ATOM     27  C   UNL     1       2.859   0.123  23.336  0.00  0.00    +0.138 A 
ATOM     28  C   UNL     1       1.965   2.236  23.230  0.00  0.00    +0.113 A 
ATOM     31  H   UNL     1       3.806  -1.736  23.254  0.00  0.00    +0.175 HD
BRANCH   8   1
ATOM      1  S   UNL     1       5.553  -0.138  23.326  0.00  0.00    +0.041 S 
ATOM      3  O   UNL     1       6.345  -0.386  22.135  0.00  0.00    -0.155 OA
ATOM      4  O   UNL     1       5.514   1.182  23.922  0.00  0.00    -0.155 OA
ATOM     30  C   UNL     1       6.115  -1.281  24.566  0.00  0.00    +0.218 C 
ENDBRANCH   8   1
ENDBRANCH  20  21
BRANCH  16  11
ATOM      5  N   UNL     1      -4.497  -1.273  23.905  0.00  0.00    -0.287 NA
ATOM     11  C   UNL     1      -3.637  -1.715  25.020  0.00  0.00    +0.146 C 
ATOM     12  C   UNL     1      -3.421  -3.220  24.777  0.00  0.00    +0.030 C 
ATOM     13  C   UNL     1      -4.246  -3.544  23.539  0.00  0.00    +0.017 C 
ATOM     14  C   UNL     1      -5.283  -2.440  23.502  0.00  0.00    +0.085 C 
BRANCH   5  15
ATOM     15  C   UNL     1      -5.341  -0.135  24.245  0.00  0.00    +0.120 C 
BRANCH  15  17
ATOM     17  C   UNL     1      -4.535   1.120  24.447  0.00  0.00    -0.033 A 
ATOM     18  C   UNL     1      -4.759   1.923  25.566  0.00  0.00    +0.006 A 
ATOM     19  C   UNL     1      -3.560   1.481  23.515  0.00  0.00    +0.006 A 
ATOM     22  C   UNL     1      -4.012   3.085  25.753  0.00  0.00    +0.019 A 
ATOM     23  C   UNL     1      -2.813   2.644  23.702  0.00  0.00    +0.019 A 
ATOM     24  C   UNL     1      -3.039   3.446  24.821  0.00  0.00    +0.052 A 
BRANCH  24  29
ATOM     10  N   UNL     1      -1.650   5.603  25.167  0.00  0.00    -0.191 NA
ATOM     29  C   UNL     1      -2.273   4.636  25.012  0.00  0.00    +0.099 C 
ENDBRANCH  24  29
ENDBRANCH  15  17
ENDBRANCH   5  15
ENDBRANCH  16  11
TORSDOF 6
ENDMDL
MODEL 3
REMARK VINA RESULT:       3.9      3.109      7.841
REMARK  Name = 45783599
REMARK  7 active torsions:
REMARK  status: ('A' for Active; 'I' for Inactive)
REMARK    1  A    between atoms: S_1  and  N_8
REMARK    2  A    between atoms: S_1  and  C_30
REMARK    3  A    between atoms: N_5  and  C_15
REMARK    4  A    between atoms: C_11  and  C_16
REMARK    5  A    between atoms: C_15  and  C_17
REMARK    6  A    between atoms: C_20  and  C_21
REMARK    7  A    between atoms: C_24  and  C_29
REMARK                            x       y       z     vdW  Elec       q    Type
REMARK                         _______ _______ _______ _____ _____    ______ ____
ROOT
ATOM      2  O   UNL     1       1.189  -1.700  24.454  0.00  0.00    -0.336 OA
ATOM      6  N   UNL     1      -0.091  -0.237  23.342  0.00  0.00    -0.190 NA
ATOM      7  N   UNL     1      -0.125  -1.933  24.878  0.00  0.00    -0.056 NA
ATOM     16  C   UNL     1       1.120  -0.687  23.551  0.00  0.00    +0.245 A 
ATOM     20  C   UNL     1      -0.821  -1.032  24.178  0.00  0.00    +0.202 A 
ENDROOT
BRANCH  20  21
ATOM      8  N   UNL     1      -4.868   1.700  24.260  0.00  0.00    -0.204 N 
ATOM      9  N   UNL     1      -5.019  -0.640  24.515  0.00  0.00    -0.239 NA
ATOM     21  C   UNL     1      -2.244  -0.899  24.291  0.00  0.00    +0.027 A 
ATOM     25  C   UNL     1      -2.837   0.357  24.215  0.00  0.00    +0.056 A 
ATOM     26  C   UNL     1      -3.038  -2.025  24.478  0.00  0.00    +0.031 A 
ATOM     27  C   UNL     1      -4.216   0.431  24.333  0.00  0.00    +0.138 A 
ATOM     28  C   UNL     1      -4.408  -1.844  24.583  0.00  0.00    +0.113 A 
ATOM     31  H   UNL     1      -4.260   2.497  24.030  0.00  0.00    +0.175 HD
BRANCH   8   1
ATOM      1  S   UNL     1      -6.169   2.009  25.345  0.00  0.00    +0.041 S 
ATOM      3  O   UNL     1      -7.417   1.799  24.634  0.00  0.00    -0.155 OA
ATOM      4  O   UNL     1      -5.937   1.374  26.627  0.00  0.00    -0.155 OA
ATOM     30  C   UNL     1      -5.988   3.764  25.563  0.00  0.00    +0.218 C 
ENDBRANCH   8   1
ENDBRANCH  20  21
BRANCH  16  11
ATOM      5  N   UNL     1       3.001   0.941  23.608  0.00  0.00    -0.287 NA
ATOM     11  C   UNL     1       2.429  -0.242  22.935  0.00  0.00    +0.146 C 
ATOM     12  C   UNL     1       3.528  -1.316  23.031  0.00  0.00    +0.030 C 
ATOM     13  C   UNL     1       4.698  -0.627  23.720  0.00  0.00    +0.017 C 
ATOM     14  C   UNL     1       4.453   0.844  23.454  0.00  0.00    +0.085 C 
BRANCH   5  15
ATOM     15  C   UNL     1       2.478   2.202  23.098  0.00  0.00    +0.120 C 
BRANCH  15  17
ATOM     17  C   UNL     1       1.252   2.647  23.849  0.00  0.00    -0.033 A 
ATOM     18  C   UNL     1       0.937   2.067  25.079  0.00  0.00    +0.006 A 
ATOM     19  C   UNL     1       0.430   3.640  23.316  0.00  0.00    +0.006 A 
ATOM     22  C   UNL     1      -0.198   2.479  25.774  0.00  0.00    +0.019 A 
ATOM     23  C   UNL     1      -0.707   4.052  24.012  0.00  0.00    +0.019 A 
ATOM     24  C   UNL     1      -1.021   3.471  25.241  0.00  0.00    +0.052 A 
BRANCH  24  29
ATOM     10  N   UNL     1      -3.131   4.239  26.532  0.00  0.00    -0.191 NA
ATOM     29  C   UNL     1      -2.185   3.894  25.953  0.00  0.00    +0.099 C 
ENDBRANCH  24  29
ENDBRANCH  15  17
ENDBRANCH   5  15
ENDBRANCH  16  11
TORSDOF 6
ENDMDL
