MODEL 1
REMARK VINA RESULT:      -1.9      0.000      0.000
REMARK  Name = 45784145
REMARK  10 active torsions:
REMARK  status: ('A' for Active; 'I' for Inactive)
REMARK    1  A    between atoms: N_3  and  C_15
REMARK    2  A    between atoms: C_8  and  C_12
REMARK    3  A    between atoms: C_9  and  C_15
REMARK    4  A    between atoms: C_11  and  C_16
REMARK    5  A    between atoms: C_12  and  C_17
REMARK    6  A    between atoms: C_12  and  C_18
REMARK    7  A    between atoms: C_13  and  C_19
REMARK    8  A    between atoms: C_16  and  C_20
REMARK    9  A    between atoms: C_21  and  C_23
REMARK   10  A    between atoms: C_22  and  C_24
REMARK                            x       y       z     vdW  Elec       q    Type
REMARK                         _______ _______ _______ _____ _____    ______ ____
ROOT
ATOM      8  C   UNL     1      -2.512   2.472  23.344  0.00  0.00    +0.000 C 
ATOM      9  C   UNL     1      -0.987   2.210  23.268  0.00  0.00    +0.032 C 
ATOM     10  C   UNL     1      -2.787   3.958  23.620  0.00  0.00    +0.012 C 
ATOM     11  C   UNL     1      -2.144   4.435  24.936  0.00  0.00    +0.024 C 
ATOM     13  C   UNL     1      -0.703   3.981  25.056  0.00  0.00    -0.073 C 
ATOM     14  C   UNL     1      -0.200   2.994  24.293  0.00  0.00    -0.022 C 
ATOM     19  C   UNL     1       0.160   4.718  26.042  0.00  0.00    +0.039 C 
ENDROOT
BRANCH   8  12
ATOM     12  C   UNL     1      -3.228   2.042  22.060  0.00  0.00    -0.013 C 
ATOM     17  C   UNL     1      -4.128   3.163  21.550  0.00  0.00    +0.007 C 
ATOM     18  C   UNL     1      -2.213   1.637  20.996  0.00  0.00    +0.007 C 
ENDBRANCH   8  12
BRANCH   9  15
ATOM     15  C   UNL     1      -0.674   0.716  23.418  0.00  0.00    +0.112 C 
BRANCH  15   3
ATOM      2  O   UNL     1       1.239  -0.300  21.534  0.00  0.00    -0.269 OA
ATOM      3  N   UNL     1       0.722   0.510  23.646  0.00  0.00    -0.310 N 
ATOM     21  C   UNL     1       1.584   0.010  22.671  0.00  0.00    +0.262 C 
ATOM     33  H   UNL     1       1.110   0.776  24.547  0.00  0.00    +0.149 HD
BRANCH  21  23
ATOM      6  N   UNL     1       3.321  -1.386  23.573  0.00  0.00    -0.250 NA
ATOM     23  C   UNL     1       3.003  -0.170  23.074  0.00  0.00    +0.125 A 
ATOM     25  C   UNL     1       3.907   0.870  22.929  0.00  0.00    +0.033 A 
ATOM     28  C   UNL     1       5.222   0.648  23.320  0.00  0.00    +0.004 A 
ATOM     29  C   UNL     1       4.609  -1.564  23.943  0.00  0.00    +0.111 A 
ATOM     30  C   UNL     1       5.588  -0.589  23.839  0.00  0.00    +0.020 A 
ENDBRANCH  21  23
ENDBRANCH  15   3
ENDBRANCH   9  15
BRANCH  11  16
ATOM     16  C   UNL     1      -2.966   3.983  26.148  0.00  0.00    +0.105 C 
BRANCH  16  20
ATOM      1  O   UNL     1      -3.270   1.625  25.600  0.00  0.00    -0.420 OA
ATOM      4  N   UNL     1      -5.171   2.805  25.661  0.00  0.00    -0.112 NA
ATOM      5  N   UNL     1      -5.489   1.498  25.342  0.00  0.00    -0.107 NA
ATOM     20  C   UNL     1      -3.866   2.832  25.804  0.00  0.00    +0.218 A 
ATOM     22  C   UNL     1      -4.351   0.846  25.317  0.00  0.00    +0.248 A 
BRANCH  22  24
ATOM      7  N   UNL     1      -3.534  -3.224  24.508  0.00  0.00    -0.263 NA
ATOM     24  C   UNL     1      -4.074  -0.534  25.043  0.00  0.00    +0.041 A 
ATOM     26  C   UNL     1      -4.527  -1.116  23.864  0.00  0.00    +0.033 A 
ATOM     27  C   UNL     1      -3.352  -1.297  25.955  0.00  0.00    +0.033 A 
ATOM     31  C   UNL     1      -4.232  -2.452  23.645  0.00  0.00    +0.111 A 
ATOM     32  C   UNL     1      -3.111  -2.624  25.642  0.00  0.00    +0.111 A 
ENDBRANCH  22  24
ENDBRANCH  16  20
ENDBRANCH  11  16
TORSDOF 7
ENDMDL
MODEL 2
REMARK VINA RESULT:      -1.6      1.766      4.774
REMARK  Name = 45784145
REMARK  10 active torsions:
REMARK  status: ('A' for Active; 'I' for Inactive)
REMARK    1  A    between atoms: N_3  and  C_15
REMARK    2  A    between atoms: C_8  and  C_12
REMARK    3  A    between atoms: C_9  and  C_15
REMARK    4  A    between atoms: C_11  and  C_16
REMARK    5  A    between atoms: C_12  and  C_17
REMARK    6  A    between atoms: C_12  and  C_18
REMARK    7  A    between atoms: C_13  and  C_19
REMARK    8  A    between atoms: C_16  and  C_20
REMARK    9  A    between atoms: C_21  and  C_23
REMARK   10  A    between atoms: C_22  and  C_24
REMARK                            x       y       z     vdW  Elec       q    Type
REMARK                         _______ _______ _______ _____ _____    ______ ____
ROOT
ATOM      8  C   UNL     1      -1.625  -0.154  24.974  0.00  0.00    +0.000 C 
ATOM      9  C   UNL     1      -1.025  -1.446  24.366  0.00  0.00    +0.032 C 
ATOM     10  C   UNL     1      -2.775  -0.496  25.934  0.00  0.00    +0.012 C 
ATOM     11  C   UNL     1      -3.904  -1.277  25.235  0.00  0.00    +0.024 C 
ATOM     13  C   UNL     1      -3.364  -2.415  24.392  0.00  0.00    -0.073 C 
ATOM     14  C   UNL     1      -2.072  -2.481  24.025  0.00  0.00    -0.022 C 
ATOM     19  C   UNL     1      -4.334  -3.501  24.019  0.00  0.00    +0.039 C 
ENDROOT
BRANCH   8  12
ATOM     12  C   UNL     1      -0.566   0.674  25.709  0.00  0.00    -0.013 C 
ATOM     17  C   UNL     1       0.173   1.583  24.731  0.00  0.00    +0.007 C 
ATOM     18  C   UNL     1      -1.209   1.491  26.824  0.00  0.00    +0.007 C 
ENDBRANCH   8  12
BRANCH   9  15
ATOM     15  C   UNL     1      -0.189  -1.134  23.119  0.00  0.00    +0.112 C 
BRANCH  15   3
ATOM      2  O   UNL     1       1.896  -0.212  21.374  0.00  0.00    -0.269 OA
ATOM      3  N   UNL     1       1.179  -0.914  23.467  0.00  0.00    -0.310 N 
ATOM     21  C   UNL     1       2.132  -0.463  22.554  0.00  0.00    +0.262 C 
ATOM     33  H   UNL     1       1.463  -1.056  24.432  0.00  0.00    +0.149 HD
BRANCH  21  23
ATOM      6  N   UNL     1       4.044  -1.397  23.671  0.00  0.00    -0.250 NA
ATOM     23  C   UNL     1       3.517  -0.308  23.066  0.00  0.00    +0.125 A 
ATOM     25  C   UNL     1       4.189   0.894  22.911  0.00  0.00    +0.033 A 
ATOM     28  C   UNL     1       5.484   0.985  23.408  0.00  0.00    +0.004 A 
ATOM     29  C   UNL     1       5.305  -1.271  24.142  0.00  0.00    +0.111 A 
ATOM     30  C   UNL     1       6.060  -0.113  24.037  0.00  0.00    +0.020 A 
ENDBRANCH  21  23
ENDBRANCH  15   3
ENDBRANCH   9  15
BRANCH  11  16
ATOM     16  C   UNL     1      -4.784  -0.342  24.397  0.00  0.00    +0.105 C 
BRANCH  16  20
ATOM      1  O   UNL     1      -3.534   1.749  24.516  0.00  0.00    -0.420 OA
ATOM      4  N   UNL     1      -5.511   1.803  25.561  0.00  0.00    -0.112 NA
ATOM      5  N   UNL     1      -4.917   3.043  25.707  0.00  0.00    -0.107 NA
ATOM     20  C   UNL     1      -4.669   1.081  24.858  0.00  0.00    +0.218 A 
ATOM     22  C   UNL     1      -3.766   2.966  25.082  0.00  0.00    +0.248 A 
BRANCH  22  24
ATOM      7  N   UNL     1      -0.721   5.856  24.566  0.00  0.00    -0.263 NA
ATOM     24  C   UNL     1      -2.734   3.946  24.907  0.00  0.00    +0.041 A 
ATOM     26  C   UNL     1      -2.815   5.170  25.561  0.00  0.00    +0.033 A 
ATOM     27  C   UNL     1      -1.647   3.676  24.082  0.00  0.00    +0.033 A 
ATOM     31  C   UNL     1      -1.793   6.082  25.359  0.00  0.00    +0.111 A 
ATOM     32  C   UNL     1      -0.677   4.656  23.947  0.00  0.00    +0.111 A 
ENDBRANCH  22  24
ENDBRANCH  16  20
ENDBRANCH  11  16
TORSDOF 7
ENDMDL
MODEL 3
REMARK VINA RESULT:      -1.4      1.870      5.891
REMARK  Name = 45784145
REMARK  10 active torsions:
REMARK  status: ('A' for Active; 'I' for Inactive)
REMARK    1  A    between atoms: N_3  and  C_15
REMARK    2  A    between atoms: C_8  and  C_12
REMARK    3  A    between atoms: C_9  and  C_15
REMARK    4  A    between atoms: C_11  and  C_16
REMARK    5  A    between atoms: C_12  and  C_17
REMARK    6  A    between atoms: C_12  and  C_18
REMARK    7  A    between atoms: C_13  and  C_19
REMARK    8  A    between atoms: C_16  and  C_20
REMARK    9  A    between atoms: C_21  and  C_23
REMARK   10  A    between atoms: C_22  and  C_24
REMARK                            x       y       z     vdW  Elec       q    Type
REMARK                         _______ _______ _______ _____ _____    ______ ____
ROOT
ATOM      8  C   UNL     1      -3.982   3.264  25.347  0.00  0.00    +0.000 C 
ATOM      9  C   UNL     1      -3.690   3.732  23.900  0.00  0.00    +0.032 C 
ATOM     10  C   UNL     1      -3.273   4.177  26.359  0.00  0.00    +0.012 C 
ATOM     11  C   UNL     1      -1.746   4.200  26.152  0.00  0.00    +0.024 C 
ATOM     13  C   UNL     1      -1.379   4.391  24.695  0.00  0.00    -0.073 C 
ATOM     14  C   UNL     1      -2.263   4.190  23.703  0.00  0.00    -0.022 C 
ATOM     19  C   UNL     1       0.019   4.862  24.406  0.00  0.00    +0.039 C 
ENDROOT
BRANCH   8  12
ATOM     12  C   UNL     1      -5.485   3.232  25.643  0.00  0.00    -0.013 C 
ATOM     17  C   UNL     1      -5.766   2.393  26.885  0.00  0.00    +0.007 C 
ATOM     18  C   UNL     1      -6.023   4.649  25.813  0.00  0.00    +0.007 C 
ENDBRANCH   8  12
BRANCH   9  15
ATOM     15  C   UNL     1      -4.017   2.629  22.886  0.00  0.00    +0.112 C 
BRANCH  15   3
ATOM      2  O   UNL     1      -5.824   0.730  24.058  0.00  0.00    -0.269 OA
ATOM      3  N   UNL     1      -3.681   1.342  23.410  0.00  0.00    -0.310 N 
ATOM     21  C   UNL     1      -4.625   0.479  23.965  0.00  0.00    +0.262 C 
ATOM     33  H   UNL     1      -2.718   1.027  23.341  0.00  0.00    +0.149 HD
BRANCH  21  23
ATOM      6  N   UNL     1      -4.120  -1.845  23.616  0.00  0.00    -0.250 NA
ATOM     23  C   UNL     1      -4.112  -0.813  24.489  0.00  0.00    +0.125 A 
ATOM     25  C   UNL     1      -3.662  -0.906  25.797  0.00  0.00    +0.033 A 
ATOM     28  C   UNL     1      -3.191  -2.137  26.237  0.00  0.00    +0.004 A 
ATOM     29  C   UNL     1      -3.655  -3.027  24.080  0.00  0.00    +0.111 A 
ATOM     30  C   UNL     1      -3.184  -3.223  25.369  0.00  0.00    +0.020 A 
ENDBRANCH  21  23
ENDBRANCH  15   3
ENDBRANCH   9  15
BRANCH  11  16
ATOM     16  C   UNL     1      -1.093   2.937  26.724  0.00  0.00    +0.105 C 
BRANCH  16  20
ATOM      1  O   UNL     1       0.388   1.974  25.040  0.00  0.00    -0.420 OA
ATOM      4  N   UNL     1      -1.604   0.966  25.194  0.00  0.00    -0.112 NA
ATOM      5  N   UNL     1      -0.875   0.323  24.211  0.00  0.00    -0.107 NA
ATOM     20  C   UNL     1      -0.828   1.921  25.651  0.00  0.00    +0.218 A 
ATOM     22  C   UNL     1       0.280   0.945  24.155  0.00  0.00    +0.248 A 
BRANCH  22  24
ATOM      7  N   UNL     1       3.653   0.259  21.698  0.00  0.00    -0.263 NA
ATOM     24  C   UNL     1       1.424   0.712  23.322  0.00  0.00    +0.041 A 
ATOM     26  C   UNL     1       2.620   1.374  23.577  0.00  0.00    +0.033 A 
ATOM     27  C   UNL     1       1.342  -0.176  22.255  0.00  0.00    +0.033 A 
ATOM     31  C   UNL     1       3.695   1.115  22.744  0.00  0.00    +0.111 A 
ATOM     32  C   UNL     1       2.475  -0.366  21.481  0.00  0.00    +0.111 A 
ENDBRANCH  22  24
ENDBRANCH  16  20
ENDBRANCH  11  16
TORSDOF 7
ENDMDL
MODEL 4
REMARK VINA RESULT:      -0.7      0.847      1.316
REMARK  Name = 45784145
REMARK  10 active torsions:
REMARK  status: ('A' for Active; 'I' for Inactive)
REMARK    1  A    between atoms: N_3  and  C_15
REMARK    2  A    between atoms: C_8  and  C_12
REMARK    3  A    between atoms: C_9  and  C_15
REMARK    4  A    between atoms: C_11  and  C_16
REMARK    5  A    between atoms: C_12  and  C_17
REMARK    6  A    between atoms: C_12  and  C_18
REMARK    7  A    between atoms: C_13  and  C_19
REMARK    8  A    between atoms: C_16  and  C_20
REMARK    9  A    between atoms: C_21  and  C_23
REMARK   10  A    between atoms: C_22  and  C_24
REMARK                            x       y       z     vdW  Elec       q    Type
REMARK                         _______ _______ _______ _____ _____    ______ ____
ROOT
ATOM      8  C   UNL     1      -2.434   2.689  23.546  0.00  0.00    +0.000 C 
ATOM      9  C   UNL     1      -0.959   2.373  23.900  0.00  0.00    +0.032 C 
ATOM     10  C   UNL     1      -2.861   4.025  24.170  0.00  0.00    +0.012 C 
ATOM     11  C   UNL     1      -2.717   4.024  25.704  0.00  0.00    +0.024 C 
ATOM     13  C   UNL     1      -1.376   3.470  26.143  0.00  0.00    -0.073 C 
ATOM     14  C   UNL     1      -0.599   2.746  25.319  0.00  0.00    -0.022 C 
ATOM     19  C   UNL     1      -0.929   3.806  27.538  0.00  0.00    +0.039 C 
ENDROOT
BRANCH   8  12
ATOM     12  C   UNL     1      -2.659   2.728  22.031  0.00  0.00    -0.013 C 
ATOM     17  C   UNL     1      -2.585   1.322  21.444  0.00  0.00    +0.007 C 
ATOM     18  C   UNL     1      -4.001   3.378  21.710  0.00  0.00    +0.007 C 
ENDBRANCH   8  12
BRANCH   9  15
ATOM     15  C   UNL     1      -0.637   0.893  23.663  0.00  0.00    +0.112 C 
BRANCH  15   3
ATOM      2  O   UNL     1       1.124  -0.253  21.706  0.00  0.00    -0.269 OA
ATOM      3  N   UNL     1       0.762   0.647  23.815  0.00  0.00    -0.310 N 
ATOM     21  C   UNL     1       1.547   0.084  22.809  0.00  0.00    +0.262 C 
ATOM     33  H   UNL     1       1.213   0.930  24.680  0.00  0.00    +0.149 HD
BRANCH  21  23
ATOM      6  N   UNL     1       3.300  -1.361  23.597  0.00  0.00    -0.250 NA
ATOM     23  C   UNL     1       2.981  -0.131  23.133  0.00  0.00    +0.125 A 
ATOM     25  C   UNL     1       3.898   0.892  22.953  0.00  0.00    +0.033 A 
ATOM     28  C   UNL     1       5.227   0.638  23.270  0.00  0.00    +0.004 A 
ATOM     29  C   UNL     1       4.602  -1.570  23.895  0.00  0.00    +0.111 A 
ATOM     30  C   UNL     1       5.594  -0.613  23.751  0.00  0.00    +0.020 A 
ENDBRANCH  21  23
ENDBRANCH  15   3
ENDBRANCH   9  15
BRANCH  11  16
ATOM     16  C   UNL     1      -3.871   3.263  26.367  0.00  0.00    +0.105 C 
BRANCH  16  20
ATOM      1  O   UNL     1      -3.561   0.994  25.523  0.00  0.00    -0.420 OA
ATOM      4  N   UNL     1      -5.390   2.021  24.742  0.00  0.00    -0.112 NA
ATOM      5  N   UNL     1      -5.340   0.756  24.188  0.00  0.00    -0.107 NA
ATOM     20  C   UNL     1      -4.333   2.116  25.515  0.00  0.00    +0.218 A 
ATOM     22  C   UNL     1      -4.258   0.193  24.670  0.00  0.00    +0.248 A 
BRANCH  22  24
ATOM      7  N   UNL     1      -2.628  -3.652  24.000  0.00  0.00    -0.263 NA
ATOM     24  C   UNL     1      -3.705  -1.111  24.443  0.00  0.00    +0.041 A 
ATOM     26  C   UNL     1      -2.406  -1.398  24.847  0.00  0.00    +0.033 A 
ATOM     27  C   UNL     1      -4.466  -2.093  23.818  0.00  0.00    +0.033 A 
ATOM     31  C   UNL     1      -1.919  -2.672  24.605  0.00  0.00    +0.111 A 
ATOM     32  C   UNL     1      -3.886  -3.335  23.622  0.00  0.00    +0.111 A 
ENDBRANCH  22  24
ENDBRANCH  16  20
ENDBRANCH  11  16
TORSDOF 7
ENDMDL
MODEL 5
REMARK VINA RESULT:       0.8      2.060      3.351
REMARK  Name = 45784145
REMARK  10 active torsions:
REMARK  status: ('A' for Active; 'I' for Inactive)
REMARK    1  A    between atoms: N_3  and  C_15
REMARK    2  A    between atoms: C_8  and  C_12
REMARK    3  A    between atoms: C_9  and  C_15
REMARK    4  A    between atoms: C_11  and  C_16
REMARK    5  A    between atoms: C_12  and  C_17
REMARK    6  A    between atoms: C_12  and  C_18
REMARK    7  A    between atoms: C_13  and  C_19
REMARK    8  A    between atoms: C_16  and  C_20
REMARK    9  A    between atoms: C_21  and  C_23
REMARK   10  A    between atoms: C_22  and  C_24
REMARK                            x       y       z     vdW  Elec       q    Type
REMARK                         _______ _______ _______ _____ _____    ______ ____
ROOT
ATOM      8  C   UNL     1      -1.685   3.955  24.647  0.00  0.00    +0.000 C 
ATOM      9  C   UNL     1      -1.974   3.345  26.042  0.00  0.00    +0.032 C 
ATOM     10  C   UNL     1      -2.689   5.074  24.333  0.00  0.00    +0.012 C 
ATOM     11  C   UNL     1      -4.146   4.573  24.355  0.00  0.00    +0.024 C 
ATOM     13  C   UNL     1      -4.433   3.730  25.581  0.00  0.00    -0.073 C 
ATOM     14  C   UNL     1      -3.450   3.200  26.330  0.00  0.00    -0.022 C 
ATOM     19  C   UNL     1      -5.878   3.546  25.953  0.00  0.00    +0.039 C 
ENDROOT
BRANCH   8  12
ATOM     12  C   UNL     1      -0.256   4.498  24.549  0.00  0.00    -0.013 C 
ATOM     17  C   UNL     1       0.317   4.240  23.159  0.00  0.00    +0.007 C 
ATOM     18  C   UNL     1      -0.229   5.987  24.876  0.00  0.00    +0.007 C 
ENDBRANCH   8  12
BRANCH   9  15
ATOM     15  C   UNL     1      -1.286   1.984  26.203  0.00  0.00    +0.112 C 
BRANCH  15   3
ATOM      2  O   UNL     1      -0.358  -0.557  25.241  0.00  0.00    -0.269 OA
ATOM      3  N   UNL     1      -0.347   1.762  25.148  0.00  0.00    -0.310 N 
ATOM     21  C   UNL     1       0.051   0.488  24.742  0.00  0.00    +0.262 C 
ATOM     33  H   UNL     1       0.017   2.566  24.646  0.00  0.00    +0.149 HD
BRANCH  21  23
ATOM      6  N   UNL     1       2.156   1.192  23.819  0.00  0.00    -0.250 NA
ATOM     23  C   UNL     1       1.054   0.427  23.648  0.00  0.00    +0.125 A 
ATOM     25  C   UNL     1       0.832  -0.377  22.542  0.00  0.00    +0.033 A 
ATOM     28  C   UNL     1       1.802  -0.398  21.547  0.00  0.00    +0.004 A 
ATOM     29  C   UNL     1       3.077   1.146  22.831  0.00  0.00    +0.111 A 
ATOM     30  C   UNL     1       2.949   0.375  21.686  0.00  0.00    +0.020 A 
ENDBRANCH  21  23
ENDBRANCH  15   3
ENDBRANCH   9  15
BRANCH  11  16
ATOM     16  C   UNL     1      -4.485   3.808  23.070  0.00  0.00    +0.105 C 
BRANCH  16  20
ATOM      1  O   UNL     1      -4.115   1.514  23.815  0.00  0.00    -0.420 OA
ATOM      4  N   UNL     1      -2.714   2.194  22.208  0.00  0.00    -0.112 NA
ATOM      5  N   UNL     1      -2.393   0.889  22.531  0.00  0.00    -0.107 NA
ATOM     20  C   UNL     1      -3.725   2.517  22.981  0.00  0.00    +0.218 A 
ATOM     22  C   UNL     1      -3.236   0.533  23.472  0.00  0.00    +0.248 A 
BRANCH  22  24
ATOM      7  N   UNL     1      -3.634  -3.120  25.565  0.00  0.00    -0.263 NA
ATOM     24  C   UNL     1      -3.371  -0.706  24.182  0.00  0.00    +0.041 A 
ATOM     26  C   UNL     1      -3.289  -0.728  25.570  0.00  0.00    +0.033 A 
ATOM     27  C   UNL     1      -3.583  -1.891  23.485  0.00  0.00    +0.033 A 
ATOM     31  C   UNL     1      -3.427  -1.949  26.208  0.00  0.00    +0.111 A 
ATOM     32  C   UNL     1      -3.707  -3.060  24.218  0.00  0.00    +0.111 A 
ENDBRANCH  22  24
ENDBRANCH  16  20
ENDBRANCH  11  16
TORSDOF 7
ENDMDL
MODEL 6
REMARK VINA RESULT:       1.9      1.829      2.313
REMARK  Name = 45784145
REMARK  10 active torsions:
REMARK  status: ('A' for Active; 'I' for Inactive)
REMARK    1  A    between atoms: N_3  and  C_15
REMARK    2  A    between atoms: C_8  and  C_12
REMARK    3  A    between atoms: C_9  and  C_15
REMARK    4  A    between atoms: C_11  and  C_16
REMARK    5  A    between atoms: C_12  and  C_17
REMARK    6  A    between atoms: C_12  and  C_18
REMARK    7  A    between atoms: C_13  and  C_19
REMARK    8  A    between atoms: C_16  and  C_20
REMARK    9  A    between atoms: C_21  and  C_23
REMARK   10  A    between atoms: C_22  and  C_24
REMARK                            x       y       z     vdW  Elec       q    Type
REMARK                         _______ _______ _______ _____ _____    ______ ____
ROOT
ATOM      8  C   UNL     1      -3.038   2.438  24.076  0.00  0.00    +0.000 C 
ATOM      9  C   UNL     1      -1.995   2.517  22.933  0.00  0.00    +0.032 C 
ATOM     10  C   UNL     1      -3.300   3.834  24.660  0.00  0.00    +0.012 C 
ATOM     11  C   UNL     1      -2.018   4.484  25.214  0.00  0.00    +0.024 C 
ATOM     13  C   UNL     1      -0.861   4.363  24.243  0.00  0.00    -0.073 C 
ATOM     14  C   UNL     1      -0.874   3.487  23.222  0.00  0.00    -0.022 C 
ATOM     19  C   UNL     1       0.294   5.303  24.446  0.00  0.00    +0.039 C 
ENDROOT
BRANCH   8  12
ATOM     12  C   UNL     1      -4.356   1.818  23.601  0.00  0.00    -0.013 C 
ATOM     17  C   UNL     1      -4.200   0.313  23.409  0.00  0.00    +0.007 C 
ATOM     18  C   UNL     1      -5.474   2.123  24.592  0.00  0.00    +0.007 C 
ENDBRANCH   8  12
BRANCH   9  15
ATOM     15  C   UNL     1      -1.407   1.134  22.625  0.00  0.00    +0.112 C 
BRANCH  15   3
ATOM      2  O   UNL     1       0.437  -0.932  21.868  0.00  0.00    -0.269 OA
ATOM      3  N   UNL     1       0.001   1.116  22.869  0.00  0.00    -0.310 N 
ATOM     21  C   UNL     1       0.828   0.068  22.465  0.00  0.00    +0.262 C 
ATOM     33  H   UNL     1       0.425   1.920  23.323  0.00  0.00    +0.149 HD
BRANCH  21  23
ATOM      6  N   UNL     1       2.856  -0.942  23.269  0.00  0.00    -0.250 NA
ATOM     23  C   UNL     1       2.266   0.188  22.817  0.00  0.00    +0.125 A 
ATOM     25  C   UNL     1       2.921   1.400  22.673  0.00  0.00    +0.033 A 
ATOM     28  C   UNL     1       4.267   1.458  23.016  0.00  0.00    +0.004 A 
ATOM     29  C   UNL     1       4.165  -0.847  23.593  0.00  0.00    +0.111 A 
ATOM     30  C   UNL     1       4.908   0.318  23.485  0.00  0.00    +0.020 A 
ENDBRANCH  21  23
ENDBRANCH  15   3
ENDBRANCH   9  15
BRANCH  11  16
ATOM     16  C   UNL     1      -1.650   3.900  26.583  0.00  0.00    +0.105 C 
BRANCH  16  20
ATOM      1  O   UNL     1      -1.968   1.546  26.025  0.00  0.00    -0.420 OA
ATOM      4  N   UNL     1       0.100   2.055  26.711  0.00  0.00    -0.112 NA
ATOM      5  N   UNL     1       0.063   0.701  26.431  0.00  0.00    -0.107 NA
ATOM     20  C   UNL     1      -1.106   2.507  26.459  0.00  0.00    +0.218 A 
ATOM     22  C   UNL     1      -1.162   0.449  26.034  0.00  0.00    +0.248 A 
BRANCH  22  24
ATOM      7  N   UNL     1      -2.959  -3.177  24.807  0.00  0.00    -0.263 NA
ATOM     24  C   UNL     1      -1.771  -0.781  25.618  0.00  0.00    +0.041 A 
ATOM     26  C   UNL     1      -1.067  -1.673  24.817  0.00  0.00    +0.033 A 
ATOM     27  C   UNL     1      -3.070  -1.086  26.013  0.00  0.00    +0.033 A 
ATOM     31  C   UNL     1      -1.700  -2.846  24.442  0.00  0.00    +0.111 A 
ATOM     32  C   UNL     1      -3.612  -2.286  25.585  0.00  0.00    +0.111 A 
ENDBRANCH  22  24
ENDBRANCH  16  20
ENDBRANCH  11  16
TORSDOF 7
ENDMDL
MODEL 7
REMARK VINA RESULT:       2.0      1.952      4.957
REMARK  Name = 45784145
REMARK  10 active torsions:
REMARK  status: ('A' for Active; 'I' for Inactive)
REMARK    1  A    between atoms: N_3  and  C_15
REMARK    2  A    between atoms: C_8  and  C_12
REMARK    3  A    between atoms: C_9  and  C_15
REMARK    4  A    between atoms: C_11  and  C_16
REMARK    5  A    between atoms: C_12  and  C_17
REMARK    6  A    between atoms: C_12  and  C_18
REMARK    7  A    between atoms: C_13  and  C_19
REMARK    8  A    between atoms: C_16  and  C_20
REMARK    9  A    between atoms: C_21  and  C_23
REMARK   10  A    between atoms: C_22  and  C_24
REMARK                            x       y       z     vdW  Elec       q    Type
REMARK                         _______ _______ _______ _____ _____    ______ ____
ROOT
ATOM      8  C   UNL     1      -1.937  -0.742  25.320  0.00  0.00    +0.000 C 
ATOM      9  C   UNL     1      -0.852  -1.496  24.511  0.00  0.00    +0.032 C 
ATOM     10  C   UNL     1      -2.908  -1.738  25.972  0.00  0.00    +0.012 C 
ATOM     11  C   UNL     1      -3.609  -2.634  24.933  0.00  0.00    +0.024 C 
ATOM     13  C   UNL     1      -2.627  -3.204  23.929  0.00  0.00    -0.073 C 
ATOM     14  C   UNL     1      -1.396  -2.691  23.763  0.00  0.00    -0.022 C 
ATOM     19  C   UNL     1      -3.079  -4.408  23.150  0.00  0.00    +0.039 C 
ENDROOT
BRANCH   8  12
ATOM     12  C   UNL     1      -1.321   0.160  26.394  0.00  0.00    -0.013 C 
ATOM     17  C   UNL     1      -0.399  -0.645  27.303  0.00  0.00    +0.007 C 
ATOM     18  C   UNL     1      -0.567   1.317  25.748  0.00  0.00    +0.007 C 
ENDBRANCH   8  12
BRANCH   9  15
ATOM     15  C   UNL     1      -0.144  -0.557  23.527  0.00  0.00    +0.112 C 
BRANCH  15   3
ATOM      2  O   UNL     1       1.944  -0.093  21.612  0.00  0.00    -0.269 OA
ATOM      3  N   UNL     1       1.261  -0.513  23.790  0.00  0.00    -0.310 N 
ATOM     21  C   UNL     1       2.211  -0.281  22.796  0.00  0.00    +0.262 C 
ATOM     33  H   UNL     1       1.578  -0.617  24.749  0.00  0.00    +0.149 HD
BRANCH  21  23
ATOM      6  N   UNL     1       4.298   0.877  23.081  0.00  0.00    -0.250 NA
ATOM     23  C   UNL     1       3.633  -0.291  23.227  0.00  0.00    +0.125 A 
ATOM     25  C   UNL     1       4.198  -1.447  23.741  0.00  0.00    +0.033 A 
ATOM     28  C   UNL     1       5.532  -1.402  24.130  0.00  0.00    +0.004 A 
ATOM     29  C   UNL     1       5.593   0.882  23.469  0.00  0.00    +0.111 A 
ATOM     30  C   UNL     1       6.250  -0.219  23.994  0.00  0.00    +0.020 A 
ENDBRANCH  21  23
ENDBRANCH  15   3
ENDBRANCH   9  15
BRANCH  11  16
ATOM     16  C   UNL     1      -4.741  -1.879  24.228  0.00  0.00    +0.105 C 
BRANCH  16  20
ATOM      1  O   UNL     1      -4.621   0.482  24.831  0.00  0.00    -0.420 OA
ATOM      4  N   UNL     1      -3.752   0.003  22.825  0.00  0.00    -0.112 NA
ATOM      5  N   UNL     1      -3.617   1.362  23.036  0.00  0.00    -0.107 NA
ATOM     20  C   UNL     1      -4.342  -0.470  23.899  0.00  0.00    +0.218 A 
ATOM     22  C   UNL     1      -4.138   1.597  24.217  0.00  0.00    +0.248 A 
BRANCH  22  24
ATOM      7  N   UNL     1      -4.540   5.214  26.373  0.00  0.00    -0.263 NA
ATOM     24  C   UNL     1      -4.274   2.824  24.948  0.00  0.00    +0.041 A 
ATOM     26  C   UNL     1      -5.536   3.349  25.202  0.00  0.00    +0.033 A 
ATOM     27  C   UNL     1      -3.144   3.493  25.406  0.00  0.00    +0.033 A 
ATOM     31  C   UNL     1      -5.615   4.535  25.912  0.00  0.00    +0.111 A 
ATOM     32  C   UNL     1      -3.330   4.673  26.107  0.00  0.00    +0.111 A 
ENDBRANCH  22  24
ENDBRANCH  16  20
ENDBRANCH  11  16
TORSDOF 7
ENDMDL
