MODEL 1
REMARK VINA RESULT:      -3.5      0.000      0.000
REMARK  Name = 7135447
REMARK  10 active torsions:
REMARK  status: ('A' for Active; 'I' for Inactive)
REMARK    1  A    between atoms: O_2  and  C_21
REMARK    2  A    between atoms: O_2  and  C_25
REMARK    3  A    between atoms: O_3  and  C_26
REMARK    4  A    between atoms: O_3  and  C_27
REMARK    5  A    between atoms: C_5  and  C_6
REMARK    6  A    between atoms: C_6  and  C_12
REMARK    7  A    between atoms: C_6  and  C_13
REMARK    8  A    between atoms: C_14  and  C_23
REMARK    9  A    between atoms: C_17  and  C_24
REMARK   10  A    between atoms: C_25  and  C_26
REMARK                            x       y       z     vdW  Elec       q    Type
REMARK                         _______ _______ _______ _____ _____    ______ ____
ROOT
ATOM      5  C   UNL     1      -4.176   1.402  24.772  0.00  0.00    +0.005 C 
ATOM      7  C   UNL     1      -4.603   0.172  25.579  0.00  0.00    +0.009 C 
ATOM      8  C   UNL     1      -2.645   1.521  24.783  0.00  0.00    +0.040 C 
ATOM      9  C   UNL     1      -4.057  -1.105  24.941  0.00  0.00    +0.036 C 
ATOM     10  C   UNL     1      -1.939   0.224  24.473  0.00  0.00    -0.037 A 
ATOM     11  C   UNL     1      -2.593  -1.015  24.587  0.00  0.00    -0.041 A 
ATOM     14  C   UNL     1      -0.581   0.256  24.120  0.00  0.00    -0.005 A 
ATOM     17  C   UNL     1      -1.887  -2.195  24.308  0.00  0.00    -0.044 A 
ATOM     21  C   UNL     1       0.113  -0.923  23.856  0.00  0.00    +0.124 A 
ATOM     22  C   UNL     1      -0.541  -2.150  23.948  0.00  0.00    +0.049 A 
ATOM     23  C   UNL     1       0.158   1.556  24.028  0.00  0.00    +0.048 C 
ATOM     24  C   UNL     1      -2.546  -3.537  24.377  0.00  0.00    +0.044 C 
ENDROOT
BRANCH   5   6
ATOM      6  C   UNL     1      -4.820   2.671  25.328  0.00  0.00    +0.075 C 
ATOM     13  C   UNL     1      -6.302   2.730  24.999  0.00  0.00    +0.017 C 
BRANCH   6  12
ATOM      1  O   UNL     1      -4.601   4.433  23.760  0.00  0.00    -0.275 OA
ATOM      4  N   UNL     1      -2.936   4.269  25.373  0.00  0.00    -0.301 N 
ATOM     12  C   UNL     1      -4.116   3.870  24.745  0.00  0.00    +0.219 C 
ATOM     15  C   UNL     1      -2.194   5.424  24.864  0.00  0.00    +0.108 C 
ATOM     16  C   UNL     1      -2.360   3.646  26.572  0.00  0.00    +0.108 C 
ATOM     18  C   UNL     1      -0.739   5.058  24.588  0.00  0.00    +0.019 C 
ATOM     19  C   UNL     1      -0.906   3.248  26.328  0.00  0.00    +0.019 C 
ATOM     20  C   UNL     1      -0.084   4.429  25.816  0.00  0.00    +0.003 C 
ENDBRANCH   6  12
ENDBRANCH   5   6
BRANCH  21   2
ATOM      2  O   UNL     1       1.430  -0.900  23.508  0.00  0.00    -0.489 OA
BRANCH   2  25
ATOM     25  C   UNL     1       1.761  -0.290  22.262  0.00  0.00    +0.257 C 
BRANCH  25  26
ATOM     26  C   UNL     1       3.104   0.401  22.391  0.00  0.00    +0.200 C 
BRANCH  26   3
ATOM      3  O   UNL     1       3.995  -0.446  23.108  0.00  0.00    -0.380 OA
ATOM     27  C   UNL     1       5.183   0.240  23.475  0.00  0.00    +0.194 C 
ENDBRANCH  26   3
ENDBRANCH  25  26
ENDBRANCH   2  25
ENDBRANCH  21   2
TORSDOF 6
ENDMDL
MODEL 2
REMARK VINA RESULT:      -2.9      1.989      4.896
REMARK  Name = 7135447
REMARK  10 active torsions:
REMARK  status: ('A' for Active; 'I' for Inactive)
REMARK    1  A    between atoms: O_2  and  C_21
REMARK    2  A    between atoms: O_2  and  C_25
REMARK    3  A    between atoms: O_3  and  C_26
REMARK    4  A    between atoms: O_3  and  C_27
REMARK    5  A    between atoms: C_5  and  C_6
REMARK    6  A    between atoms: C_6  and  C_12
REMARK    7  A    between atoms: C_6  and  C_13
REMARK    8  A    between atoms: C_14  and  C_23
REMARK    9  A    between atoms: C_17  and  C_24
REMARK   10  A    between atoms: C_25  and  C_26
REMARK                            x       y       z     vdW  Elec       q    Type
REMARK                         _______ _______ _______ _____ _____    ______ ____
ROOT
ATOM      5  C   UNL     1      -1.134   3.536  24.848  0.00  0.00    +0.005 C 
ATOM      7  C   UNL     1      -0.361   3.538  23.526  0.00  0.00    +0.009 C 
ATOM      8  C   UNL     1      -1.904   2.215  24.996  0.00  0.00    +0.040 C 
ATOM      9  C   UNL     1       0.679   2.418  23.512  0.00  0.00    +0.036 C 
ATOM     10  C   UNL     1      -1.068   0.996  24.694  0.00  0.00    -0.037 A 
ATOM     11  C   UNL     1       0.128   1.087  23.960  0.00  0.00    -0.041 A 
ATOM     14  C   UNL     1      -1.527  -0.264  25.108  0.00  0.00    -0.005 A 
ATOM     17  C   UNL     1       0.859  -0.079  23.687  0.00  0.00    -0.044 A 
ATOM     21  C   UNL     1      -0.798  -1.416  24.821  0.00  0.00    +0.124 A 
ATOM     22  C   UNL     1       0.397  -1.324  24.112  0.00  0.00    +0.049 A 
ATOM     23  C   UNL     1      -2.817  -0.402  25.858  0.00  0.00    +0.048 C 
ATOM     24  C   UNL     1       2.156  -0.034  22.943  0.00  0.00    +0.044 C 
ENDROOT
BRANCH   5   6
ATOM      6  C   UNL     1      -2.088   4.727  24.925  0.00  0.00    +0.075 C 
ATOM     13  C   UNL     1      -1.361   5.992  25.352  0.00  0.00    +0.017 C 
BRANCH   6  12
ATOM      1  O   UNL     1      -3.036   4.706  27.096  0.00  0.00    -0.275 OA
ATOM      4  N   UNL     1      -4.323   3.786  25.393  0.00  0.00    -0.301 N 
ATOM     12  C   UNL     1      -3.186   4.410  25.907  0.00  0.00    +0.219 C 
ATOM     15  C   UNL     1      -5.433   3.444  26.286  0.00  0.00    +0.108 C 
ATOM     16  C   UNL     1      -4.549   3.463  23.979  0.00  0.00    +0.108 C 
ATOM     18  C   UNL     1      -5.796   1.967  26.161  0.00  0.00    +0.019 C 
ATOM     19  C   UNL     1      -4.897   1.986  23.811  0.00  0.00    +0.019 C 
ATOM     20  C   UNL     1      -6.067   1.584  24.708  0.00  0.00    +0.003 C 
ENDBRANCH   6  12
ENDBRANCH   5   6
BRANCH  21   2
ATOM      2  O   UNL     1      -1.237  -2.642  25.223  0.00  0.00    -0.489 OA
BRANCH   2  25
ATOM     25  C   UNL     1      -2.102  -3.345  24.334  0.00  0.00    +0.257 C 
BRANCH  25  26
ATOM     26  C   UNL     1      -3.509  -3.327  24.896  0.00  0.00    +0.200 C 
BRANCH  26   3
ATOM      3  O   UNL     1      -4.420  -2.984  23.858  0.00  0.00    -0.380 OA
ATOM     27  C   UNL     1      -4.353  -1.600  23.543  0.00  0.00    +0.194 C 
ENDBRANCH  26   3
ENDBRANCH  25  26
ENDBRANCH   2  25
ENDBRANCH  21   2
TORSDOF 6
ENDMDL
MODEL 3
REMARK VINA RESULT:      -1.1      1.519      3.345
REMARK  Name = 7135447
REMARK  10 active torsions:
REMARK  status: ('A' for Active; 'I' for Inactive)
REMARK    1  A    between atoms: O_2  and  C_21
REMARK    2  A    between atoms: O_2  and  C_25
REMARK    3  A    between atoms: O_3  and  C_26
REMARK    4  A    between atoms: O_3  and  C_27
REMARK    5  A    between atoms: C_5  and  C_6
REMARK    6  A    between atoms: C_6  and  C_12
REMARK    7  A    between atoms: C_6  and  C_13
REMARK    8  A    between atoms: C_14  and  C_23
REMARK    9  A    between atoms: C_17  and  C_24
REMARK   10  A    between atoms: C_25  and  C_26
REMARK                            x       y       z     vdW  Elec       q    Type
REMARK                         _______ _______ _______ _____ _____    ______ ____
ROOT
ATOM      5  C   UNL     1      -1.663   2.714  24.250  0.00  0.00    +0.005 C 
ATOM      7  C   UNL     1      -2.142   1.799  25.380  0.00  0.00    +0.009 C 
ATOM      8  C   UNL     1      -0.151   2.537  24.046  0.00  0.00    +0.040 C 
ATOM      9  C   UNL     1      -1.914   0.332  25.016  0.00  0.00    +0.036 C 
ATOM     10  C   UNL     1       0.281   1.093  23.983  0.00  0.00    -0.037 A 
ATOM     11  C   UNL     1      -0.532   0.059  24.477  0.00  0.00    -0.041 A 
ATOM     14  C   UNL     1       1.551   0.785  23.471  0.00  0.00    -0.005 A 
ATOM     17  C   UNL     1      -0.076  -1.267  24.416  0.00  0.00    -0.044 A 
ATOM     21  C   UNL     1       1.999  -0.534  23.426  0.00  0.00    +0.124 A 
ATOM     22  C   UNL     1       1.184  -1.561  23.896  0.00  0.00    +0.049 A 
ATOM     23  C   UNL     1       2.461   1.866  22.973  0.00  0.00    +0.048 C 
ATOM     24  C   UNL     1      -0.917  -2.408  24.893  0.00  0.00    +0.044 C 
ENDROOT
BRANCH   5   6
ATOM      6  C   UNL     1      -2.000   4.174  24.549  0.00  0.00    +0.075 C 
ATOM     13  C   UNL     1      -0.796   4.918  25.101  0.00  0.00    +0.017 C 
BRANCH   6  12
ATOM      1  O   UNL     1      -2.945   4.742  26.646  0.00  0.00    -0.275 OA
ATOM      4  N   UNL     1      -4.341   3.651  25.141  0.00  0.00    -0.301 N 
ATOM     12  C   UNL     1      -3.132   4.219  25.544  0.00  0.00    +0.219 C 
ATOM     15  C   UNL     1      -5.487   3.655  26.053  0.00  0.00    +0.108 C 
ATOM     16  C   UNL     1      -4.605   3.063  23.822  0.00  0.00    +0.108 C 
ATOM     18  C   UNL     1      -6.042   2.245  26.235  0.00  0.00    +0.019 C 
ATOM     19  C   UNL     1      -5.145   1.642  23.962  0.00  0.00    +0.019 C 
ATOM     20  C   UNL     1      -6.359   1.597  24.889  0.00  0.00    +0.003 C 
ENDBRANCH   6  12
ENDBRANCH   5   6
BRANCH  21   2
ATOM      2  O   UNL     1       3.229  -0.841  22.927  0.00  0.00    -0.489 OA
BRANCH   2  25
ATOM     25  C   UNL     1       4.150  -1.470  23.815  0.00  0.00    +0.257 C 
BRANCH  25  26
ATOM     26  C   UNL     1       5.120  -0.431  24.340  0.00  0.00    +0.200 C 
BRANCH  26   3
ATOM      3  O   UNL     1       5.765   0.200  23.240  0.00  0.00    -0.380 OA
ATOM     27  C   UNL     1       6.937  -0.502  22.850  0.00  0.00    +0.194 C 
ENDBRANCH  26   3
ENDBRANCH  25  26
ENDBRANCH   2  25
ENDBRANCH  21   2
TORSDOF 6
ENDMDL
MODEL 4
REMARK VINA RESULT:      -0.7      2.187      6.834
REMARK  Name = 7135447
REMARK  10 active torsions:
REMARK  status: ('A' for Active; 'I' for Inactive)
REMARK    1  A    between atoms: O_2  and  C_21
REMARK    2  A    between atoms: O_2  and  C_25
REMARK    3  A    between atoms: O_3  and  C_26
REMARK    4  A    between atoms: O_3  and  C_27
REMARK    5  A    between atoms: C_5  and  C_6
REMARK    6  A    between atoms: C_6  and  C_12
REMARK    7  A    between atoms: C_6  and  C_13
REMARK    8  A    between atoms: C_14  and  C_23
REMARK    9  A    between atoms: C_17  and  C_24
REMARK   10  A    between atoms: C_25  and  C_26
REMARK                            x       y       z     vdW  Elec       q    Type
REMARK                         _______ _______ _______ _____ _____    ______ ____
ROOT
ATOM      5  C   UNL     1       0.256  -0.027  23.844  0.00  0.00    +0.005 C 
ATOM      7  C   UNL     1      -0.186  -1.458  24.167  0.00  0.00    +0.009 C 
ATOM      8  C   UNL     1      -0.926   0.762  23.264  0.00  0.00    +0.040 C 
ATOM      9  C   UNL     1      -1.280  -1.453  25.234  0.00  0.00    +0.036 C 
ATOM     10  C   UNL     1      -2.200   0.605  24.057  0.00  0.00    -0.037 A 
ATOM     11  C   UNL     1      -2.382  -0.461  24.955  0.00  0.00    -0.041 A 
ATOM     14  C   UNL     1      -3.248   1.515  23.848  0.00  0.00    -0.005 A 
ATOM     17  C   UNL     1      -3.593  -0.575  25.654  0.00  0.00    -0.044 A 
ATOM     21  C   UNL     1      -4.451   1.385  24.539  0.00  0.00    +0.124 A 
ATOM     22  C   UNL     1      -4.623   0.340  25.445  0.00  0.00    +0.049 A 
ATOM     23  C   UNL     1      -3.105   2.640  22.869  0.00  0.00    +0.048 C 
ATOM     24  C   UNL     1      -3.823  -1.669  26.649  0.00  0.00    +0.044 C 
ENDROOT
BRANCH   5   6
ATOM      6  C   UNL     1       1.434  -0.026  22.872  0.00  0.00    +0.075 C 
ATOM     13  C   UNL     1       1.004  -0.457  21.479  0.00  0.00    +0.017 C 
BRANCH   6  12
ATOM      1  O   UNL     1       2.157  -2.005  23.956  0.00  0.00    -0.275 OA
ATOM      4  N   UNL     1       3.822  -0.572  23.197  0.00  0.00    -0.301 N 
ATOM     12  C   UNL     1       2.497  -0.961  23.392  0.00  0.00    +0.219 C 
ATOM     15  C   UNL     1       4.910  -1.426  23.676  0.00  0.00    +0.108 C 
ATOM     16  C   UNL     1       4.256   0.640  22.491  0.00  0.00    +0.108 C 
ATOM     18  C   UNL     1       5.866  -0.641  24.570  0.00  0.00    +0.019 C 
ATOM     19  C   UNL     1       5.201   1.464  23.363  0.00  0.00    +0.019 C 
ATOM     20  C   UNL     1       6.369   0.620  23.870  0.00  0.00    +0.003 C 
ENDBRANCH   6  12
ENDBRANCH   5   6
BRANCH  21   2
ATOM      2  O   UNL     1      -5.472   2.266  24.344  0.00  0.00    -0.489 OA
BRANCH   2  25
ATOM     25  C   UNL     1      -5.806   3.123  25.434  0.00  0.00    +0.257 C 
BRANCH  25  26
ATOM     26  C   UNL     1      -4.808   4.262  25.493  0.00  0.00    +0.200 C 
BRANCH  26   3
ATOM      3  O   UNL     1      -3.773   3.925  26.409  0.00  0.00    -0.380 OA
ATOM     27  C   UNL     1      -2.498   4.329  25.927  0.00  0.00    +0.194 C 
ENDBRANCH  26   3
ENDBRANCH  25  26
ENDBRANCH   2  25
ENDBRANCH  21   2
TORSDOF 6
ENDMDL
MODEL 5
REMARK VINA RESULT:      -0.7      2.043      7.273
REMARK  Name = 7135447
REMARK  10 active torsions:
REMARK  status: ('A' for Active; 'I' for Inactive)
REMARK    1  A    between atoms: O_2  and  C_21
REMARK    2  A    between atoms: O_2  and  C_25
REMARK    3  A    between atoms: O_3  and  C_26
REMARK    4  A    between atoms: O_3  and  C_27
REMARK    5  A    between atoms: C_5  and  C_6
REMARK    6  A    between atoms: C_6  and  C_12
REMARK    7  A    between atoms: C_6  and  C_13
REMARK    8  A    between atoms: C_14  and  C_23
REMARK    9  A    between atoms: C_17  and  C_24
REMARK   10  A    between atoms: C_25  and  C_26
REMARK                            x       y       z     vdW  Elec       q    Type
REMARK                         _______ _______ _______ _____ _____    ______ ____
ROOT
ATOM      5  C   UNL     1       0.227   1.165  23.666  0.00  0.00    +0.005 C 
ATOM      7  C   UNL     1       0.852   2.108  24.698  0.00  0.00    +0.009 C 
ATOM      8  C   UNL     1      -1.274   1.010  23.948  0.00  0.00    +0.040 C 
ATOM      9  C   UNL     1       0.237   3.502  24.593  0.00  0.00    +0.036 C 
ATOM     10  C   UNL     1      -1.979   2.322  24.187  0.00  0.00    -0.037 A 
ATOM     11  C   UNL     1      -1.270   3.487  24.530  0.00  0.00    -0.041 A 
ATOM     14  C   UNL     1      -3.380   2.364  24.120  0.00  0.00    -0.005 A 
ATOM     17  C   UNL     1      -1.973   4.678  24.763  0.00  0.00    -0.044 A 
ATOM     21  C   UNL     1      -4.069   3.551  24.364  0.00  0.00    +0.124 A 
ATOM     22  C   UNL     1      -3.365   4.709  24.684  0.00  0.00    +0.049 A 
ATOM     23  C   UNL     1      -4.171   1.133  23.796  0.00  0.00    +0.048 C 
ATOM     24  C   UNL     1      -1.265   5.954  25.094  0.00  0.00    +0.044 C 
ENDROOT
BRANCH   5   6
ATOM      6  C   UNL     1       0.922  -0.196  23.678  0.00  0.00    +0.075 C 
ATOM     13  C   UNL     1       2.069  -0.241  22.682  0.00  0.00    +0.017 C 
BRANCH   6  12
ATOM      1  O   UNL     1      -0.160  -1.685  22.185  0.00  0.00    -0.275 OA
ATOM      4  N   UNL     1      -0.899  -1.707  24.389  0.00  0.00    -0.301 N 
ATOM     12  C   UNL     1      -0.090  -1.262  23.343  0.00  0.00    +0.219 C 
ATOM     15  C   UNL     1      -1.907  -2.740  24.142  0.00  0.00    +0.108 C 
ATOM     16  C   UNL     1      -0.808  -1.256  25.783  0.00  0.00    +0.108 C 
ATOM     18  C   UNL     1      -3.284  -2.279  24.610  0.00  0.00    +0.019 C 
ATOM     19  C   UNL     1      -2.166  -0.768  26.283  0.00  0.00    +0.019 C 
ATOM     20  C   UNL     1      -3.250  -1.823  26.067  0.00  0.00    +0.003 C 
ENDBRANCH   6  12
ENDBRANCH   5   6
BRANCH  21   2
ATOM      2  O   UNL     1      -5.429   3.600  24.298  0.00  0.00    -0.489 OA
BRANCH   2  25
ATOM     25  C   UNL     1      -6.129   3.853  25.514  0.00  0.00    +0.257 C 
BRANCH  25  26
ATOM     26  C   UNL     1      -5.667   2.863  26.565  0.00  0.00    +0.200 C 
BRANCH  26   3
ATOM      3  O   UNL     1      -6.350   1.630  26.373  0.00  0.00    -0.380 OA
ATOM     27  C   UNL     1      -6.958   1.177  27.574  0.00  0.00    +0.194 C 
ENDBRANCH  26   3
ENDBRANCH  25  26
ENDBRANCH   2  25
ENDBRANCH  21   2
TORSDOF 6
ENDMDL
MODEL 6
REMARK VINA RESULT:       0.3      2.417      5.046
REMARK  Name = 7135447
REMARK  10 active torsions:
REMARK  status: ('A' for Active; 'I' for Inactive)
REMARK    1  A    between atoms: O_2  and  C_21
REMARK    2  A    between atoms: O_2  and  C_25
REMARK    3  A    between atoms: O_3  and  C_26
REMARK    4  A    between atoms: O_3  and  C_27
REMARK    5  A    between atoms: C_5  and  C_6
REMARK    6  A    between atoms: C_6  and  C_12
REMARK    7  A    between atoms: C_6  and  C_13
REMARK    8  A    between atoms: C_14  and  C_23
REMARK    9  A    between atoms: C_17  and  C_24
REMARK   10  A    between atoms: C_25  and  C_26
REMARK                            x       y       z     vdW  Elec       q    Type
REMARK                         _______ _______ _______ _____ _____    ______ ____
ROOT
ATOM      5  C   UNL     1      -2.471   4.186  25.039  0.00  0.00    +0.005 C 
ATOM      7  C   UNL     1      -3.086   4.190  26.441  0.00  0.00    +0.009 C 
ATOM      8  C   UNL     1      -2.351   2.742  24.530  0.00  0.00    +0.040 C 
ATOM      9  C   UNL     1      -4.502   3.616  26.408  0.00  0.00    +0.036 C 
ATOM     10  C   UNL     1      -3.608   1.930  24.725  0.00  0.00    -0.037 A 
ATOM     11  C   UNL     1      -4.602   2.321  25.640  0.00  0.00    -0.041 A 
ATOM     14  C   UNL     1      -3.758   0.727  24.018  0.00  0.00    -0.005 A 
ATOM     17  C   UNL     1      -5.744   1.521  25.801  0.00  0.00    -0.044 A 
ATOM     21  C   UNL     1      -4.891  -0.065  24.195  0.00  0.00    +0.124 A 
ATOM     22  C   UNL     1      -5.886   0.333  25.085  0.00  0.00    +0.049 A 
ATOM     23  C   UNL     1      -2.700   0.260  23.066  0.00  0.00    +0.048 C 
ATOM     24  C   UNL     1      -6.848   1.911  26.732  0.00  0.00    +0.044 C 
ENDROOT
BRANCH   5   6
ATOM      6  C   UNL     1      -1.106   4.872  25.039  0.00  0.00    +0.075 C 
ATOM     13  C   UNL     1      -1.212   6.316  24.576  0.00  0.00    +0.017 C 
BRANCH   6  12
ATOM      1  O   UNL     1       0.138   4.599  23.040  0.00  0.00    -0.275 OA
ATOM      4  N   UNL     1       0.273   2.872  24.590  0.00  0.00    -0.301 N 
ATOM     12  C   UNL     1      -0.177   4.109  24.129  0.00  0.00    +0.219 C 
ATOM     15  C   UNL     1       1.177   2.071  23.762  0.00  0.00    +0.108 C 
ATOM     16  C   UNL     1      -0.048   2.285  25.897  0.00  0.00    +0.108 C 
ATOM     18  C   UNL     1       0.623   0.663  23.557  0.00  0.00    +0.019 C 
ATOM     19  C   UNL     1      -0.624   0.881  25.732  0.00  0.00    +0.019 C 
ATOM     20  C   UNL     1       0.297  -0.003  24.892  0.00  0.00    +0.003 C 
ENDBRANCH   6  12
ENDBRANCH   5   6
BRANCH  21   2
ATOM      2  O   UNL     1      -5.045  -1.232  23.509  0.00  0.00    -0.489 OA
BRANCH   2  25
ATOM     25  C   UNL     1      -4.138  -2.289  23.816  0.00  0.00    +0.257 C 
BRANCH  25  26
ATOM     26  C   UNL     1      -3.756  -2.202  25.281  0.00  0.00    +0.200 C 
BRANCH  26   3
ATOM      3  O   UNL     1      -2.339  -2.233  25.393  0.00  0.00    -0.380 OA
ATOM     27  C   UNL     1      -1.736  -2.804  24.241  0.00  0.00    +0.194 C 
ENDBRANCH  26   3
ENDBRANCH  25  26
ENDBRANCH   2  25
ENDBRANCH  21   2
TORSDOF 6
ENDMDL
