MODEL 1
REMARK VINA RESULT:      -6.2      0.000      0.000
REMARK  Name = 75536735
REMARK  9 active torsions:
REMARK  status: ('A' for Active; 'I' for Inactive)
REMARK    1  A    between atoms: O_2  and  C_9
REMARK    2  A    between atoms: N_4  and  C_8
REMARK    3  A    between atoms: N_4  and  C_13
REMARK    4  A    between atoms: N_5  and  C_12
REMARK    5  A    between atoms: N_6  and  C_16
REMARK    6  A    between atoms: C_10  and  C_12
REMARK    7  A    between atoms: C_13  and  C_14
REMARK    8  A    between atoms: C_16  and  C_19
REMARK    9  A    between atoms: C_16  and  C_20
REMARK                            x       y       z     vdW  Elec       q    Type
REMARK                         _______ _______ _______ _____ _____    ______ ____
ROOT
ATOM      1  O   UNL     1      -2.252   2.506  23.189  0.00  0.00    -0.371 OA
ATOM      8  C   UNL     1      -3.702   3.242  24.911  0.00  0.00    +0.111 C 
ATOM      9  C   UNL     1      -2.294   3.690  25.263  0.00  0.00    +0.164 C 
ATOM     10  C   UNL     1      -1.396   2.999  24.238  0.00  0.00    +0.165 C 
ATOM     11  C   UNL     1      -3.583   2.986  23.417  0.00  0.00    +0.181 C 
ENDROOT
BRANCH   9   2
ATOM      2  O   UNL     1      -2.225   5.104  25.066  0.00  0.00    -0.388 OA
ATOM     24  H   UNL     1      -3.129   5.418  24.892  0.00  0.00    +0.210 HD
ENDBRANCH   9   2
BRANCH   8   4
ATOM      4  N   UNL     1      -4.071   2.018  25.618  0.00  0.00    -0.305 NA
ATOM     23  H   UNL     1      -3.233   1.589  26.011  0.00  0.00    +0.123 HD
BRANCH   4  13
ATOM     13  C   UNL     1      -4.702   1.061  24.716  0.00  0.00    +0.118 C 
BRANCH  13  14
ATOM      7  N   UNL     1      -2.013  -1.536  25.307  0.00  0.00    -0.263 NA
ATOM     14  C   UNL     1      -3.959  -0.248  24.678  0.00  0.00    -0.015 A 
ATOM     17  C   UNL     1      -4.484  -1.350  24.013  0.00  0.00    +0.008 A 
ATOM     18  C   UNL     1      -2.732  -0.391  25.304  0.00  0.00    +0.115 A 
ATOM     21  C   UNL     1      -3.775  -2.546  23.994  0.00  0.00    +0.020 A 
ATOM     22  C   UNL     1      -2.555  -2.588  24.651  0.00  0.00    +0.111 A 
ENDBRANCH  13  14
ENDBRANCH   4  13
ENDBRANCH   8   4
BRANCH  10  12
ATOM     12  C   UNL     1      -0.616   1.824  24.808  0.00  0.00    +0.140 C 
BRANCH  12   5
ATOM      3  O   UNL     1       0.851  -0.249  23.440  0.00  0.00    -0.253 OA
ATOM      5  N   UNL     1       0.760   1.863  24.402  0.00  0.00    -0.297 N 
ATOM      6  N   UNL     1       2.730   1.113  23.465  0.00  0.00    -0.297 N 
ATOM     15  C   UNL     1       1.399   0.811  23.740  0.00  0.00    +0.300 C 
ATOM     25  H   UNL     1       1.300   2.696  24.616  0.00  0.00    +0.150 HD
ATOM     26  H   UNL     1       3.110   1.986  23.816  0.00  0.00    +0.150 HD
BRANCH   6  16
ATOM     16  C   UNL     1       3.616   0.196  22.787  0.00  0.00    +0.068 C 
ATOM     19  C   UNL     1       3.564   0.416  21.281  0.00  0.00    +0.027 C 
ATOM     20  C   UNL     1       5.036   0.341  23.318  0.00  0.00    +0.027 C 
ENDBRANCH   6  16
ENDBRANCH  12   5
ENDBRANCH  10  12
TORSDOF 7
ENDMDL
MODEL 2
REMARK VINA RESULT:      -5.6      1.755      2.368
REMARK  Name = 75536735
REMARK  9 active torsions:
REMARK  status: ('A' for Active; 'I' for Inactive)
REMARK    1  A    between atoms: O_2  and  C_9
REMARK    2  A    between atoms: N_4  and  C_8
REMARK    3  A    between atoms: N_4  and  C_13
REMARK    4  A    between atoms: N_5  and  C_12
REMARK    5  A    between atoms: N_6  and  C_16
REMARK    6  A    between atoms: C_10  and  C_12
REMARK    7  A    between atoms: C_13  and  C_14
REMARK    8  A    between atoms: C_16  and  C_19
REMARK    9  A    between atoms: C_16  and  C_20
REMARK                            x       y       z     vdW  Elec       q    Type
REMARK                         _______ _______ _______ _____ _____    ______ ____
ROOT
ATOM      1  O   UNL     1      -2.850   4.409  24.125  0.00  0.00    -0.371 OA
ATOM      8  C   UNL     1      -4.682   2.922  24.332  0.00  0.00    +0.111 C 
ATOM      9  C   UNL     1      -4.371   3.475  25.712  0.00  0.00    +0.164 C 
ATOM     10  C   UNL     1      -3.060   4.241  25.540  0.00  0.00    +0.165 C 
ATOM     11  C   UNL     1      -4.014   3.947  23.429  0.00  0.00    +0.181 C 
ENDROOT
BRANCH   9   2
ATOM      2  O   UNL     1      -5.409   4.397  26.056  0.00  0.00    -0.388 OA
ATOM     24  H   UNL     1      -5.395   4.503  27.022  0.00  0.00    +0.210 HD
ENDBRANCH   9   2
BRANCH   8   4
ATOM      4  N   UNL     1      -4.095   1.599  24.137  0.00  0.00    -0.305 NA
ATOM     23  H   UNL     1      -4.544   1.144  23.342  0.00  0.00    +0.123 HD
BRANCH   4  13
ATOM     13  C   UNL     1      -4.282   0.763  25.318  0.00  0.00    +0.118 C 
BRANCH  13  14
ATOM      7  N   UNL     1      -3.083  -2.799  25.769  0.00  0.00    -0.263 NA
ATOM     14  C   UNL     1      -3.997  -0.687  25.029  0.00  0.00    -0.015 A 
ATOM     17  C   UNL     1      -4.353  -1.259  23.812  0.00  0.00    +0.008 A 
ATOM     18  C   UNL     1      -3.370  -1.493  25.965  0.00  0.00    +0.115 A 
ATOM     21  C   UNL     1      -4.076  -2.599  23.573  0.00  0.00    +0.020 A 
ATOM     22  C   UNL     1      -3.445  -3.321  24.575  0.00  0.00    +0.111 A 
ENDBRANCH  13  14
ENDBRANCH   4  13
ENDBRANCH   8   4
BRANCH  10  12
ATOM     12  C   UNL     1      -1.854   3.518  26.120  0.00  0.00    +0.140 C 
BRANCH  12   5
ATOM      3  O   UNL     1      -0.882   0.802  26.079  0.00  0.00    -0.253 OA
ATOM      5  N   UNL     1      -1.073   2.895  25.090  0.00  0.00    -0.297 N 
ATOM      6  N   UNL     1       0.099   1.222  24.018  0.00  0.00    -0.297 N 
ATOM     15  C   UNL     1      -0.640   1.568  25.146  0.00  0.00    +0.300 C 
ATOM     25  H   UNL     1      -0.813   3.452  24.282  0.00  0.00    +0.150 HD
ATOM     26  H   UNL     1       0.306   1.944  23.336  0.00  0.00    +0.150 HD
BRANCH   6  16
ATOM     16  C   UNL     1       0.665  -0.094  23.826  0.00  0.00    +0.068 C 
ATOM     19  C   UNL     1      -0.435  -1.147  23.781  0.00  0.00    +0.027 C 
ATOM     20  C   UNL     1       1.513  -0.126  22.562  0.00  0.00    +0.027 C 
ENDBRANCH   6  16
ENDBRANCH  12   5
ENDBRANCH  10  12
TORSDOF 7
ENDMDL
MODEL 3
REMARK VINA RESULT:      -5.2      2.068      4.211
REMARK  Name = 75536735
REMARK  9 active torsions:
REMARK  status: ('A' for Active; 'I' for Inactive)
REMARK    1  A    between atoms: O_2  and  C_9
REMARK    2  A    between atoms: N_4  and  C_8
REMARK    3  A    between atoms: N_4  and  C_13
REMARK    4  A    between atoms: N_5  and  C_12
REMARK    5  A    between atoms: N_6  and  C_16
REMARK    6  A    between atoms: C_10  and  C_12
REMARK    7  A    between atoms: C_13  and  C_14
REMARK    8  A    between atoms: C_16  and  C_19
REMARK    9  A    between atoms: C_16  and  C_20
REMARK                            x       y       z     vdW  Elec       q    Type
REMARK                         _______ _______ _______ _____ _____    ______ ____
ROOT
ATOM      1  O   UNL     1      -1.549  -0.701  25.658  0.00  0.00    -0.371 OA
ATOM      8  C   UNL     1      -3.791  -0.781  24.899  0.00  0.00    +0.111 C 
ATOM      9  C   UNL     1      -3.003  -1.832  24.139  0.00  0.00    +0.164 C 
ATOM     10  C   UNL     1      -1.544  -1.575  24.514  0.00  0.00    +0.165 C 
ATOM     11  C   UNL     1      -2.900  -0.537  26.107  0.00  0.00    +0.181 C 
ENDROOT
BRANCH   9   2
ATOM      2  O   UNL     1      -3.394  -3.114  24.636  0.00  0.00    -0.388 OA
ATOM     24  H   UNL     1      -2.598  -3.542  24.996  0.00  0.00    +0.210 HD
ENDBRANCH   9   2
BRANCH   8   4
ATOM      4  N   UNL     1      -3.950   0.443  24.118  0.00  0.00    -0.305 NA
ATOM     23  H   UNL     1      -3.099   0.614  23.580  0.00  0.00    +0.123 HD
BRANCH   4  13
ATOM     13  C   UNL     1      -4.189   1.592  24.985  0.00  0.00    +0.118 C 
BRANCH  13  14
ATOM      7  N   UNL     1      -0.863   3.164  24.095  0.00  0.00    -0.263 NA
ATOM     14  C   UNL     1      -3.048   2.573  24.944  0.00  0.00    -0.015 A 
ATOM     17  C   UNL     1      -3.090   3.753  25.678  0.00  0.00    +0.008 A 
ATOM     18  C   UNL     1      -1.922   2.328  24.175  0.00  0.00    +0.115 A 
ATOM     21  C   UNL     1      -2.022   4.640  25.621  0.00  0.00    +0.020 A 
ATOM     22  C   UNL     1      -0.941   4.302  24.822  0.00  0.00    +0.111 A 
ENDBRANCH  13  14
ENDBRANCH   4  13
ENDBRANCH   8   4
BRANCH  10  12
ATOM     12  C   UNL     1      -0.741  -0.909  23.408  0.00  0.00    +0.140 C 
BRANCH  12   5
ATOM      3  O   UNL     1       1.491  -0.291  21.687  0.00  0.00    -0.253 OA
ATOM      5  N   UNL     1       0.623  -0.705  23.802  0.00  0.00    -0.297 N 
ATOM      6  N   UNL     1       2.873  -0.261  23.550  0.00  0.00    -0.297 N 
ATOM     15  C   UNL     1       1.650  -0.408  22.902  0.00  0.00    +0.300 C 
ATOM     25  H   UNL     1       0.856  -0.791  24.786  0.00  0.00    +0.150 HD
ATOM     26  H   UNL     1       2.917  -0.448  24.548  0.00  0.00    +0.150 HD
BRANCH   6  16
ATOM     16  C   UNL     1       4.099   0.048  22.851  0.00  0.00    +0.068 C 
ATOM     19  C   UNL     1       4.132   1.519  22.456  0.00  0.00    +0.027 C 
ATOM     20  C   UNL     1       5.305  -0.323  23.704  0.00  0.00    +0.027 C 
ENDBRANCH   6  16
ENDBRANCH  12   5
ENDBRANCH  10  12
TORSDOF 7
ENDMDL
MODEL 4
REMARK VINA RESULT:      -5.2      2.122      5.420
REMARK  Name = 75536735
REMARK  9 active torsions:
REMARK  status: ('A' for Active; 'I' for Inactive)
REMARK    1  A    between atoms: O_2  and  C_9
REMARK    2  A    between atoms: N_4  and  C_8
REMARK    3  A    between atoms: N_4  and  C_13
REMARK    4  A    between atoms: N_5  and  C_12
REMARK    5  A    between atoms: N_6  and  C_16
REMARK    6  A    between atoms: C_10  and  C_12
REMARK    7  A    between atoms: C_13  and  C_14
REMARK    8  A    between atoms: C_16  and  C_19
REMARK    9  A    between atoms: C_16  and  C_20
REMARK                            x       y       z     vdW  Elec       q    Type
REMARK                         _______ _______ _______ _____ _____    ______ ____
ROOT
ATOM      1  O   UNL     1       0.913   2.647  24.133  0.00  0.00    -0.371 OA
ATOM      8  C   UNL     1      -0.454   0.720  24.301  0.00  0.00    +0.111 C 
ATOM      9  C   UNL     1      -1.313   1.858  23.777  0.00  0.00    +0.164 C 
ATOM     10  C   UNL     1      -0.434   3.102  23.904  0.00  0.00    +0.165 C 
ATOM     11  C   UNL     1       0.948   1.221  23.993  0.00  0.00    +0.181 C 
ENDROOT
BRANCH   9   2
ATOM      2  O   UNL     1      -1.570   1.607  22.393  0.00  0.00    -0.388 OA
ATOM     24  H   UNL     1      -0.904   2.097  21.880  0.00  0.00    +0.210 HD
ENDBRANCH   9   2
BRANCH   8   4
ATOM      4  N   UNL     1      -0.631   0.529  25.738  0.00  0.00    -0.305 NA
ATOM     23  H   UNL     1       0.239   0.761  26.220  0.00  0.00    +0.123 HD
BRANCH   4  13
ATOM     13  C   UNL     1      -0.978  -0.854  26.045  0.00  0.00    +0.118 C 
BRANCH  13  14
ATOM      7  N   UNL     1      -3.204  -3.000  23.861  0.00  0.00    -0.263 NA
ATOM     14  C   UNL     1      -2.177  -1.319  25.262  0.00  0.00    -0.015 A 
ATOM     17  C   UNL     1      -3.333  -0.548  25.198  0.00  0.00    +0.008 A 
ATOM     18  C   UNL     1      -2.163  -2.526  24.583  0.00  0.00    +0.115 A 
ATOM     21  C   UNL     1      -4.425  -1.002  24.467  0.00  0.00    +0.020 A 
ATOM     22  C   UNL     1      -4.311  -2.224  23.822  0.00  0.00    +0.111 A 
ENDBRANCH  13  14
ENDBRANCH   4  13
ENDBRANCH   8   4
BRANCH  10  12
ATOM     12  C   UNL     1      -0.834   4.011  25.056  0.00  0.00    +0.140 C 
BRANCH  12   5
ATOM      3  O   UNL     1      -3.595   4.225  24.249  0.00  0.00    -0.253 OA
ATOM      5  N   UNL     1      -1.979   3.501  25.753  0.00  0.00    -0.297 N 
ATOM      6  N   UNL     1      -4.206   3.060  26.161  0.00  0.00    -0.297 N 
ATOM     15  C   UNL     1      -3.290   3.648  25.292  0.00  0.00    +0.300 C 
ATOM     25  H   UNL     1      -1.829   3.017  26.632  0.00  0.00    +0.150 HD
ATOM     26  H   UNL     1      -3.864   2.670  27.033  0.00  0.00    +0.150 HD
BRANCH   6  16
ATOM     16  C   UNL     1      -5.631   3.069  25.920  0.00  0.00    +0.068 C 
ATOM     19  C   UNL     1      -6.097   4.465  25.524  0.00  0.00    +0.027 C 
ATOM     20  C   UNL     1      -5.995   2.042  24.857  0.00  0.00    +0.027 C 
ENDBRANCH   6  16
ENDBRANCH  12   5
ENDBRANCH  10  12
TORSDOF 7
ENDMDL
MODEL 5
REMARK VINA RESULT:      -5.2      2.330      5.198
REMARK  Name = 75536735
REMARK  9 active torsions:
REMARK  status: ('A' for Active; 'I' for Inactive)
REMARK    1  A    between atoms: O_2  and  C_9
REMARK    2  A    between atoms: N_4  and  C_8
REMARK    3  A    between atoms: N_4  and  C_13
REMARK    4  A    between atoms: N_5  and  C_12
REMARK    5  A    between atoms: N_6  and  C_16
REMARK    6  A    between atoms: C_10  and  C_12
REMARK    7  A    between atoms: C_13  and  C_14
REMARK    8  A    between atoms: C_16  and  C_19
REMARK    9  A    between atoms: C_16  and  C_20
REMARK                            x       y       z     vdW  Elec       q    Type
REMARK                         _______ _______ _______ _____ _____    ______ ____
ROOT
ATOM      1  O   UNL     1      -1.004  -0.819  25.982  0.00  0.00    -0.371 OA
ATOM      8  C   UNL     1      -2.923  -1.487  24.766  0.00  0.00    +0.111 C 
ATOM      9  C   UNL     1      -1.705  -2.072  24.074  0.00  0.00    +0.164 C 
ATOM     10  C   UNL     1      -0.510  -1.427  24.772  0.00  0.00    +0.165 C 
ATOM     11  C   UNL     1      -2.378  -1.186  26.153  0.00  0.00    +0.181 C 
ENDROOT
BRANCH   9   2
ATOM      2  O   UNL     1      -1.692  -3.479  24.331  0.00  0.00    -0.388 OA
ATOM     24  H   UNL     1      -2.584  -3.817  24.142  0.00  0.00    +0.210 HD
ENDBRANCH   9   2
BRANCH   8   4
ATOM      4  N   UNL     1      -3.378  -0.263  24.112  0.00  0.00    -0.305 NA
ATOM     23  H   UNL     1      -2.844   0.531  24.469  0.00  0.00    +0.123 HD
BRANCH   4  13
ATOM     13  C   UNL     1      -4.794  -0.023  24.372  0.00  0.00    +0.118 C 
BRANCH  13  14
ATOM      7  N   UNL     1      -6.074   2.941  26.346  0.00  0.00    -0.263 NA
ATOM     14  C   UNL     1      -5.054   1.400  24.788  0.00  0.00    -0.015 A 
ATOM     17  C   UNL     1      -4.553   2.466  24.050  0.00  0.00    +0.008 A 
ATOM     18  C   UNL     1      -5.802   1.688  25.919  0.00  0.00    +0.115 A 
ATOM     21  C   UNL     1      -4.811   3.769  24.458  0.00  0.00    +0.020 A 
ATOM     22  C   UNL     1      -5.570   3.953  25.603  0.00  0.00    +0.111 A 
ENDBRANCH  13  14
ENDBRANCH   4  13
ENDBRANCH   8   4
BRANCH  10  12
ATOM     12  C   UNL     1       0.171  -0.350  23.941  0.00  0.00    +0.140 C 
BRANCH  12   5
ATOM      3  O   UNL     1      -1.635   1.835  23.404  0.00  0.00    -0.253 OA
ATOM      5  N   UNL     1       0.134   0.923  24.602  0.00  0.00    -0.297 N 
ATOM      6  N   UNL     1      -0.592   3.061  25.074  0.00  0.00    -0.297 N 
ATOM     15  C   UNL     1      -0.777   1.933  24.280  0.00  0.00    +0.300 C 
ATOM     25  H   UNL     1       0.812   1.103  25.335  0.00  0.00    +0.150 HD
ATOM     26  H   UNL     1       0.190   3.074  25.722  0.00  0.00    +0.150 HD
BRANCH   6  16
ATOM     16  C   UNL     1      -1.402   4.251  24.946  0.00  0.00    +0.068 C 
ATOM     19  C   UNL     1      -2.254   4.453  26.193  0.00  0.00    +0.027 C 
ATOM     20  C   UNL     1      -0.523   5.464  24.673  0.00  0.00    +0.027 C 
ENDBRANCH   6  16
ENDBRANCH  12   5
ENDBRANCH  10  12
TORSDOF 7
ENDMDL
MODEL 6
REMARK VINA RESULT:      -5.2      2.933      6.537
REMARK  Name = 75536735
REMARK  9 active torsions:
REMARK  status: ('A' for Active; 'I' for Inactive)
REMARK    1  A    between atoms: O_2  and  C_9
REMARK    2  A    between atoms: N_4  and  C_8
REMARK    3  A    between atoms: N_4  and  C_13
REMARK    4  A    between atoms: N_5  and  C_12
REMARK    5  A    between atoms: N_6  and  C_16
REMARK    6  A    between atoms: C_10  and  C_12
REMARK    7  A    between atoms: C_13  and  C_14
REMARK    8  A    between atoms: C_16  and  C_19
REMARK    9  A    between atoms: C_16  and  C_20
REMARK                            x       y       z     vdW  Elec       q    Type
REMARK                         _______ _______ _______ _____ _____    ______ ____
ROOT
ATOM      1  O   UNL     1      -1.640  -2.038  23.548  0.00  0.00    -0.371 OA
ATOM      8  C   UNL     1      -0.310  -0.477  24.732  0.00  0.00    +0.111 C 
ATOM      9  C   UNL     1      -0.602  -1.641  25.662  0.00  0.00    +0.164 C 
ATOM     10  C   UNL     1      -1.632  -2.489  24.916  0.00  0.00    +0.165 C 
ATOM     11  C   UNL     1      -0.578  -1.093  23.368  0.00  0.00    +0.181 C 
ENDROOT
BRANCH   9   2
ATOM      2  O   UNL     1       0.604  -2.394  25.809  0.00  0.00    -0.388 OA
ATOM     24  H   UNL     1       0.520  -2.921  26.622  0.00  0.00    +0.210 HD
ENDBRANCH   9   2
BRANCH   8   4
ATOM      4  N   UNL     1      -1.209   0.648  24.977  0.00  0.00    -0.305 NA
ATOM     23  H   UNL     1      -1.378   1.144  24.101  0.00  0.00    +0.123 HD
BRANCH   4  13
ATOM     13  C   UNL     1      -0.631   1.583  25.935  0.00  0.00    +0.118 C 
BRANCH  13  14
ATOM      7  N   UNL     1      -2.577   4.829  26.030  0.00  0.00    -0.263 NA
ATOM     14  C   UNL     1      -1.038   3.004  25.648  0.00  0.00    -0.015 A 
ATOM     17  C   UNL     1      -0.304   3.797  24.772  0.00  0.00    +0.008 A 
ATOM     18  C   UNL     1      -2.156   3.562  26.246  0.00  0.00    +0.115 A 
ATOM     21  C   UNL     1      -0.704   5.105  24.525  0.00  0.00    +0.020 A 
ATOM     22  C   UNL     1      -1.837   5.570  25.173  0.00  0.00    +0.111 A 
ENDBRANCH  13  14
ENDBRANCH   4  13
ENDBRANCH   8   4
BRANCH  10  12
ATOM     12  C   UNL     1      -3.042  -2.357  25.470  0.00  0.00    +0.140 C 
BRANCH  12   5
ATOM      3  O   UNL     1      -4.625  -0.631  23.784  0.00  0.00    -0.253 OA
ATOM      5  N   UNL     1      -3.382  -0.985  25.715  0.00  0.00    -0.297 N 
ATOM      6  N   UNL     1      -4.333   1.080  25.324  0.00  0.00    -0.297 N 
ATOM     15  C   UNL     1      -4.157  -0.215  24.844  0.00  0.00    +0.300 C 
ATOM     25  H   UNL     1      -3.032  -0.548  26.562  0.00  0.00    +0.150 HD
ATOM     26  H   UNL     1      -3.847   1.351  26.173  0.00  0.00    +0.150 HD
BRANCH   6  16
ATOM     16  C   UNL     1      -5.095   2.082  24.614  0.00  0.00    +0.068 C 
ATOM     19  C   UNL     1      -5.728   3.064  25.591  0.00  0.00    +0.027 C 
ATOM     20  C   UNL     1      -4.212   2.800  23.601  0.00  0.00    +0.027 C 
ENDBRANCH   6  16
ENDBRANCH  12   5
ENDBRANCH  10  12
TORSDOF 7
ENDMDL
MODEL 7
REMARK VINA RESULT:      -5.1      2.378      5.415
REMARK  Name = 75536735
REMARK  9 active torsions:
REMARK  status: ('A' for Active; 'I' for Inactive)
REMARK    1  A    between atoms: O_2  and  C_9
REMARK    2  A    between atoms: N_4  and  C_8
REMARK    3  A    between atoms: N_4  and  C_13
REMARK    4  A    between atoms: N_5  and  C_12
REMARK    5  A    between atoms: N_6  and  C_16
REMARK    6  A    between atoms: C_10  and  C_12
REMARK    7  A    between atoms: C_13  and  C_14
REMARK    8  A    between atoms: C_16  and  C_19
REMARK    9  A    between atoms: C_16  and  C_20
REMARK                            x       y       z     vdW  Elec       q    Type
REMARK                         _______ _______ _______ _____ _____    ______ ____
ROOT
ATOM      1  O   UNL     1      -0.892   3.463  24.267  0.00  0.00    -0.371 OA
ATOM      8  C   UNL     1       0.042   1.694  25.534  0.00  0.00    +0.111 C 
ATOM      9  C   UNL     1       0.301   1.405  24.066  0.00  0.00    +0.164 C 
ATOM     10  C   UNL     1      -0.510   2.457  23.311  0.00  0.00    +0.165 C 
ATOM     11  C   UNL     1      -0.238   3.188  25.512  0.00  0.00    +0.181 C 
ENDROOT
BRANCH   9   2
ATOM      2  O   UNL     1       1.693   1.622  23.819  0.00  0.00    -0.388 OA
ATOM     24  H   UNL     1       1.838   1.513  22.863  0.00  0.00    +0.210 HD
ENDBRANCH   9   2
BRANCH   8   4
ATOM      4  N   UNL     1      -1.117   0.957  26.032  0.00  0.00    -0.305 NA
ATOM     23  H   UNL     1      -1.358   1.295  26.964  0.00  0.00    +0.123 HD
BRANCH   4  13
ATOM     13  C   UNL     1      -0.835  -0.471  26.114  0.00  0.00    +0.118 C 
BRANCH  13  14
ATOM      7  N   UNL     1      -2.389  -3.104  23.882  0.00  0.00    -0.263 NA
ATOM     14  C   UNL     1      -1.874  -1.290  25.395  0.00  0.00    -0.015 A 
ATOM     17  C   UNL     1      -3.230  -1.024  25.549  0.00  0.00    +0.008 A 
ATOM     18  C   UNL     1      -1.509  -2.332  24.558  0.00  0.00    +0.115 A 
ATOM     21  C   UNL     1      -4.166  -1.796  24.871  0.00  0.00    +0.020 A 
ATOM     22  C   UNL     1      -3.699  -2.816  24.057  0.00  0.00    +0.111 A 
ENDBRANCH  13  14
ENDBRANCH   4  13
ENDBRANCH   8   4
BRANCH  10  12
ATOM     12  C   UNL     1      -1.773   1.903  22.669  0.00  0.00    +0.140 C 
BRANCH  12   5
ATOM      3  O   UNL     1      -4.127   3.445  23.308  0.00  0.00    -0.253 OA
ATOM      5  N   UNL     1      -2.768   1.593  23.655  0.00  0.00    -0.297 N 
ATOM      6  N   UNL     1      -4.684   1.863  24.911  0.00  0.00    -0.297 N 
ATOM     15  C   UNL     1      -3.884   2.397  23.904  0.00  0.00    +0.300 C 
ATOM     25  H   UNL     1      -2.649   0.750  24.208  0.00  0.00    +0.150 HD
ATOM     26  H   UNL     1      -4.363   1.030  25.393  0.00  0.00    +0.150 HD
BRANCH   6  16
ATOM     16  C   UNL     1      -5.901   2.498  25.363  0.00  0.00    +0.068 C 
ATOM     19  C   UNL     1      -6.490   1.742  26.547  0.00  0.00    +0.027 C 
ATOM     20  C   UNL     1      -5.639   3.957  25.713  0.00  0.00    +0.027 C 
ENDBRANCH   6  16
ENDBRANCH  12   5
ENDBRANCH  10  12
TORSDOF 7
ENDMDL
MODEL 8
REMARK VINA RESULT:      -5.1      1.851      3.972
REMARK  Name = 75536735
REMARK  9 active torsions:
REMARK  status: ('A' for Active; 'I' for Inactive)
REMARK    1  A    between atoms: O_2  and  C_9
REMARK    2  A    between atoms: N_4  and  C_8
REMARK    3  A    between atoms: N_4  and  C_13
REMARK    4  A    between atoms: N_5  and  C_12
REMARK    5  A    between atoms: N_6  and  C_16
REMARK    6  A    between atoms: C_10  and  C_12
REMARK    7  A    between atoms: C_13  and  C_14
REMARK    8  A    between atoms: C_16  and  C_19
REMARK    9  A    between atoms: C_16  and  C_20
REMARK                            x       y       z     vdW  Elec       q    Type
REMARK                         _______ _______ _______ _____ _____    ______ ____
ROOT
ATOM      1  O   UNL     1      -1.891  -0.113  26.074  0.00  0.00    -0.371 OA
ATOM      8  C   UNL     1      -3.034  -1.607  24.635  0.00  0.00    +0.111 C 
ATOM      9  C   UNL     1      -1.588  -1.535  24.180  0.00  0.00    +0.164 C 
ATOM     10  C   UNL     1      -0.974  -0.402  25.001  0.00  0.00    +0.165 C 
ATOM     11  C   UNL     1      -2.937  -1.092  26.063  0.00  0.00    +0.181 C 
ENDROOT
BRANCH   9   2
ATOM      2  O   UNL     1      -0.956  -2.766  24.539  0.00  0.00    -0.388 OA
ATOM     24  H   UNL     1      -0.270  -2.560  25.196  0.00  0.00    +0.210 HD
ENDBRANCH   9   2
BRANCH   8   4
ATOM      4  N   UNL     1      -3.896  -0.743  23.832  0.00  0.00    -0.305 NA
ATOM     23  H   UNL     1      -3.346   0.032  23.460  0.00  0.00    +0.123 HD
BRANCH   4  13
ATOM     13  C   UNL     1      -4.986  -0.197  24.633  0.00  0.00    +0.118 C 
BRANCH  13  14
ATOM      7  N   UNL     1      -5.582   3.307  25.935  0.00  0.00    -0.263 NA
ATOM     14  C   UNL     1      -4.859   1.293  24.811  0.00  0.00    -0.015 A 
ATOM     17  C   UNL     1      -3.949   2.029  24.060  0.00  0.00    +0.008 A 
ATOM     18  C   UNL     1      -5.645   1.973  25.727  0.00  0.00    +0.115 A 
ATOM     21  C   UNL     1      -3.854   3.403  24.245  0.00  0.00    +0.020 A 
ATOM     22  C   UNL     1      -4.685   3.990  25.187  0.00  0.00    +0.111 A 
ENDBRANCH  13  14
ENDBRANCH   4  13
ENDBRANCH   8   4
BRANCH  10  12
ATOM     12  C   UNL     1      -0.754   0.875  24.205  0.00  0.00    +0.140 C 
BRANCH  12   5
ATOM      3  O   UNL     1       1.295  -0.076  22.410  0.00  0.00    -0.253 OA
ATOM      5  N   UNL     1       0.630   1.253  24.195  0.00  0.00    -0.297 N 
ATOM      6  N   UNL     1       2.830   1.278  23.502  0.00  0.00    -0.297 N 
ATOM     15  C   UNL     1       1.563   0.744  23.288  0.00  0.00    +0.300 C 
ATOM     25  H   UNL     1       0.950   1.919  24.891  0.00  0.00    +0.150 HD
ATOM     26  H   UNL     1       2.967   1.894  24.298  0.00  0.00    +0.150 HD
BRANCH   6  16
ATOM     16  C   UNL     1       3.978   0.918  22.701  0.00  0.00    +0.068 C 
ATOM     19  C   UNL     1       4.978   0.121  23.529  0.00  0.00    +0.027 C 
ATOM     20  C   UNL     1       3.539   0.142  21.466  0.00  0.00    +0.027 C 
ENDBRANCH   6  16
ENDBRANCH  12   5
ENDBRANCH  10  12
TORSDOF 7
ENDMDL
MODEL 9
REMARK VINA RESULT:      -5.0      2.228      4.733
REMARK  Name = 75536735
REMARK  9 active torsions:
REMARK  status: ('A' for Active; 'I' for Inactive)
REMARK    1  A    between atoms: O_2  and  C_9
REMARK    2  A    between atoms: N_4  and  C_8
REMARK    3  A    between atoms: N_4  and  C_13
REMARK    4  A    between atoms: N_5  and  C_12
REMARK    5  A    between atoms: N_6  and  C_16
REMARK    6  A    between atoms: C_10  and  C_12
REMARK    7  A    between atoms: C_13  and  C_14
REMARK    8  A    between atoms: C_16  and  C_19
REMARK    9  A    between atoms: C_16  and  C_20
REMARK                            x       y       z     vdW  Elec       q    Type
REMARK                         _______ _______ _______ _____ _____    ______ ____
ROOT
ATOM      1  O   UNL     1       0.862   2.937  23.745  0.00  0.00    -0.371 OA
ATOM      8  C   UNL     1      -1.310   2.988  24.689  0.00  0.00    +0.111 C 
ATOM      9  C   UNL     1      -0.515   1.910  25.404  0.00  0.00    +0.164 C 
ATOM     10  C   UNL     1       0.782   1.784  24.606  0.00  0.00    +0.165 C 
ATOM     11  C   UNL     1      -0.205   3.835  24.077  0.00  0.00    +0.181 C 
ENDROOT
BRANCH   9   2
ATOM      2  O   UNL     1      -0.211   2.391  26.716  0.00  0.00    -0.388 OA
ATOM     24  H   UNL     1      -1.056   2.548  27.171  0.00  0.00    +0.210 HD
ENDBRANCH   9   2
BRANCH   8   4
ATOM      4  N   UNL     1      -2.167   2.425  23.649  0.00  0.00    -0.305 NA
ATOM     23  H   UNL     1      -1.682   2.467  22.751  0.00  0.00    +0.123 HD
BRANCH   4  13
ATOM     13  C   UNL     1      -3.415   3.172  23.536  0.00  0.00    +0.118 C 
BRANCH  13  14
ATOM      7  N   UNL     1      -5.940   3.260  26.355  0.00  0.00    -0.263 NA
ATOM     14  C   UNL     1      -4.436   2.713  24.543  0.00  0.00    -0.015 A 
ATOM     17  C   UNL     1      -4.820   1.379  24.616  0.00  0.00    +0.008 A 
ATOM     18  C   UNL     1      -5.020   3.606  25.427  0.00  0.00    +0.115 A 
ATOM     21  C   UNL     1      -5.765   0.984  25.557  0.00  0.00    +0.020 A 
ATOM     22  C   UNL     1      -6.290   1.954  26.396  0.00  0.00    +0.111 A 
ENDBRANCH  13  14
ENDBRANCH   4  13
ENDBRANCH   8   4
BRANCH  10  12
ATOM     12  C   UNL     1       0.842   0.536  23.738  0.00  0.00    +0.140 C 
BRANCH  12   5
ATOM      3  O   UNL     1      -0.419  -1.462  25.394  0.00  0.00    -0.253 OA
ATOM      5  N   UNL     1      -0.459  -0.039  23.558  0.00  0.00    -0.297 N 
ATOM      6  N   UNL     1      -2.275  -1.391  24.003  0.00  0.00    -0.297 N 
ATOM     15  C   UNL     1      -1.000  -1.007  24.409  0.00  0.00    +0.300 C 
ATOM     25  H   UNL     1      -1.013   0.266  22.763  0.00  0.00    +0.150 HD
ATOM     26  H   UNL     1      -2.641  -1.012  23.135  0.00  0.00    +0.150 HD
BRANCH   6  16
ATOM     16  C   UNL     1      -3.057  -2.379  24.709  0.00  0.00    +0.068 C 
ATOM     19  C   UNL     1      -3.460  -1.859  26.083  0.00  0.00    +0.027 C 
ATOM     20  C   UNL     1      -4.277  -2.776  23.888  0.00  0.00    +0.027 C 
ENDBRANCH   6  16
ENDBRANCH  12   5
ENDBRANCH  10  12
TORSDOF 7
ENDMDL
MODEL 10
REMARK VINA RESULT:      -4.3      2.713      6.449
REMARK  Name = 75536735
REMARK  9 active torsions:
REMARK  status: ('A' for Active; 'I' for Inactive)
REMARK    1  A    between atoms: O_2  and  C_9
REMARK    2  A    between atoms: N_4  and  C_8
REMARK    3  A    between atoms: N_4  and  C_13
REMARK    4  A    between atoms: N_5  and  C_12
REMARK    5  A    between atoms: N_6  and  C_16
REMARK    6  A    between atoms: C_10  and  C_12
REMARK    7  A    between atoms: C_13  and  C_14
REMARK    8  A    between atoms: C_16  and  C_19
REMARK    9  A    between atoms: C_16  and  C_20
REMARK                            x       y       z     vdW  Elec       q    Type
REMARK                         _______ _______ _______ _____ _____    ______ ____
ROOT
ATOM      1  O   UNL     1      -2.951  -2.796  24.301  0.00  0.00    -0.371 OA
ATOM      8  C   UNL     1      -1.115  -1.395  24.826  0.00  0.00    +0.111 C 
ATOM      9  C   UNL     1      -2.332  -0.867  25.565  0.00  0.00    +0.164 C 
ATOM     10  C   UNL     1      -3.506  -1.674  25.013  0.00  0.00    +0.165 C 
ATOM     11  C   UNL     1      -1.535  -2.823  24.516  0.00  0.00    +0.181 C 
ENDROOT
BRANCH   9   2
ATOM      2  O   UNL     1      -2.166  -1.174  26.952  0.00  0.00    -0.388 OA
ATOM     24  H   UNL     1      -3.043  -1.395  27.308  0.00  0.00    +0.210 HD
ENDBRANCH   9   2
BRANCH   8   4
ATOM      4  N   UNL     1      -0.869  -0.650  23.594  0.00  0.00    -0.305 NA
ATOM     23  H   UNL     1      -0.707  -1.306  22.828  0.00  0.00    +0.123 HD
BRANCH   4  13
ATOM     13  C   UNL     1       0.303   0.209  23.725  0.00  0.00    +0.118 C 
BRANCH  13  14
ATOM      7  N   UNL     1      -0.988   3.760  23.941  0.00  0.00    -0.263 NA
ATOM     14  C   UNL     1      -0.051   1.559  24.289  0.00  0.00    -0.015 A 
ATOM     17  C   UNL     1       0.209   1.872  25.618  0.00  0.00    +0.008 A 
ATOM     18  C   UNL     1      -0.646   2.529  23.499  0.00  0.00    +0.115 A 
ATOM     21  C   UNL     1      -0.128   3.127  26.111  0.00  0.00    +0.020 A 
ATOM     22  C   UNL     1      -0.720   4.028  25.239  0.00  0.00    +0.111 A 
ENDBRANCH  13  14
ENDBRANCH   4  13
ENDBRANCH   8   4
BRANCH  10  12
ATOM     12  C   UNL     1      -4.385  -0.886  24.053  0.00  0.00    +0.140 C 
BRANCH  12   5
ATOM      3  O   UNL     1      -5.404   1.282  25.660  0.00  0.00    -0.253 OA
ATOM      5  N   UNL     1      -3.992   0.492  23.994  0.00  0.00    -0.297 N 
ATOM      6  N   UNL     1      -3.977   2.732  24.544  0.00  0.00    -0.297 N 
ATOM     15  C   UNL     1      -4.537   1.486  24.811  0.00  0.00    +0.300 C 
ATOM     25  H   UNL     1      -3.287   0.761  23.314  0.00  0.00    +0.150 HD
ATOM     26  H   UNL     1      -3.319   2.812  23.775  0.00  0.00    +0.150 HD
BRANCH   6  16
ATOM     16  C   UNL     1      -4.365   3.932  25.250  0.00  0.00    +0.068 C 
ATOM     19  C   UNL     1      -5.873   3.962  25.464  0.00  0.00    +0.027 C 
ATOM     20  C   UNL     1      -3.616   4.034  26.572  0.00  0.00    +0.027 C 
ENDBRANCH   6  16
ENDBRANCH  12   5
ENDBRANCH  10  12
TORSDOF 7
ENDMDL
