MODEL 1
REMARK VINA RESULT:      -4.9      0.000      0.000
REMARK  Name = 56775959
REMARK  4 active torsions:
REMARK  status: ('A' for Active; 'I' for Inactive)
REMARK    1  A    between atoms: O_5  and  C_21
REMARK    2  A    between atoms: O_5  and  C_22
REMARK    3  A    between atoms: C_9  and  C_11
REMARK    4  A    between atoms: C_14  and  C_16
REMARK                            x       y       z     vdW  Elec       q    Type
REMARK                         _______ _______ _______ _____ _____    ______ ____
ROOT
ATOM      7  N   UNL     1      -6.849  -9.798  14.168  0.00  0.00    -0.341 N 
ATOM      8  N   UNL     1      -8.623 -10.348  12.952  0.00  0.00    -0.238 NA
ATOM     11  C   UNL     1      -8.210  -9.916  14.122  0.00  0.00    +0.127 A 
ATOM     14  C   UNL     1      -6.363 -10.180  12.951  0.00  0.00    +0.066 A 
ATOM     15  C   UNL     1      -7.476 -10.515  12.216  0.00  0.00    +0.139 A 
ATOM     24  H   UNL     1      -6.309  -9.475  14.961  0.00  0.00    +0.167 HD
ENDROOT
BRANCH  11   9
ATOM      4  O   UNL     1     -10.720  -8.006  16.198  0.00  0.00    -0.377 OA
ATOM      6  N   UNL     1      -8.266  -9.414  16.541  0.00  0.00    -0.303 NA
ATOM      9  C   UNL     1      -9.074  -9.569  15.319  0.00  0.00    +0.146 C 
ATOM     10  C   UNL     1      -9.895  -8.296  15.067  0.00  0.00    +0.186 C 
ATOM     12  C   UNL     1      -9.117  -9.055  17.678  0.00  0.00    +0.109 C 
ATOM     13  C   UNL     1      -9.924  -7.801  17.366  0.00  0.00    +0.175 C 
ATOM     23  H   UNL     1      -7.587  -8.666  16.395  0.00  0.00    +0.123 HD
ENDBRANCH  11   9
BRANCH  14  16
ATOM     16  C   UNL     1      -4.961 -10.186  12.623  0.00  0.00    +0.000 A 
ATOM     17  C   UNL     1      -4.551  -9.977  11.306  0.00  0.00    +0.013 A 
ATOM     18  C   UNL     1      -4.012 -10.400  13.623  0.00  0.00    +0.013 A 
ATOM     19  C   UNL     1      -3.193  -9.982  10.989  0.00  0.00    +0.046 A 
ATOM     20  C   UNL     1      -2.654 -10.405  13.305  0.00  0.00    +0.046 A 
ATOM     21  C   UNL     1      -2.245 -10.196  11.989  0.00  0.00    +0.130 A 
BRANCH  21   5
ATOM      5  O   UNL     1      -0.919 -10.199  11.680  0.00  0.00    -0.406 OA
BRANCH   5  22
ATOM      1  F   UNL     1       0.907  -9.268  10.734  0.00  0.00    -0.133 F 
ATOM      2  F   UNL     1      -1.056  -8.498  10.158  0.00  0.00    -0.133 F 
ATOM      3  F   UNL     1      -0.233  -8.071  12.164  0.00  0.00    -0.133 F 
ATOM     22  C   UNL     1      -0.339  -8.996  11.187  0.00  0.00    +0.575 C 
ENDBRANCH   5  22
ENDBRANCH  21   5
ENDBRANCH  14  16
TORSDOF 4
ENDMDL
MODEL 2
REMARK VINA RESULT:      -4.6     15.752     18.048
REMARK  Name = 56775959
REMARK  4 active torsions:
REMARK  status: ('A' for Active; 'I' for Inactive)
REMARK    1  A    between atoms: O_5  and  C_21
REMARK    2  A    between atoms: O_5  and  C_22
REMARK    3  A    between atoms: C_9  and  C_11
REMARK    4  A    between atoms: C_14  and  C_16
REMARK                            x       y       z     vdW  Elec       q    Type
REMARK                         _______ _______ _______ _____ _____    ______ ____
ROOT
ATOM      7  N   UNL     1       1.223   0.817  23.647  0.00  0.00    -0.341 N 
ATOM      8  N   UNL     1       1.073  -0.637  21.976  0.00  0.00    -0.238 NA
ATOM     11  C   UNL     1       1.889  -0.038  22.814  0.00  0.00    +0.127 A 
ATOM     14  C   UNL     1      -0.101   0.760  23.321  0.00  0.00    +0.066 A 
ATOM     15  C   UNL     1      -0.171  -0.144  22.287  0.00  0.00    +0.139 A 
ATOM     24  H   UNL     1       1.642   1.378  24.379  0.00  0.00    +0.167 HD
ENDROOT
BRANCH  11   9
ATOM      4  O   UNL     1       5.174  -1.609  23.812  0.00  0.00    -0.377 OA
ATOM      6  N   UNL     1       4.050   0.983  23.441  0.00  0.00    -0.303 NA
ATOM      9  C   UNL     1       3.391  -0.221  22.906  0.00  0.00    +0.146 C 
ATOM     10  C   UNL     1       3.755  -1.443  23.763  0.00  0.00    +0.186 C 
ATOM     12  C   UNL     1       5.496   0.776  23.545  0.00  0.00    +0.109 C 
ATOM     13  C   UNL     1       5.799  -0.459  24.384  0.00  0.00    +0.175 C 
ATOM     23  H   UNL     1       3.681   1.174  24.374  0.00  0.00    +0.123 HD
ENDBRANCH  11   9
BRANCH  14  16
ATOM     16  C   UNL     1      -1.118   1.529  23.990  0.00  0.00    +0.000 A 
ATOM     17  C   UNL     1      -0.854   2.841  24.383  0.00  0.00    +0.013 A 
ATOM     18  C   UNL     1      -2.366   0.962  24.246  0.00  0.00    +0.013 A 
ATOM     19  C   UNL     1      -1.840   3.586  25.031  0.00  0.00    +0.046 A 
ATOM     20  C   UNL     1      -3.351   1.707  24.894  0.00  0.00    +0.046 A 
ATOM     21  C   UNL     1      -3.087   3.020  25.286  0.00  0.00    +0.130 A 
BRANCH  21   5
ATOM      5  O   UNL     1      -4.050   3.747  25.916  0.00  0.00    -0.406 OA
BRANCH   5  22
ATOM      1  F   UNL     1      -5.887   2.633  26.611  0.00  0.00    -0.133 F 
ATOM      2  F   UNL     1      -6.165   4.567  25.630  0.00  0.00    -0.133 F 
ATOM      3  F   UNL     1      -5.538   2.800  24.460  0.00  0.00    -0.133 F 
ATOM     22  C   UNL     1      -5.413   3.446  25.638  0.00  0.00    +0.575 C 
ENDBRANCH   5  22
ENDBRANCH  21   5
ENDBRANCH  14  16
TORSDOF 4
ENDMDL
MODEL 3
REMARK VINA RESULT:      -4.4     14.945     15.868
REMARK  Name = 56775959
REMARK  4 active torsions:
REMARK  status: ('A' for Active; 'I' for Inactive)
REMARK    1  A    between atoms: O_5  and  C_21
REMARK    2  A    between atoms: O_5  and  C_22
REMARK    3  A    between atoms: C_9  and  C_11
REMARK    4  A    between atoms: C_14  and  C_16
REMARK                            x       y       z     vdW  Elec       q    Type
REMARK                         _______ _______ _______ _____ _____    ______ ____
ROOT
ATOM      7  N   UNL     1      -1.844   1.340  23.858  0.00  0.00    -0.341 N 
ATOM      8  N   UNL     1      -3.062  -0.397  24.512  0.00  0.00    -0.238 NA
ATOM     11  C   UNL     1      -3.070   0.893  24.263  0.00  0.00    +0.127 A 
ATOM     14  C   UNL     1      -0.999   0.268  23.847  0.00  0.00    +0.066 A 
ATOM     15  C   UNL     1      -1.773  -0.794  24.255  0.00  0.00    +0.139 A 
ATOM     24  H   UNL     1      -1.615   2.293  23.602  0.00  0.00    +0.167 HD
ENDROOT
BRANCH  11   9
ATOM      4  O   UNL     1      -4.930   4.128  24.841  0.00  0.00    -0.377 OA
ATOM      6  N   UNL     1      -5.233   1.345  25.371  0.00  0.00    -0.303 NA
ATOM      9  C   UNL     1      -4.252   1.834  24.386  0.00  0.00    +0.146 C 
ATOM     10  C   UNL     1      -3.802   3.255  24.757  0.00  0.00    +0.186 C 
ATOM     12  C   UNL     1      -6.353   2.281  25.492  0.00  0.00    +0.109 C 
ATOM     13  C   UNL     1      -5.848   3.675  25.837  0.00  0.00    +0.175 C 
ATOM     23  H   UNL     1      -4.776   1.266  26.280  0.00  0.00    +0.123 HD
ENDBRANCH  11   9
BRANCH  14  16
ATOM     16  C   UNL     1       0.387   0.353  23.469  0.00  0.00    +0.000 A 
ATOM     17  C   UNL     1       1.171   1.413  23.924  0.00  0.00    +0.013 A 
ATOM     18  C   UNL     1       0.947  -0.625  22.647  0.00  0.00    +0.013 A 
ATOM     19  C   UNL     1       2.514   1.495  23.558  0.00  0.00    +0.046 A 
ATOM     20  C   UNL     1       2.290  -0.543  22.281  0.00  0.00    +0.046 A 
ATOM     21  C   UNL     1       3.074   0.517  22.737  0.00  0.00    +0.130 A 
BRANCH  21   5
ATOM      5  O   UNL     1       4.385   0.595  22.382  0.00  0.00    -0.406 OA
BRANCH   5  22
ATOM      1  F   UNL     1       4.872  -1.048  23.852  0.00  0.00    -0.133 F 
ATOM      2  F   UNL     1       6.497  -0.247  22.629  0.00  0.00    -0.133 F 
ATOM      3  F   UNL     1       5.630   0.960  24.265  0.00  0.00    -0.133 F 
ATOM     22  C   UNL     1       5.360   0.077  23.280  0.00  0.00    +0.575 C 
ENDBRANCH   5  22
ENDBRANCH  21   5
ENDBRANCH  14  16
TORSDOF 4
ENDMDL
MODEL 4
REMARK VINA RESULT:      -2.4     15.210     17.502
REMARK  Name = 56775959
REMARK  4 active torsions:
REMARK  status: ('A' for Active; 'I' for Inactive)
REMARK    1  A    between atoms: O_5  and  C_21
REMARK    2  A    between atoms: O_5  and  C_22
REMARK    3  A    between atoms: C_9  and  C_11
REMARK    4  A    between atoms: C_14  and  C_16
REMARK                            x       y       z     vdW  Elec       q    Type
REMARK                         _______ _______ _______ _____ _____    ______ ____
ROOT
ATOM      7  N   UNL     1       0.997   0.190  24.041  0.00  0.00    -0.341 N 
ATOM      8  N   UNL     1       1.623  -0.357  21.982  0.00  0.00    -0.238 NA
ATOM     11  C   UNL     1       2.039  -0.064  23.194  0.00  0.00    +0.127 A 
ATOM     14  C   UNL     1      -0.157   0.049  23.325  0.00  0.00    +0.066 A 
ATOM     15  C   UNL     1       0.253  -0.288  22.057  0.00  0.00    +0.139 A 
ATOM     24  H   UNL     1       1.075   0.426  25.022  0.00  0.00    +0.167 HD
ENDROOT
BRANCH  11   9
ATOM      4  O   UNL     1       5.669   0.975  23.242  0.00  0.00    -0.377 OA
ATOM      6  N   UNL     1       4.082  -1.337  23.753  0.00  0.00    -0.303 NA
ATOM      9  C   UNL     1       3.477   0.004  23.668  0.00  0.00    +0.146 C 
ATOM     10  C   UNL     1       4.325   0.905  22.759  0.00  0.00    +0.186 C 
ATOM     12  C   UNL     1       5.478  -1.246  24.188  0.00  0.00    +0.109 C 
ATOM     13  C   UNL     1       6.265  -0.323  23.267  0.00  0.00    +0.175 C 
ATOM     23  H   UNL     1       4.059  -1.768  22.828  0.00  0.00    +0.123 HD
ENDBRANCH  11   9
BRANCH  14  16
ATOM     16  C   UNL     1      -1.469   0.239  23.889  0.00  0.00    +0.000 A 
ATOM     17  C   UNL     1      -2.158  -0.845  24.433  0.00  0.00    +0.013 A 
ATOM     18  C   UNL     1      -2.049   1.507  23.892  0.00  0.00    +0.013 A 
ATOM     19  C   UNL     1      -3.427  -0.661  24.980  0.00  0.00    +0.046 A 
ATOM     20  C   UNL     1      -3.319   1.691  24.438  0.00  0.00    +0.046 A 
ATOM     21  C   UNL     1      -4.008   0.607  24.983  0.00  0.00    +0.130 A 
BRANCH  21   5
ATOM      5  O   UNL     1      -5.246   0.788  25.518  0.00  0.00    -0.406 OA
BRANCH   5  22
ATOM      1  F   UNL     1      -5.350   2.850  26.431  0.00  0.00    -0.133 F 
ATOM      2  F   UNL     1      -5.527   2.676  24.260  0.00  0.00    -0.133 F 
ATOM      3  F   UNL     1      -7.177   2.012  25.572  0.00  0.00    -0.133 F 
ATOM     22  C   UNL     1      -5.836   2.080  25.431  0.00  0.00    +0.575 C 
ENDBRANCH   5  22
ENDBRANCH  21   5
ENDBRANCH  14  16
TORSDOF 4
ENDMDL
MODEL 5
REMARK VINA RESULT:      -2.1     16.037     17.811
REMARK  Name = 56775959
REMARK  4 active torsions:
REMARK  status: ('A' for Active; 'I' for Inactive)
REMARK    1  A    between atoms: O_5  and  C_21
REMARK    2  A    between atoms: O_5  and  C_22
REMARK    3  A    between atoms: C_9  and  C_11
REMARK    4  A    between atoms: C_14  and  C_16
REMARK                            x       y       z     vdW  Elec       q    Type
REMARK                         _______ _______ _______ _____ _____    ______ ____
ROOT
ATOM      7  N   UNL     1       0.828   0.343  23.743  0.00  0.00    -0.341 N 
ATOM      8  N   UNL     1       1.954   2.233  23.448  0.00  0.00    -0.238 NA
ATOM     11  C   UNL     1       2.030   0.921  23.445  0.00  0.00    +0.127 A 
ATOM     14  C   UNL     1      -0.072   1.349  23.950  0.00  0.00    +0.066 A 
ATOM     15  C   UNL     1       0.646   2.507  23.763  0.00  0.00    +0.139 A 
ATOM     24  H   UNL     1       0.643  -0.652  23.788  0.00  0.00    +0.167 HD
ENDROOT
BRANCH  11   9
ATOM      4  O   UNL     1       4.389  -2.021  23.629  0.00  0.00    -0.377 OA
ATOM      6  N   UNL     1       4.499   0.821  23.451  0.00  0.00    -0.303 NA
ATOM      9  C   UNL     1       3.259   0.083  23.155  0.00  0.00    +0.146 C 
ATOM     10  C   UNL     1       3.234  -1.238  23.939  0.00  0.00    +0.186 C 
ATOM     12  C   UNL     1       5.672  -0.016  23.188  0.00  0.00    +0.109 C 
ATOM     13  C   UNL     1       5.584  -1.319  23.972  0.00  0.00    +0.175 C 
ATOM     23  H   UNL     1       4.500   1.080  24.439  0.00  0.00    +0.123 HD
ENDBRANCH  11   9
BRANCH  14  16
ATOM     16  C   UNL     1      -1.453   1.122  24.286  0.00  0.00    +0.000 A 
ATOM     17  C   UNL     1      -2.441   1.970  23.786  0.00  0.00    +0.013 A 
ATOM     18  C   UNL     1      -1.803   0.054  25.112  0.00  0.00    +0.013 A 
ATOM     19  C   UNL     1      -3.779   1.749  24.112  0.00  0.00    +0.046 A 
ATOM     20  C   UNL     1      -3.141  -0.167  25.436  0.00  0.00    +0.046 A 
ATOM     21  C   UNL     1      -4.129   0.681  24.936  0.00  0.00    +0.130 A 
BRANCH  21   5
ATOM      5  O   UNL     1      -5.435   0.464  25.252  0.00  0.00    -0.406 OA
BRANCH   5  22
ATOM      1  F   UNL     1      -6.893   1.273  26.773  0.00  0.00    -0.133 F 
ATOM      2  F   UNL     1      -5.463   2.662  25.879  0.00  0.00    -0.133 F 
ATOM      3  F   UNL     1      -7.147   1.871  24.687  0.00  0.00    -0.133 F 
ATOM     22  C   UNL     1      -6.231   1.580  25.634  0.00  0.00    +0.575 C 
ENDBRANCH   5  22
ENDBRANCH  21   5
ENDBRANCH  14  16
TORSDOF 4
ENDMDL
MODEL 6
REMARK VINA RESULT:      -2.0     15.420     16.485
REMARK  Name = 56775959
REMARK  4 active torsions:
REMARK  status: ('A' for Active; 'I' for Inactive)
REMARK    1  A    between atoms: O_5  and  C_21
REMARK    2  A    between atoms: O_5  and  C_22
REMARK    3  A    between atoms: C_9  and  C_11
REMARK    4  A    between atoms: C_14  and  C_16
REMARK                            x       y       z     vdW  Elec       q    Type
REMARK                         _______ _______ _______ _____ _____    ______ ____
ROOT
ATOM      7  N   UNL     1      -1.804   1.976  24.153  0.00  0.00    -0.341 N 
ATOM      8  N   UNL     1      -1.953   4.053  24.922  0.00  0.00    -0.238 NA
ATOM     11  C   UNL     1      -2.626   2.971  24.604  0.00  0.00    +0.127 A 
ATOM     14  C   UNL     1      -0.525   2.454  24.186  0.00  0.00    +0.066 A 
ATOM     15  C   UNL     1      -0.641   3.738  24.664  0.00  0.00    +0.139 A 
ATOM     24  H   UNL     1      -2.096   1.052  23.861  0.00  0.00    +0.167 HD
ENDROOT
BRANCH  11   9
ATOM      4  O   UNL     1      -6.160   3.492  25.826  0.00  0.00    -0.377 OA
ATOM      6  N   UNL     1      -4.470   1.366  24.964  0.00  0.00    -0.303 NA
ATOM      9  C   UNL     1      -4.126   2.773  24.698  0.00  0.00    +0.146 C 
ATOM     10  C   UNL     1      -4.744   3.677  25.775  0.00  0.00    +0.186 C 
ATOM     12  C   UNL     1      -5.921   1.203  25.076  0.00  0.00    +0.109 C 
ATOM     13  C   UNL     1      -6.483   2.137  26.140  0.00  0.00    +0.175 C 
ATOM     23  H   UNL     1      -4.042   1.083  25.847  0.00  0.00    +0.123 HD
ENDBRANCH  11   9
BRANCH  14  16
ATOM     16  C   UNL     1       0.621   1.683  23.781  0.00  0.00    +0.000 A 
ATOM     17  C   UNL     1       0.531   0.294  23.692  0.00  0.00    +0.013 A 
ATOM     18  C   UNL     1       1.822   2.325  23.479  0.00  0.00    +0.013 A 
ATOM     19  C   UNL     1       1.642  -0.453  23.299  0.00  0.00    +0.046 A 
ATOM     20  C   UNL     1       2.932   1.578  23.087  0.00  0.00    +0.046 A 
ATOM     21  C   UNL     1       2.842   0.189  22.997  0.00  0.00    +0.130 A 
BRANCH  21   5
ATOM      5  O   UNL     1       3.925  -0.539  22.611  0.00  0.00    -0.406 OA
BRANCH   5  22
ATOM      1  F   UNL     1       5.155  -1.629  24.160  0.00  0.00    -0.133 F 
ATOM      2  F   UNL     1       6.209  -0.427  22.670  0.00  0.00    -0.133 F 
ATOM      3  F   UNL     1       5.050   0.551  24.278  0.00  0.00    -0.133 F 
ATOM     22  C   UNL     1       5.092  -0.495  23.425  0.00  0.00    +0.575 C 
ENDBRANCH   5  22
ENDBRANCH  21   5
ENDBRANCH  14  16
TORSDOF 4
ENDMDL
