MODEL 1
REMARK VINA RESULT:       7.3      0.000      0.000
REMARK  Name = 11911961
REMARK  2 active torsions:
REMARK  status: ('A' for Active; 'I' for Inactive)
REMARK    1  A    between atoms: C_16  and  C_19
REMARK    2  A    between atoms: C_17  and  C_20
REMARK                            x       y       z     vdW  Elec       q    Type
REMARK                         _______ _______ _______ _____ _____    ______ ____
ROOT
ATOM      2  O   UNL     1       0.689   2.022  25.548  0.00  0.00    -0.267 OA
ATOM      3  O   UNL     1      -2.963  -0.446  26.565  0.00  0.00    -0.267 OA
ATOM      5  N   UNL     1      -4.101   0.879  25.040  0.00  0.00    -0.294 N 
ATOM      6  N   UNL     1      -1.325   2.228  24.388  0.00  0.00    -0.311 N 
ATOM      7  C   UNL     1      -3.428   3.238  25.448  0.00  0.00    +0.027 C 
ATOM      8  C   UNL     1      -3.511   2.371  23.146  0.00  0.00    +0.054 C 
ATOM      9  C   UNL     1      -3.810   3.592  24.015  0.00  0.00    +0.018 C 
ATOM     10  C   UNL     1      -1.916   2.978  25.506  0.00  0.00    +0.130 C 
ATOM     11  C   UNL     1      -4.243   2.027  25.937  0.00  0.00    +0.113 C 
ATOM     12  C   UNL     1      -4.364   1.176  23.621  0.00  0.00    +0.117 C 
ATOM     13  C   UNL     1      -2.042   2.001  23.209  0.00  0.00    +0.027 A 
ATOM     14  C   UNL     1      -1.446   1.415  22.157  0.00  0.00    +0.022 A 
ATOM     15  C   UNL     1       0.021   1.835  24.529  0.00  0.00    +0.260 A 
ATOM     16  C   UNL     1      -3.659  -0.355  25.552  0.00  0.00    +0.282 C 
ATOM     17  C   UNL     1       0.646   1.152  23.344  0.00  0.00    +0.053 A 
ATOM     18  C   UNL     1      -0.079   0.985  22.229  0.00  0.00    +0.016 A 
ENDROOT
BRANCH  17  20
ATOM      1  S   UNL     1       2.323  -0.952  23.712  0.00  0.00    -0.088 S 
ATOM     20  C   UNL     1       1.998   0.696  23.396  0.00  0.00    +0.026 A 
ATOM     21  C   UNL     1       3.159   1.418  23.221  0.00  0.00    +0.024 A 
ATOM     23  C   UNL     1       4.345   0.618  23.346  0.00  0.00    -0.010 A 
ATOM     24  C   UNL     1       4.029  -0.716  23.618  0.00  0.00    +0.020 A 
ATOM     27  C   UNL     1       5.711   0.973  23.237  0.00  0.00    +0.009 A 
ATOM     28  C   UNL     1       5.031  -1.693  23.782  0.00  0.00    +0.015 A 
ATOM     29  C   UNL     1       6.709   0.008  23.399  0.00  0.00    +0.001 A 
ATOM     30  C   UNL     1       6.370  -1.310  23.668  0.00  0.00    +0.001 A 
ENDBRANCH  17  20
BRANCH  16  19
ATOM      4  O   UNL     1      -3.548  -2.738  25.255  0.00  0.00    -0.458 OA
ATOM     19  C   UNL     1      -4.034  -1.553  24.813  0.00  0.00    +0.189 A 
ATOM     22  C   UNL     1      -4.820  -1.720  23.705  0.00  0.00    +0.054 A 
ATOM     25  C   UNL     1      -4.822  -3.111  23.441  0.00  0.00    +0.042 A 
ATOM     26  C   UNL     1      -4.035  -3.686  24.411  0.00  0.00    +0.196 A 
ENDBRANCH  16  19
TORSDOF 2
ENDMDL
