MODEL 1
REMARK VINA RESULT:       1.4      0.000      0.000
REMARK  Name = 7051565
REMARK  8 active torsions:
REMARK  status: ('A' for Active; 'I' for Inactive)
REMARK    1  A    between atoms: O_3  and  C_21
REMARK    2  A    between atoms: O_3  and  C_28
REMARK    3  A    between atoms: N_5  and  C_25
REMARK    4  A    between atoms: C_6  and  C_7
REMARK    5  A    between atoms: C_7  and  C_13
REMARK    6  A    between atoms: C_7  and  C_14
REMARK    7  A    between atoms: C_15  and  C_23
REMARK    8  A    between atoms: C_16  and  C_24
REMARK                            x       y       z     vdW  Elec       q    Type
REMARK                         _______ _______ _______ _____ _____    ______ ____
ROOT
ATOM      7  C   UNL     1      -3.875  -1.525  23.836  0.00  0.00    +0.075 C 
ATOM     14  C   UNL     1      -5.136  -2.373  23.793  0.00  0.00    +0.017 C 
ENDROOT
BRANCH   7   6
ATOM      6  C   UNL     1      -4.114  -0.209  24.572  0.00  0.00    +0.005 C 
ATOM      8  C   UNL     1      -5.423   0.445  24.116  0.00  0.00    +0.009 C 
ATOM      9  C   UNL     1      -2.943   0.759  24.345  0.00  0.00    +0.040 C 
ATOM     10  C   UNL     1      -5.715   1.694  24.946  0.00  0.00    +0.036 C 
ATOM     11  C   UNL     1      -3.216   2.158  24.842  0.00  0.00    -0.037 A 
ATOM     12  C   UNL     1      -4.526   2.610  25.087  0.00  0.00    -0.041 A 
ATOM     15  C   UNL     1      -2.140   3.043  25.008  0.00  0.00    -0.005 A 
ATOM     16  C   UNL     1      -4.729   3.926  25.527  0.00  0.00    -0.044 A 
ATOM     21  C   UNL     1      -2.357   4.352  25.436  0.00  0.00    +0.124 A 
ATOM     22  C   UNL     1      -3.649   4.793  25.699  0.00  0.00    +0.049 A 
ATOM     23  C   UNL     1      -0.737   2.607  24.719  0.00  0.00    +0.048 C 
ATOM     24  C   UNL     1      -6.097   4.445  25.837  0.00  0.00    +0.044 C 
BRANCH  21   3
ATOM      3  O   UNL     1      -1.316   5.215  25.603  0.00  0.00    -0.495 OA
ATOM     28  C   UNL     1      -0.621   5.627  24.428  0.00  0.00    +0.277 C 
ENDBRANCH  21   3
ENDBRANCH   7   6
BRANCH   7  13
ATOM      2  O   UNL     1      -3.074  -3.195  25.321  0.00  0.00    -0.275 OA
ATOM      4  N   UNL     1      -1.471  -1.934  24.207  0.00  0.00    -0.298 N 
ATOM      5  N   UNL     1       1.274  -1.119  23.783  0.00  0.00    -0.327 N 
ATOM     13  C   UNL     1      -2.779  -2.298  24.527  0.00  0.00    +0.219 C 
ATOM     17  C   UNL     1      -0.354  -2.639  24.830  0.00  0.00    +0.126 C 
ATOM     18  C   UNL     1      -1.122  -0.861  23.272  0.00  0.00    +0.126 C 
ATOM     19  C   UNL     1       0.849  -1.724  25.048  0.00  0.00    +0.124 C 
ATOM     20  C   UNL     1       0.289  -1.006  22.704  0.00  0.00    +0.124 C 
BRANCH   5  25
ATOM      1  F   UNL     1       6.526   0.563  23.062  0.00  0.00    -0.205 F 
ATOM     25  C   UNL     1       2.590  -0.697  23.602  0.00  0.00    +0.030 A 
ATOM     26  C   UNL     1       3.682  -1.501  24.005  0.00  0.00    +0.026 A 
ATOM     27  C   UNL     1       2.888   0.552  23.008  0.00  0.00    +0.026 A 
ATOM     29  C   UNL     1       4.999  -1.079  23.825  0.00  0.00    +0.040 A 
ATOM     30  C   UNL     1       4.205   0.974  22.828  0.00  0.00    +0.040 A 
ATOM     31  C   UNL     1       5.261   0.159  23.236  0.00  0.00    +0.124 A 
ENDBRANCH   5  25
ENDBRANCH   7  13
TORSDOF 4
ENDMDL
