MODEL 1
REMARK VINA RESULT:      -5.1      0.000      0.000
REMARK  Name = 38027614
REMARK  14 active torsions:
REMARK  status: ('A' for Active; 'I' for Inactive)
REMARK    1  A    between atoms: S_1  and  N_6
REMARK    2  A    between atoms: S_1  and  C_21
REMARK    3  A    between atoms: O_5  and  C_25
REMARK    4  A    between atoms: O_5  and  C_29
REMARK    5  A    between atoms: N_6  and  C_15
REMARK    6  A    between atoms: N_7  and  C_22
REMARK    7  A    between atoms: C_8  and  C_12
REMARK    8  A    between atoms: C_9  and  C_15
REMARK    9  A    between atoms: C_11  and  C_16
REMARK   10  A    between atoms: C_12  and  C_17
REMARK   11  A    between atoms: C_12  and  C_18
REMARK   12  A    between atoms: C_13  and  C_19
REMARK   13  A    between atoms: C_16  and  C_20
REMARK   14  A    between atoms: C_22  and  C_25
REMARK                            x       y       z     vdW  Elec       q    Type
REMARK                         _______ _______ _______ _____ _____    ______ ____
ROOT
ATOM      8  C   UNL     1      -2.384  -1.434  24.196  0.00  0.00    +0.000 C 
ATOM      9  C   UNL     1      -3.028  -0.557  25.299  0.00  0.00    +0.030 C 
ATOM     10  C   UNL     1      -0.864  -1.526  24.404  0.00  0.00    +0.012 C 
ATOM     11  C   UNL     1      -0.188  -0.142  24.385  0.00  0.00    +0.023 C 
ATOM     13  C   UNL     1      -0.930   0.859  25.248  0.00  0.00    -0.073 C 
ATOM     14  C   UNL     1      -2.193   0.651  25.657  0.00  0.00    -0.023 C 
ATOM     19  C   UNL     1      -0.170   2.087  25.666  0.00  0.00    +0.039 C 
ENDROOT
BRANCH   8  12
ATOM     12  C   UNL     1      -2.988  -2.841  24.161  0.00  0.00    -0.013 C 
ATOM     17  C   UNL     1      -3.203  -3.364  25.577  0.00  0.00    +0.007 C 
ATOM     18  C   UNL     1      -4.299  -2.837  23.380  0.00  0.00    +0.007 C 
ENDBRANCH   8  12
BRANCH   9  15
ATOM     15  C   UNL     1      -4.435  -0.103  24.893  0.00  0.00    +0.113 C 
BRANCH  15   6
ATOM      6  N   UNL     1      -5.028   0.668  25.997  0.00  0.00    -0.189 NA
ATOM     30  H   UNL     1      -5.390   0.121  26.789  0.00  0.00    +0.148 HD
BRANCH   6   1
ATOM      1  S   UNL     1      -5.758   2.178  25.694  0.00  0.00    +0.058 S 
ATOM      3  O   UNL     1      -6.379   2.661  26.912  0.00  0.00    -0.153 OA
ATOM      4  O   UNL     1      -6.525   2.097  24.466  0.00  0.00    -0.153 OA
BRANCH   1  21
ATOM     21  C   UNL     1      -4.351   3.195  25.359  0.00  0.00    +0.105 A 
ATOM     23  C   UNL     1      -3.742   3.905  26.394  0.00  0.00    +0.028 A 
ATOM     24  C   UNL     1      -3.851   3.287  24.061  0.00  0.00    +0.028 A 
ATOM     26  C   UNL     1      -2.632   4.707  26.129  0.00  0.00    +0.002 A 
ATOM     27  C   UNL     1      -2.741   4.090  23.796  0.00  0.00    +0.002 A 
ATOM     28  C   UNL     1      -2.132   4.800  24.831  0.00  0.00    +0.000 A 
ENDBRANCH   1  21
ENDBRANCH   6   1
ENDBRANCH  15   6
ENDBRANCH   9  15
BRANCH  11  16
ATOM     16  C   UNL     1      -0.034   0.377  22.951  0.00  0.00    +0.103 C 
BRANCH  16  20
ATOM      2  O   UNL     1       1.265  -0.697  21.216  0.00  0.00    -0.276 OA
ATOM      7  N   UNL     1       2.345   0.165  23.086  0.00  0.00    -0.313 N 
ATOM     20  C   UNL     1       1.237  -0.120  22.300  0.00  0.00    +0.214 C 
ATOM     31  H   UNL     1       2.220   0.648  23.970  0.00  0.00    +0.149 HD
BRANCH   7  22
ATOM     22  C   UNL     1       3.691  -0.196  22.711  0.00  0.00    +0.132 C 
BRANCH  22  25
ATOM     25  C   UNL     1       4.667   0.936  22.979  0.00  0.00    +0.178 C 
BRANCH  25   5
ATOM      5  O   UNL     1       5.398   0.659  24.166  0.00  0.00    -0.381 OA
ATOM     29  C   UNL     1       5.615  -0.736  24.332  0.00  0.00    +0.194 C 
ENDBRANCH  25   5
ENDBRANCH  22  25
ENDBRANCH   7  22
ENDBRANCH  16  20
ENDBRANCH  11  16
TORSDOF 10
ENDMDL
MODEL 2
REMARK VINA RESULT:      -4.1      1.499      4.550
REMARK  Name = 38027614
REMARK  14 active torsions:
REMARK  status: ('A' for Active; 'I' for Inactive)
REMARK    1  A    between atoms: S_1  and  N_6
REMARK    2  A    between atoms: S_1  and  C_21
REMARK    3  A    between atoms: O_5  and  C_25
REMARK    4  A    between atoms: O_5  and  C_29
REMARK    5  A    between atoms: N_6  and  C_15
REMARK    6  A    between atoms: N_7  and  C_22
REMARK    7  A    between atoms: C_8  and  C_12
REMARK    8  A    between atoms: C_9  and  C_15
REMARK    9  A    between atoms: C_11  and  C_16
REMARK   10  A    between atoms: C_12  and  C_17
REMARK   11  A    between atoms: C_12  and  C_18
REMARK   12  A    between atoms: C_13  and  C_19
REMARK   13  A    between atoms: C_16  and  C_20
REMARK   14  A    between atoms: C_22  and  C_25
REMARK                            x       y       z     vdW  Elec       q    Type
REMARK                         _______ _______ _______ _____ _____    ______ ____
ROOT
ATOM      8  C   UNL     1      -2.125   3.528  24.973  0.00  0.00    +0.000 C 
ATOM      9  C   UNL     1      -3.295   3.790  23.992  0.00  0.00    +0.030 C 
ATOM     10  C   UNL     1      -0.856   3.130  24.201  0.00  0.00    +0.012 C 
ATOM     11  C   UNL     1      -1.068   1.868  23.344  0.00  0.00    +0.023 C 
ATOM     13  C   UNL     1      -2.353   1.939  22.544  0.00  0.00    -0.073 C 
ATOM     14  C   UNL     1      -3.331   2.813  22.840  0.00  0.00    -0.023 C 
ATOM     19  C   UNL     1      -2.470   1.011  21.367  0.00  0.00    +0.039 C 
ENDROOT
BRANCH   8  12
ATOM     12  C   UNL     1      -1.835   4.748  25.853  0.00  0.00    -0.013 C 
ATOM     17  C   UNL     1      -1.670   5.997  24.995  0.00  0.00    +0.007 C 
ATOM     18  C   UNL     1      -2.946   4.938  26.880  0.00  0.00    +0.007 C 
ENDBRANCH   8  12
BRANCH   9  15
ATOM     15  C   UNL     1      -4.643   3.769  24.721  0.00  0.00    +0.113 C 
BRANCH  15   6
ATOM      6  N   UNL     1      -4.642   2.673  25.703  0.00  0.00    -0.189 NA
ATOM     30  H   UNL     1      -3.734   2.443  26.125  0.00  0.00    +0.148 HD
BRANCH   6   1
ATOM      1  S   UNL     1      -5.790   1.419  25.589  0.00  0.00    +0.058 S 
ATOM      3  O   UNL     1      -6.640   1.652  24.437  0.00  0.00    -0.153 OA
ATOM      4  O   UNL     1      -6.376   1.191  26.895  0.00  0.00    -0.153 OA
BRANCH   1  21
ATOM     21  C   UNL     1      -4.762   0.024  25.234  0.00  0.00    +0.105 A 
ATOM     23  C   UNL     1      -4.772  -0.543  23.960  0.00  0.00    +0.028 A 
ATOM     24  C   UNL     1      -3.941  -0.507  26.227  0.00  0.00    +0.028 A 
ATOM     26  C   UNL     1      -3.961  -1.642  23.679  0.00  0.00    +0.002 A 
ATOM     27  C   UNL     1      -3.130  -1.608  25.948  0.00  0.00    +0.002 A 
ATOM     28  C   UNL     1      -3.141  -2.175  24.673  0.00  0.00    +0.000 A 
ENDBRANCH   1  21
ENDBRANCH   6   1
ENDBRANCH  15   6
ENDBRANCH   9  15
BRANCH  11  16
ATOM     16  C   UNL     1      -1.027   0.602  24.207  0.00  0.00    +0.103 C 
BRANCH  16  20
ATOM      2  O   UNL     1       0.283  -1.431  24.251  0.00  0.00    -0.276 OA
ATOM      7  N   UNL     1       1.119   0.445  23.162  0.00  0.00    -0.313 N 
ATOM     20  C   UNL     1       0.175  -0.261  23.895  0.00  0.00    +0.214 C 
ATOM     31  H   UNL     1       0.938   1.413  22.914  0.00  0.00    +0.149 HD
BRANCH   7  22
ATOM     22  C   UNL     1       2.369  -0.130  22.726  0.00  0.00    +0.132 C 
BRANCH  22  25
ATOM     25  C   UNL     1       3.492   0.892  22.752  0.00  0.00    +0.178 C 
BRANCH  25   5
ATOM      5  O   UNL     1       4.741   0.224  22.630  0.00  0.00    -0.381 OA
ATOM     29  C   UNL     1       5.423   0.161  23.875  0.00  0.00    +0.194 C 
ENDBRANCH  25   5
ENDBRANCH  22  25
ENDBRANCH   7  22
ENDBRANCH  16  20
ENDBRANCH  11  16
TORSDOF 10
ENDMDL
MODEL 3
REMARK VINA RESULT:      -3.0     17.852     19.858
REMARK  Name = 38027614
REMARK  14 active torsions:
REMARK  status: ('A' for Active; 'I' for Inactive)
REMARK    1  A    between atoms: S_1  and  N_6
REMARK    2  A    between atoms: S_1  and  C_21
REMARK    3  A    between atoms: O_5  and  C_25
REMARK    4  A    between atoms: O_5  and  C_29
REMARK    5  A    between atoms: N_6  and  C_15
REMARK    6  A    between atoms: N_7  and  C_22
REMARK    7  A    between atoms: C_8  and  C_12
REMARK    8  A    between atoms: C_9  and  C_15
REMARK    9  A    between atoms: C_11  and  C_16
REMARK   10  A    between atoms: C_12  and  C_17
REMARK   11  A    between atoms: C_12  and  C_18
REMARK   12  A    between atoms: C_13  and  C_19
REMARK   13  A    between atoms: C_16  and  C_20
REMARK   14  A    between atoms: C_22  and  C_25
REMARK                            x       y       z     vdW  Elec       q    Type
REMARK                         _______ _______ _______ _____ _____    ______ ____
ROOT
ATOM      8  C   UNL     1      16.778  -6.305  28.817  0.00  0.00    +0.000 C 
ATOM      9  C   UNL     1      16.020  -7.585  29.250  0.00  0.00    +0.030 C 
ATOM     10  C   UNL     1      16.103  -5.670  27.592  0.00  0.00    +0.012 C 
ATOM     11  C   UNL     1      16.046  -6.634  26.392  0.00  0.00    +0.023 C 
ATOM     13  C   UNL     1      15.557  -8.010  26.798  0.00  0.00    -0.073 C 
ATOM     14  C   UNL     1      15.541  -8.412  28.080  0.00  0.00    -0.023 C 
ATOM     19  C   UNL     1      15.045  -8.898  25.698  0.00  0.00    +0.039 C 
ENDROOT
BRANCH   8  12
ATOM     12  C   UNL     1      16.862  -5.281  29.953  0.00  0.00    -0.013 C 
ATOM     17  C   UNL     1      17.361  -3.940  29.425  0.00  0.00    +0.007 C 
ATOM     18  C   UNL     1      15.504  -5.125  30.630  0.00  0.00    +0.007 C 
ENDBRANCH   8  12
BRANCH   9  15
ATOM     15  C   UNL     1      16.883  -8.455  30.171  0.00  0.00    +0.113 C 
BRANCH  15   6
ATOM      6  N   UNL     1      16.186  -8.635  31.454  0.00  0.00    -0.189 NA
ATOM     30  H   UNL     1      16.713  -8.373  32.298  0.00  0.00    +0.148 HD
BRANCH   6   1
ATOM      1  S   UNL     1      14.998  -9.845  31.622  0.00  0.00    +0.058 S 
ATOM      3  O   UNL     1      15.205 -10.548  32.873  0.00  0.00    -0.153 OA
ATOM      4  O   UNL     1      14.891 -10.582  30.379  0.00  0.00    -0.153 OA
BRANCH   1  21
ATOM     21  C   UNL     1      13.524  -8.880  31.778  0.00  0.00    +0.105 A 
ATOM     23  C   UNL     1      13.598  -7.562  32.230  0.00  0.00    +0.028 A 
ATOM     24  C   UNL     1      12.289  -9.435  31.448  0.00  0.00    +0.028 A 
ATOM     26  C   UNL     1      12.436  -6.801  32.353  0.00  0.00    +0.002 A 
ATOM     27  C   UNL     1      11.125  -8.674  31.571  0.00  0.00    +0.002 A 
ATOM     28  C   UNL     1      11.200  -7.357  32.024  0.00  0.00    +0.000 A 
ENDBRANCH   1  21
ENDBRANCH   6   1
ENDBRANCH  15   6
ENDBRANCH   9  15
BRANCH  11  16
ATOM     16  C   UNL     1      17.405  -6.720  25.689  0.00  0.00    +0.103 C 
BRANCH  16  20
ATOM      2  O   UNL     1      17.333  -6.849  23.274  0.00  0.00    -0.276 OA
ATOM      7  N   UNL     1      17.345  -4.768  24.309  0.00  0.00    -0.313 N 
ATOM     20  C   UNL     1      17.358  -6.155  24.287  0.00  0.00    +0.214 C 
ATOM     31  H   UNL     1      17.368  -4.281  25.200  0.00  0.00    +0.149 HD
BRANCH   7  22
ATOM     22  C   UNL     1      17.303  -3.960  23.113  0.00  0.00    +0.132 C 
BRANCH  22  25
ATOM     25  C   UNL     1      17.376  -2.479  23.437  0.00  0.00    +0.178 C 
BRANCH  25   5
ATOM      5  O   UNL     1      16.321  -2.137  24.326  0.00  0.00    -0.381 OA
ATOM     29  C   UNL     1      16.819  -1.618  25.552  0.00  0.00    +0.194 C 
ENDBRANCH  25   5
ENDBRANCH  22  25
ENDBRANCH   7  22
ENDBRANCH  16  20
ENDBRANCH  11  16
TORSDOF 10
ENDMDL
MODEL 4
REMARK VINA RESULT:      -2.0      1.820      3.335
REMARK  Name = 38027614
REMARK  14 active torsions:
REMARK  status: ('A' for Active; 'I' for Inactive)
REMARK    1  A    between atoms: S_1  and  N_6
REMARK    2  A    between atoms: S_1  and  C_21
REMARK    3  A    between atoms: O_5  and  C_25
REMARK    4  A    between atoms: O_5  and  C_29
REMARK    5  A    between atoms: N_6  and  C_15
REMARK    6  A    between atoms: N_7  and  C_22
REMARK    7  A    between atoms: C_8  and  C_12
REMARK    8  A    between atoms: C_9  and  C_15
REMARK    9  A    between atoms: C_11  and  C_16
REMARK   10  A    between atoms: C_12  and  C_17
REMARK   11  A    between atoms: C_12  and  C_18
REMARK   12  A    between atoms: C_13  and  C_19
REMARK   13  A    between atoms: C_16  and  C_20
REMARK   14  A    between atoms: C_22  and  C_25
REMARK                            x       y       z     vdW  Elec       q    Type
REMARK                         _______ _______ _______ _____ _____    ______ ____
ROOT
ATOM      8  C   UNL     1      -3.465   1.422  23.569  0.00  0.00    +0.000 C 
ATOM      9  C   UNL     1      -4.770   0.949  24.258  0.00  0.00    +0.030 C 
ATOM     10  C   UNL     1      -2.682   0.219  23.019  0.00  0.00    +0.012 C 
ATOM     11  C   UNL     1      -2.315  -0.792  24.121  0.00  0.00    +0.023 C 
ATOM     13  C   UNL     1      -3.498  -1.105  25.015  0.00  0.00    -0.073 C 
ATOM     14  C   UNL     1      -4.591  -0.323  25.053  0.00  0.00    -0.023 C 
ATOM     19  C   UNL     1      -3.415  -2.363  25.833  0.00  0.00    +0.039 C 
ENDROOT
BRANCH   8  12
ATOM     12  C   UNL     1      -3.744   2.419  22.441  0.00  0.00    -0.013 C 
ATOM     17  C   UNL     1      -3.950   3.820  23.006  0.00  0.00    +0.007 C 
ATOM     18  C   UNL     1      -2.606   2.406  21.425  0.00  0.00    +0.007 C 
ENDBRANCH   8  12
BRANCH   9  15
ATOM     15  C   UNL     1      -5.344   2.043  25.165  0.00  0.00    +0.113 C 
BRANCH  15   6
ATOM      6  N   UNL     1      -4.381   2.330  26.241  0.00  0.00    -0.189 NA
ATOM     30  H   UNL     1      -4.353   1.656  27.017  0.00  0.00    +0.148 HD
BRANCH   6   1
ATOM      1  S   UNL     1      -3.938   3.938  26.589  0.00  0.00    +0.058 S 
ATOM      3  O   UNL     1      -3.734   4.078  28.018  0.00  0.00    -0.153 OA
ATOM      4  O   UNL     1      -4.830   4.839  25.886  0.00  0.00    -0.153 OA
BRANCH   1  21
ATOM     21  C   UNL     1      -2.359   4.053  25.800  0.00  0.00    +0.105 A 
ATOM     23  C   UNL     1      -1.522   2.939  25.750  0.00  0.00    +0.028 A 
ATOM     24  C   UNL     1      -1.952   5.258  25.229  0.00  0.00    +0.028 A 
ATOM     26  C   UNL     1      -0.277   3.030  25.127  0.00  0.00    +0.002 A 
ATOM     27  C   UNL     1      -0.706   5.350  24.607  0.00  0.00    +0.002 A 
ATOM     28  C   UNL     1       0.131   4.235  24.556  0.00  0.00    +0.000 A 
ENDBRANCH   1  21
ENDBRANCH   6   1
ENDBRANCH  15   6
ENDBRANCH   9  15
BRANCH  11  16
ATOM     16  C   UNL     1      -1.120  -0.299  24.945  0.00  0.00    +0.103 C 
BRANCH  16  20
ATOM      2  O   UNL     1       0.718  -1.864  24.781  0.00  0.00    -0.276 OA
ATOM      7  N   UNL     1       0.714   0.041  23.448  0.00  0.00    -0.313 N 
ATOM     20  C   UNL     1       0.194  -0.818  24.407  0.00  0.00    +0.214 C 
ATOM     31  H   UNL     1       0.205   0.885  23.204  0.00  0.00    +0.149 HD
BRANCH   7  22
ATOM     22  C   UNL     1       1.962  -0.203  22.765  0.00  0.00    +0.132 C 
BRANCH  22  25
ATOM     25  C   UNL     1       2.944   0.935  22.974  0.00  0.00    +0.178 C 
BRANCH  25   5
ATOM      5  O   UNL     1       4.206   0.578  22.425  0.00  0.00    -0.381 OA
ATOM     29  C   UNL     1       5.142   0.247  23.442  0.00  0.00    +0.194 C 
ENDBRANCH  25   5
ENDBRANCH  22  25
ENDBRANCH   7  22
ENDBRANCH  16  20
ENDBRANCH  11  16
TORSDOF 10
ENDMDL
MODEL 5
REMARK VINA RESULT:      -2.0      2.216      7.646
REMARK  Name = 38027614
REMARK  14 active torsions:
REMARK  status: ('A' for Active; 'I' for Inactive)
REMARK    1  A    between atoms: S_1  and  N_6
REMARK    2  A    between atoms: S_1  and  C_21
REMARK    3  A    between atoms: O_5  and  C_25
REMARK    4  A    between atoms: O_5  and  C_29
REMARK    5  A    between atoms: N_6  and  C_15
REMARK    6  A    between atoms: N_7  and  C_22
REMARK    7  A    between atoms: C_8  and  C_12
REMARK    8  A    between atoms: C_9  and  C_15
REMARK    9  A    between atoms: C_11  and  C_16
REMARK   10  A    between atoms: C_12  and  C_17
REMARK   11  A    between atoms: C_12  and  C_18
REMARK   12  A    between atoms: C_13  and  C_19
REMARK   13  A    between atoms: C_16  and  C_20
REMARK   14  A    between atoms: C_22  and  C_25
REMARK                            x       y       z     vdW  Elec       q    Type
REMARK                         _______ _______ _______ _____ _____    ______ ____
ROOT
ATOM      8  C   UNL     1      -1.406   0.532  24.734  0.00  0.00    +0.000 C 
ATOM      9  C   UNL     1      -0.743  -0.839  24.452  0.00  0.00    +0.030 C 
ATOM     10  C   UNL     1      -2.506   0.388  25.797  0.00  0.00    +0.012 C 
ATOM     11  C   UNL     1      -3.602  -0.607  25.371  0.00  0.00    +0.023 C 
ATOM     13  C   UNL     1      -3.015  -1.892  24.826  0.00  0.00    -0.073 C 
ATOM     14  C   UNL     1      -1.732  -1.981  24.432  0.00  0.00    -0.023 C 
ATOM     19  C   UNL     1      -3.924  -3.088  24.784  0.00  0.00    +0.039 C 
ENDROOT
BRANCH   8  12
ATOM     12  C   UNL     1      -0.382   1.579  25.186  0.00  0.00    -0.013 C 
ATOM     17  C   UNL     1      -0.396   2.778  24.245  0.00  0.00    +0.007 C 
ATOM     18  C   UNL     1      -0.663   2.012  26.621  0.00  0.00    +0.007 C 
ENDBRANCH   8  12
BRANCH   9  15
ATOM     15  C   UNL     1       0.037  -0.816  23.133  0.00  0.00    +0.113 C 
BRANCH  15   6
ATOM      6  N   UNL     1       1.478  -0.778  23.427  0.00  0.00    -0.189 NA
ATOM     30  H   UNL     1       1.755  -1.050  24.379  0.00  0.00    +0.148 HD
BRANCH   6   1
ATOM      1  S   UNL     1       2.493   0.315  22.603  0.00  0.00    +0.058 S 
ATOM      3  O   UNL     1       2.201   1.665  23.045  0.00  0.00    -0.153 OA
ATOM      4  O   UNL     1       2.491  -0.008  21.189  0.00  0.00    -0.153 OA
BRANCH   1  21
ATOM     21  C   UNL     1       4.085  -0.131  23.231  0.00  0.00    +0.105 A 
ATOM     23  C   UNL     1       5.118   0.806  23.240  0.00  0.00    +0.028 A 
ATOM     24  C   UNL     1       4.307  -1.419  23.718  0.00  0.00    +0.028 A 
ATOM     26  C   UNL     1       6.374   0.454  23.736  0.00  0.00    +0.002 A 
ATOM     27  C   UNL     1       5.563  -1.771  24.213  0.00  0.00    +0.002 A 
ATOM     28  C   UNL     1       6.596  -0.834  24.222  0.00  0.00    +0.000 A 
ENDBRANCH   1  21
ENDBRANCH   6   1
ENDBRANCH  15   6
ENDBRANCH   9  15
BRANCH  11  16
ATOM     16  C   UNL     1      -4.562   0.030  24.360  0.00  0.00    +0.103 C 
BRANCH  16  20
ATOM      2  O   UNL     1      -5.876   1.724  25.482  0.00  0.00    -0.276 OA
ATOM      7  N   UNL     1      -4.080   2.363  24.150  0.00  0.00    -0.313 N 
ATOM     20  C   UNL     1      -4.936   1.444  24.742  0.00  0.00    +0.214 C 
ATOM     31  H   UNL     1      -3.329   2.034  23.552  0.00  0.00    +0.149 HD
BRANCH   7  22
ATOM     22  C   UNL     1      -4.202   3.790  24.339  0.00  0.00    +0.132 C 
BRANCH  22  25
ATOM     25  C   UNL     1      -4.098   4.169  25.806  0.00  0.00    +0.178 C 
BRANCH  25   5
ATOM      5  O   UNL     1      -2.729   4.301  26.163  0.00  0.00    -0.381 OA
ATOM     29  C   UNL     1      -2.062   5.246  25.336  0.00  0.00    +0.194 C 
ENDBRANCH  25   5
ENDBRANCH  22  25
ENDBRANCH   7  22
ENDBRANCH  16  20
ENDBRANCH  11  16
TORSDOF 10
ENDMDL
MODEL 6
REMARK VINA RESULT:      -1.7      2.275      7.026
REMARK  Name = 38027614
REMARK  14 active torsions:
REMARK  status: ('A' for Active; 'I' for Inactive)
REMARK    1  A    between atoms: S_1  and  N_6
REMARK    2  A    between atoms: S_1  and  C_21
REMARK    3  A    between atoms: O_5  and  C_25
REMARK    4  A    between atoms: O_5  and  C_29
REMARK    5  A    between atoms: N_6  and  C_15
REMARK    6  A    between atoms: N_7  and  C_22
REMARK    7  A    between atoms: C_8  and  C_12
REMARK    8  A    between atoms: C_9  and  C_15
REMARK    9  A    between atoms: C_11  and  C_16
REMARK   10  A    between atoms: C_12  and  C_17
REMARK   11  A    between atoms: C_12  and  C_18
REMARK   12  A    between atoms: C_13  and  C_19
REMARK   13  A    between atoms: C_16  and  C_20
REMARK   14  A    between atoms: C_22  and  C_25
REMARK                            x       y       z     vdW  Elec       q    Type
REMARK                         _______ _______ _______ _____ _____    ______ ____
ROOT
ATOM      8  C   UNL     1      -2.680   2.097  23.866  0.00  0.00    +0.000 C 
ATOM      9  C   UNL     1      -1.398   2.647  24.540  0.00  0.00    +0.030 C 
ATOM     10  C   UNL     1      -3.748   3.198  23.765  0.00  0.00    +0.012 C 
ATOM     11  C   UNL     1      -4.127   3.770  25.144  0.00  0.00    +0.023 C 
ATOM     13  C   UNL     1      -2.903   4.089  25.977  0.00  0.00    -0.073 C 
ATOM     14  C   UNL     1      -1.689   3.589  25.685  0.00  0.00    -0.023 C 
ATOM     19  C   UNL     1      -3.096   5.033  27.132  0.00  0.00    +0.039 C 
ENDROOT
BRANCH   8  12
ATOM     12  C   UNL     1      -2.392   1.526  22.474  0.00  0.00    -0.013 C 
ATOM     17  C   UNL     1      -3.061   0.165  22.309  0.00  0.00    +0.007 C 
ATOM     18  C   UNL     1      -2.861   2.495  21.393  0.00  0.00    +0.007 C 
ENDBRANCH   8  12
BRANCH   9  15
ATOM     15  C   UNL     1      -0.499   1.507  25.031  0.00  0.00    +0.113 C 
BRANCH  15   6
ATOM      6  N   UNL     1       0.652   1.377  24.123  0.00  0.00    -0.189 NA
ATOM     30  H   UNL     1       0.944   2.233  23.635  0.00  0.00    +0.148 HD
BRANCH   6   1
ATOM      1  S   UNL     1       0.970  -0.109  23.351  0.00  0.00    +0.058 S 
ATOM      3  O   UNL     1       0.535  -0.032  21.970  0.00  0.00    -0.153 OA
ATOM      4  O   UNL     1       0.517  -1.192  24.201  0.00  0.00    -0.153 OA
BRANCH   1  21
ATOM     21  C   UNL     1       2.738  -0.147  23.363  0.00  0.00    +0.105 A 
ATOM     23  C   UNL     1       3.407  -1.285  23.812  0.00  0.00    +0.028 A 
ATOM     24  C   UNL     1       3.462   0.961  22.924  0.00  0.00    +0.028 A 
ATOM     26  C   UNL     1       4.802  -1.316  23.821  0.00  0.00    +0.002 A 
ATOM     27  C   UNL     1       4.858   0.931  22.934  0.00  0.00    +0.002 A 
ATOM     28  C   UNL     1       5.527  -0.208  23.383  0.00  0.00    +0.000 A 
ENDBRANCH   1  21
ENDBRANCH   6   1
ENDBRANCH  15   6
ENDBRANCH   9  15
BRANCH  11  16
ATOM     16  C   UNL     1      -5.070   2.823  25.894  0.00  0.00    +0.103 C 
BRANCH  16  20
ATOM      2  O   UNL     1      -5.982   1.231  24.317  0.00  0.00    -0.276 OA
ATOM      7  N   UNL     1      -4.268   0.575  25.744  0.00  0.00    -0.313 N 
ATOM     20  C   UNL     1      -5.182   1.476  25.216  0.00  0.00    +0.214 C 
ATOM     31  H   UNL     1      -3.644   0.873  26.488  0.00  0.00    +0.149 HD
BRANCH   7  22
ATOM     22  C   UNL     1      -4.151  -0.789  25.286  0.00  0.00    +0.132 C 
BRANCH  22  25
ATOM     25  C   UNL     1      -2.770  -1.355  25.565  0.00  0.00    +0.178 C 
BRANCH  25   5
ATOM      5  O   UNL     1      -2.490  -2.395  24.637  0.00  0.00    -0.381 OA
ATOM     29  C   UNL     1      -3.683  -2.991  24.145  0.00  0.00    +0.194 C 
ENDBRANCH  25   5
ENDBRANCH  22  25
ENDBRANCH   7  22
ENDBRANCH  16  20
ENDBRANCH  11  16
TORSDOF 10
ENDMDL
MODEL 7
REMARK VINA RESULT:      -1.7      2.943      5.526
REMARK  Name = 38027614
REMARK  14 active torsions:
REMARK  status: ('A' for Active; 'I' for Inactive)
REMARK    1  A    between atoms: S_1  and  N_6
REMARK    2  A    between atoms: S_1  and  C_21
REMARK    3  A    between atoms: O_5  and  C_25
REMARK    4  A    between atoms: O_5  and  C_29
REMARK    5  A    between atoms: N_6  and  C_15
REMARK    6  A    between atoms: N_7  and  C_22
REMARK    7  A    between atoms: C_8  and  C_12
REMARK    8  A    between atoms: C_9  and  C_15
REMARK    9  A    between atoms: C_11  and  C_16
REMARK   10  A    between atoms: C_12  and  C_17
REMARK   11  A    between atoms: C_12  and  C_18
REMARK   12  A    between atoms: C_13  and  C_19
REMARK   13  A    between atoms: C_16  and  C_20
REMARK   14  A    between atoms: C_22  and  C_25
REMARK                            x       y       z     vdW  Elec       q    Type
REMARK                         _______ _______ _______ _____ _____    ______ ____
ROOT
ATOM      8  C   UNL     1      -1.806   3.569  24.502  0.00  0.00    +0.000 C 
ATOM      9  C   UNL     1      -2.530   2.934  23.288  0.00  0.00    +0.030 C 
ATOM     10  C   UNL     1      -0.314   3.202  24.490  0.00  0.00    +0.012 C 
ATOM     11  C   UNL     1      -0.088   1.679  24.527  0.00  0.00    +0.023 C 
ATOM     13  C   UNL     1      -0.972   0.954  23.533  0.00  0.00    -0.073 C 
ATOM     14  C   UNL     1      -2.051   1.535  22.979  0.00  0.00    -0.023 C 
ATOM     19  C   UNL     1      -0.562  -0.443  23.154  0.00  0.00    +0.039 C 
ENDROOT
BRANCH   8  12
ATOM     12  C   UNL     1      -1.965   5.092  24.528  0.00  0.00    -0.013 C 
ATOM     17  C   UNL     1      -2.810   5.519  25.724  0.00  0.00    +0.007 C 
ATOM     18  C   UNL     1      -0.599   5.769  24.561  0.00  0.00    +0.007 C 
ENDBRANCH   8  12
BRANCH   9  15
ATOM     15  C   UNL     1      -4.049   2.921  23.493  0.00  0.00    +0.113 C 
BRANCH  15   6
ATOM      6  N   UNL     1      -4.340   2.631  24.906  0.00  0.00    -0.189 NA
ATOM     30  H   UNL     1      -3.571   2.790  25.570  0.00  0.00    +0.148 HD
BRANCH   6   1
ATOM      1  S   UNL     1      -5.494   1.448  25.319  0.00  0.00    +0.058 S 
ATOM      3  O   UNL     1      -6.557   1.453  24.332  0.00  0.00    -0.153 OA
ATOM      4  O   UNL     1      -5.807   1.561  26.730  0.00  0.00    -0.153 OA
BRANCH   1  21
ATOM     21  C   UNL     1      -4.567  -0.044  25.114  0.00  0.00    +0.105 A 
ATOM     23  C   UNL     1      -4.784  -0.851  23.997  0.00  0.00    +0.028 A 
ATOM     24  C   UNL     1      -3.620  -0.412  26.068  0.00  0.00    +0.028 A 
ATOM     26  C   UNL     1      -4.053  -2.028  23.835  0.00  0.00    +0.002 A 
ATOM     27  C   UNL     1      -2.888  -1.590  25.906  0.00  0.00    +0.002 A 
ATOM     28  C   UNL     1      -3.105  -2.397  24.789  0.00  0.00    +0.000 A 
ENDBRANCH   1  21
ENDBRANCH   6   1
ENDBRANCH  15   6
ENDBRANCH   9  15
BRANCH  11  16
ATOM     16  C   UNL     1      -0.287   1.126  25.943  0.00  0.00    +0.103 C 
BRANCH  16  20
ATOM      2  O   UNL     1      -0.919   2.801  27.570  0.00  0.00    -0.276 OA
ATOM      7  N   UNL     1       1.331   2.315  27.242  0.00  0.00    -0.313 N 
ATOM     20  C   UNL     1      -0.029   2.172  27.004  0.00  0.00    +0.214 C 
ATOM     31  H   UNL     1       1.993   1.747  26.722  0.00  0.00    +0.149 HD
BRANCH   7  22
ATOM     22  C   UNL     1       1.869   3.246  28.206  0.00  0.00    +0.132 C 
BRANCH  22  25
ATOM     25  C   UNL     1       2.801   2.557  29.187  0.00  0.00    +0.178 C 
BRANCH  25   5
ATOM      5  O   UNL     1       2.032   1.861  30.159  0.00  0.00    -0.381 OA
ATOM     29  C   UNL     1       0.893   2.611  30.559  0.00  0.00    +0.194 C 
ENDBRANCH  25   5
ENDBRANCH  22  25
ENDBRANCH   7  22
ENDBRANCH  16  20
ENDBRANCH  11  16
TORSDOF 10
ENDMDL
MODEL 8
REMARK VINA RESULT:      -1.4     18.253     20.091
REMARK  Name = 38027614
REMARK  14 active torsions:
REMARK  status: ('A' for Active; 'I' for Inactive)
REMARK    1  A    between atoms: S_1  and  N_6
REMARK    2  A    between atoms: S_1  and  C_21
REMARK    3  A    between atoms: O_5  and  C_25
REMARK    4  A    between atoms: O_5  and  C_29
REMARK    5  A    between atoms: N_6  and  C_15
REMARK    6  A    between atoms: N_7  and  C_22
REMARK    7  A    between atoms: C_8  and  C_12
REMARK    8  A    between atoms: C_9  and  C_15
REMARK    9  A    between atoms: C_11  and  C_16
REMARK   10  A    between atoms: C_12  and  C_17
REMARK   11  A    between atoms: C_12  and  C_18
REMARK   12  A    between atoms: C_13  and  C_19
REMARK   13  A    between atoms: C_16  and  C_20
REMARK   14  A    between atoms: C_22  and  C_25
REMARK                            x       y       z     vdW  Elec       q    Type
REMARK                         _______ _______ _______ _____ _____    ______ ____
ROOT
ATOM      8  C   UNL     1      15.663  -7.929  27.603  0.00  0.00    +0.000 C 
ATOM      9  C   UNL     1      15.234  -9.410  27.753  0.00  0.00    +0.030 C 
ATOM     10  C   UNL     1      15.182  -7.364  26.256  0.00  0.00    +0.012 C 
ATOM     11  C   UNL     1      15.739  -8.158  25.060  0.00  0.00    +0.023 C 
ATOM     13  C   UNL     1      15.593  -9.653  25.258  0.00  0.00    -0.073 C 
ATOM     14  C   UNL     1      15.354 -10.193  26.466  0.00  0.00    -0.023 C 
ATOM     19  C   UNL     1      15.683 -10.512  24.027  0.00  0.00    +0.039 C 
ENDROOT
BRANCH   8  12
ATOM     12  C   UNL     1      15.130  -7.062  28.748  0.00  0.00    -0.013 C 
ATOM     17  C   UNL     1      15.864  -5.727  28.792  0.00  0.00    +0.007 C 
ATOM     18  C   UNL     1      13.626  -6.849  28.598  0.00  0.00    +0.007 C 
ENDBRANCH   8  12
BRANCH   9  15
ATOM     15  C   UNL     1      16.038 -10.110  28.854  0.00  0.00    +0.113 C 
BRANCH  15   6
ATOM      6  N   UNL     1      16.399  -9.125  29.886  0.00  0.00    -0.189 NA
ATOM     30  H   UNL     1      17.205  -8.522  29.676  0.00  0.00    +0.148 HD
BRANCH   6   1
ATOM      1  S   UNL     1      16.069  -9.442  31.527  0.00  0.00    +0.058 S 
ATOM      3  O   UNL     1      17.320  -9.552  32.253  0.00  0.00    -0.153 OA
ATOM      4  O   UNL     1      15.078 -10.496  31.618  0.00  0.00    -0.153 OA
BRANCH   1  21
ATOM     21  C   UNL     1      15.278  -7.944  32.031  0.00  0.00    +0.105 A 
ATOM     23  C   UNL     1      13.892  -7.905  32.184  0.00  0.00    +0.028 A 
ATOM     24  C   UNL     1      16.039  -6.801  32.274  0.00  0.00    +0.028 A 
ATOM     26  C   UNL     1      13.267  -6.723  32.582  0.00  0.00    +0.002 A 
ATOM     27  C   UNL     1      15.414  -5.618  32.671  0.00  0.00    +0.002 A 
ATOM     28  C   UNL     1      14.028  -5.579  32.824  0.00  0.00    +0.000 A 
ENDBRANCH   1  21
ENDBRANCH   6   1
ENDBRANCH  15   6
ENDBRANCH   9  15
BRANCH  11  16
ATOM     16  C   UNL     1      17.198  -7.782  24.779  0.00  0.00    +0.103 C 
BRANCH  16  20
ATOM      2  O   UNL     1      17.401  -6.423  22.788  0.00  0.00    -0.276 OA
ATOM      7  N   UNL     1      17.306  -5.395  24.871  0.00  0.00    -0.313 N 
ATOM     20  C   UNL     1      17.314  -6.484  24.011  0.00  0.00    +0.214 C 
ATOM     31  H   UNL     1      17.229  -5.547  25.872  0.00  0.00    +0.149 HD
BRANCH   7  22
ATOM     22  C   UNL     1      17.405  -4.029  24.413  0.00  0.00    +0.132 C 
BRANCH  22  25
ATOM     25  C   UNL     1      16.047  -3.350  24.384  0.00  0.00    +0.178 C 
BRANCH  25   5
ATOM      5  O   UNL     1      15.841  -2.762  23.106  0.00  0.00    -0.381 OA
ATOM     29  C   UNL     1      16.954  -1.972  22.709  0.00  0.00    +0.194 C 
ENDBRANCH  25   5
ENDBRANCH  22  25
ENDBRANCH   7  22
ENDBRANCH  16  20
ENDBRANCH  11  16
TORSDOF 10
ENDMDL
