MODEL 1
REMARK VINA RESULT:       8.3      0.000      0.000
REMARK  Name = 45361702
REMARK  11 active torsions:
REMARK  status: ('A' for Active; 'I' for Inactive)
REMARK    1  A    between atoms: S_1  and  N_7
REMARK    2  A    between atoms: S_1  and  C_27
REMARK    3  A    between atoms: N_8  and  C_19
REMARK    4  A    between atoms: N_11  and  C_38
REMARK    5  A    between atoms: N_11  and  C_39
REMARK    6  A    between atoms: N_11  and  C_40
REMARK    7  A    between atoms: C_12  and  C_15
REMARK    8  A    between atoms: C_15  and  C_19
REMARK    9  A    between atoms: C_19  and  C_25
REMARK   10  A    between atoms: C_20  and  C_23
REMARK   11  A    between atoms: C_26  and  C_28
REMARK                            x       y       z     vdW  Elec       q    Type
REMARK                         _______ _______ _______ _____ _____    ______ ____
ROOT
ATOM      6  O   UNL     1       0.832  -0.104  21.270  0.00  0.00    -0.270 OA
ATOM      7  N   UNL     1      -1.480   2.058  25.276  0.00  0.00    -0.162 NA
ATOM      9  N   UNL     1       0.326   0.740  23.388  0.00  0.00    -0.294 N 
ATOM     20  C   UNL     1      -1.634   2.179  23.797  0.00  0.00    +0.183 C 
ATOM     21  C   UNL     1      -1.085   0.956  23.072  0.00  0.00    +0.138 C 
ATOM     22  C   UNL     1      -0.440   1.082  25.719  0.00  0.00    +0.129 C 
ATOM     24  C   UNL     1       0.741   1.076  24.756  0.00  0.00    +0.125 C 
ATOM     26  C   UNL     1       1.166   0.182  22.420  0.00  0.00    +0.247 C 
ENDROOT
BRANCH  26  28
ATOM     28  C   UNL     1       2.565  -0.087  22.787  0.00  0.00    +0.037 A 
ATOM     31  C   UNL     1       3.552   0.861  22.518  0.00  0.00    +0.015 A 
ATOM     32  C   UNL     1       2.905  -1.291  23.404  0.00  0.00    +0.015 A 
ATOM     36  C   UNL     1       4.878   0.605  22.865  0.00  0.00    +0.024 A 
ATOM     37  C   UNL     1       4.231  -1.548  23.751  0.00  0.00    +0.024 A 
ATOM     38  C   UNL     1       5.218  -0.599  23.481  0.00  0.00    +0.029 A 
BRANCH  38  11
ATOM     11  N   UNL     1       6.559  -0.859  23.833  0.00  0.00    -0.336 N 
ATOM     39  C   UNL     1       6.878  -1.478  25.104  0.00  0.00    +0.129 C 
ATOM     40  C   UNL     1       7.636  -0.502  22.931  0.00  0.00    +0.129 C 
ENDBRANCH  38  11
ENDBRANCH  26  28
BRANCH  20  23
ATOM      2  O   UNL     1      -3.544   2.851  22.546  0.00  0.00    -0.274 OA
ATOM      8  N   UNL     1      -3.851   1.755  24.576  0.00  0.00    -0.303 N 
ATOM     23  C   UNL     1      -3.100   2.301  23.550  0.00  0.00    +0.234 C 
ATOM     41  H   UNL     1      -3.375   1.400  25.401  0.00  0.00    +0.149 HD
BRANCH   8  19
ATOM     19  C   UNL     1      -5.296   1.765  24.589  0.00  0.00    +0.159 C 
BRANCH  19  25
ATOM      5  O   UNL     1      -6.239   1.914  26.824  0.00  0.00    -0.274 OA
ATOM     10  N   UNL     1      -5.642   3.857  25.755  0.00  0.00    -0.328 N 
ATOM     25  C   UNL     1      -5.768   2.486  25.845  0.00  0.00    +0.231 C 
ATOM     42  H   UNL     1      -5.928   4.456  26.523  0.00  0.00    +0.145 HD
ATOM     43  H   UNL     1      -5.268   4.319  24.932  0.00  0.00    +0.145 HD
ENDBRANCH  19  25
BRANCH  19  15
ATOM     15  C   UNL     1      -5.886   0.357  24.457  0.00  0.00    +0.035 C 
BRANCH  15  12
ATOM     12  C   UNL     1      -4.936  -0.762  24.877  0.00  0.00    -0.009 C 
ATOM     13  C   UNL     1      -4.295  -1.419  23.646  0.00  0.00    +0.003 C 
ATOM     14  C   UNL     1      -3.862  -0.230  25.833  0.00  0.00    +0.003 C 
ATOM     16  C   UNL     1      -3.299  -2.507  24.043  0.00  0.00    +0.000 C 
ATOM     17  C   UNL     1      -2.866  -1.320  26.226  0.00  0.00    +0.000 C 
ATOM     18  C   UNL     1      -2.238  -1.976  25.001  0.00  0.00    +0.000 C 
ENDBRANCH  15  12
ENDBRANCH  19  15
ENDBRANCH   8  19
ENDBRANCH  20  23
BRANCH   7   1
ATOM      1  S   UNL     1      -1.595   3.506  26.184  0.00  0.00    +0.062 S 
ATOM      3  O   UNL     1      -2.878   3.536  26.846  0.00  0.00    -0.153 OA
ATOM      4  O   UNL     1      -1.148   4.603  25.357  0.00  0.00    -0.153 OA
BRANCH   1  27
ATOM     27  C   UNL     1      -0.358   3.194  27.400  0.00  0.00    +0.106 A 
ATOM     29  C   UNL     1       0.987   3.148  27.032  0.00  0.00    +0.028 A 
ATOM     30  C   UNL     1      -0.724   2.993  28.732  0.00  0.00    +0.028 A 
ATOM     33  C   UNL     1       1.966   2.900  27.995  0.00  0.00    +0.002 A 
ATOM     34  C   UNL     1       0.255   2.746  29.694  0.00  0.00    +0.002 A 
ATOM     35  C   UNL     1       1.599   2.699  29.326  0.00  0.00    +0.000 A 
ENDBRANCH   1  27
ENDBRANCH   7   1
TORSDOF 9
ENDMDL
MODEL 2
REMARK VINA RESULT:       9.5      1.554      2.230
REMARK  Name = 45361702
REMARK  11 active torsions:
REMARK  status: ('A' for Active; 'I' for Inactive)
REMARK    1  A    between atoms: S_1  and  N_7
REMARK    2  A    between atoms: S_1  and  C_27
REMARK    3  A    between atoms: N_8  and  C_19
REMARK    4  A    between atoms: N_11  and  C_38
REMARK    5  A    between atoms: N_11  and  C_39
REMARK    6  A    between atoms: N_11  and  C_40
REMARK    7  A    between atoms: C_12  and  C_15
REMARK    8  A    between atoms: C_15  and  C_19
REMARK    9  A    between atoms: C_19  and  C_25
REMARK   10  A    between atoms: C_20  and  C_23
REMARK   11  A    between atoms: C_26  and  C_28
REMARK                            x       y       z     vdW  Elec       q    Type
REMARK                         _______ _______ _______ _____ _____    ______ ____
ROOT
ATOM      6  O   UNL     1       0.815  -0.091  21.272  0.00  0.00    -0.270 OA
ATOM      7  N   UNL     1      -1.652   1.769  25.336  0.00  0.00    -0.162 NA
ATOM      9  N   UNL     1       0.238   0.620  23.420  0.00  0.00    -0.294 N 
ATOM     20  C   UNL     1      -1.782   1.963  23.862  0.00  0.00    +0.183 C 
ATOM     21  C   UNL     1      -1.174   0.801  23.086  0.00  0.00    +0.138 C 
ATOM     22  C   UNL     1      -0.585   0.811  25.749  0.00  0.00    +0.129 C 
ATOM     24  C   UNL     1       0.614   0.898  24.812  0.00  0.00    +0.125 C 
ATOM     26  C   UNL     1       1.117   0.147  22.442  0.00  0.00    +0.247 C 
ENDROOT
BRANCH  26  28
ATOM     28  C   UNL     1       2.518  -0.091  22.824  0.00  0.00    +0.037 A 
ATOM     31  C   UNL     1       3.482   0.889  22.583  0.00  0.00    +0.015 A 
ATOM     32  C   UNL     1       2.883  -1.295  23.425  0.00  0.00    +0.015 A 
ATOM     36  C   UNL     1       4.810   0.664  22.944  0.00  0.00    +0.024 A 
ATOM     37  C   UNL     1       4.211  -1.520  23.786  0.00  0.00    +0.024 A 
ATOM     38  C   UNL     1       5.175  -0.540  23.546  0.00  0.00    +0.029 A 
BRANCH  38  11
ATOM     11  N   UNL     1       6.517  -0.769  23.912  0.00  0.00    -0.336 N 
ATOM     39  C   UNL     1       7.597  -0.369  23.032  0.00  0.00    +0.129 C 
ATOM     40  C   UNL     1       6.834  -1.413  25.171  0.00  0.00    +0.129 C 
ENDBRANCH  38  11
ENDBRANCH  26  28
BRANCH  20  23
ATOM      2  O   UNL     1      -3.690   2.580  22.579  0.00  0.00    -0.274 OA
ATOM      8  N   UNL     1      -3.999   1.478  24.606  0.00  0.00    -0.303 N 
ATOM     23  C   UNL     1      -3.247   2.044  23.592  0.00  0.00    +0.234 C 
ATOM     41  H   UNL     1      -3.528   1.137  25.439  0.00  0.00    +0.149 HD
BRANCH   8  19
ATOM     19  C   UNL     1      -5.444   1.448  24.595  0.00  0.00    +0.159 C 
BRANCH  19  25
ATOM      5  O   UNL     1      -6.377   1.521  26.838  0.00  0.00    -0.274 OA
ATOM     10  N   UNL     1      -5.928   3.505  25.773  0.00  0.00    -0.328 N 
ATOM     25  C   UNL     1      -5.956   2.129  25.858  0.00  0.00    +0.231 C 
ATOM     42  H   UNL     1      -6.250   4.080  26.546  0.00  0.00    +0.145 HD
ATOM     43  H   UNL     1      -5.595   3.996  24.949  0.00  0.00    +0.145 HD
ENDBRANCH  19  25
BRANCH  19  15
ATOM     15  C   UNL     1      -5.992   0.027  24.423  0.00  0.00    +0.035 C 
BRANCH  15  12
ATOM     12  C   UNL     1      -5.010  -1.075  24.813  0.00  0.00    -0.009 C 
ATOM     13  C   UNL     1      -4.315  -1.645  23.569  0.00  0.00    +0.003 C 
ATOM     14  C   UNL     1      -3.980  -0.550  25.821  0.00  0.00    +0.003 C 
ATOM     16  C   UNL     1      -3.287  -2.714  23.937  0.00  0.00    +0.000 C 
ATOM     17  C   UNL     1      -2.951  -1.619  26.186  0.00  0.00    +0.000 C 
ATOM     18  C   UNL     1      -2.270  -2.190  24.946  0.00  0.00    +0.000 C 
ENDBRANCH  15  12
ENDBRANCH  19  15
ENDBRANCH   8  19
ENDBRANCH  20  23
BRANCH   7   1
ATOM      1  S   UNL     1      -1.840   3.162  26.315  0.00  0.00    +0.062 S 
ATOM      3  O   UNL     1      -0.854   3.122  27.369  0.00  0.00    -0.153 OA
ATOM      4  O   UNL     1      -3.244   3.336  26.603  0.00  0.00    -0.153 OA
BRANCH   1  27
ATOM     27  C   UNL     1      -1.356   4.404  25.161  0.00  0.00    +0.106 A 
ATOM     29  C   UNL     1      -0.251   4.199  24.335  0.00  0.00    +0.028 A 
ATOM     30  C   UNL     1      -2.080   5.595  25.073  0.00  0.00    +0.028 A 
ATOM     33  C   UNL     1       0.132   5.182  23.423  0.00  0.00    +0.002 A 
ATOM     34  C   UNL     1      -1.697   6.577  24.161  0.00  0.00    +0.002 A 
ATOM     35  C   UNL     1      -0.592   6.371  23.336  0.00  0.00    +0.000 A 
ENDBRANCH   1  27
ENDBRANCH   7   1
TORSDOF 9
ENDMDL
MODEL 3
REMARK VINA RESULT:       9.6      1.747      2.852
REMARK  Name = 45361702
REMARK  11 active torsions:
REMARK  status: ('A' for Active; 'I' for Inactive)
REMARK    1  A    between atoms: S_1  and  N_7
REMARK    2  A    between atoms: S_1  and  C_27
REMARK    3  A    between atoms: N_8  and  C_19
REMARK    4  A    between atoms: N_11  and  C_38
REMARK    5  A    between atoms: N_11  and  C_39
REMARK    6  A    between atoms: N_11  and  C_40
REMARK    7  A    between atoms: C_12  and  C_15
REMARK    8  A    between atoms: C_15  and  C_19
REMARK    9  A    between atoms: C_19  and  C_25
REMARK   10  A    between atoms: C_20  and  C_23
REMARK   11  A    between atoms: C_26  and  C_28
REMARK                            x       y       z     vdW  Elec       q    Type
REMARK                         _______ _______ _______ _____ _____    ______ ____
ROOT
ATOM      6  O   UNL     1       0.928  -1.123  21.911  0.00  0.00    -0.270 OA
ATOM      7  N   UNL     1      -1.247   2.647  24.580  0.00  0.00    -0.162 NA
ATOM      9  N   UNL     1       0.529   0.676  23.346  0.00  0.00    -0.294 N 
ATOM     20  C   UNL     1      -1.582   1.949  23.304  0.00  0.00    +0.183 C 
ATOM     21  C   UNL     1      -0.924   0.577  23.225  0.00  0.00    +0.138 C 
ATOM     22  C   UNL     1      -0.019   2.144  25.264  0.00  0.00    +0.129 C 
ATOM     24  C   UNL     1       1.032   1.720  24.247  0.00  0.00    +0.125 C 
ATOM     26  C   UNL     1       1.336  -0.242  22.668  0.00  0.00    +0.247 C 
ENDROOT
BRANCH  26  28
ATOM     28  C   UNL     1       2.793  -0.161  22.862  0.00  0.00    +0.037 A 
ATOM     31  C   UNL     1       3.461  -1.174  23.551  0.00  0.00    +0.015 A 
ATOM     32  C   UNL     1       3.505   0.927  22.358  0.00  0.00    +0.015 A 
ATOM     36  C   UNL     1       4.841  -1.097  23.735  0.00  0.00    +0.024 A 
ATOM     37  C   UNL     1       4.885   1.004  22.542  0.00  0.00    +0.024 A 
ATOM     38  C   UNL     1       5.553  -0.009  23.231  0.00  0.00    +0.029 A 
BRANCH  38  11
ATOM     11  N   UNL     1       6.949   0.070  23.416  0.00  0.00    -0.336 N 
ATOM     39  C   UNL     1       7.524   1.118  24.235  0.00  0.00    +0.129 C 
ATOM     40  C   UNL     1       7.828  -0.894  22.783  0.00  0.00    +0.129 C 
ENDBRANCH  38  11
ENDBRANCH  26  28
BRANCH  20  23
ATOM      2  O   UNL     1      -3.801   2.665  22.823  0.00  0.00    -0.274 OA
ATOM      8  N   UNL     1      -3.479   0.626  23.899  0.00  0.00    -0.303 N 
ATOM     23  C   UNL     1      -3.066   1.803  23.300  0.00  0.00    +0.234 C 
ATOM     41  H   UNL     1      -2.786   0.025  24.335  0.00  0.00    +0.149 HD
BRANCH   8  19
ATOM     19  C   UNL     1      -4.869   0.258  24.043  0.00  0.00    +0.159 C 
BRANCH  19  25
ATOM      5  O   UNL     1      -5.167   1.300  26.218  0.00  0.00    -0.274 OA
ATOM     10  N   UNL     1      -6.581   1.903  24.512  0.00  0.00    -0.328 N 
ATOM     25  C   UNL     1      -5.523   1.199  25.047  0.00  0.00    +0.231 C 
ATOM     42  H   UNL     1      -7.108   2.559  25.080  0.00  0.00    +0.145 HD
ATOM     43  H   UNL     1      -6.878   1.795  23.548  0.00  0.00    +0.145 HD
ENDBRANCH  19  25
BRANCH  19  15
ATOM     15  C   UNL     1      -5.042  -1.219  24.414  0.00  0.00    +0.035 C 
BRANCH  15  12
ATOM     12  C   UNL     1      -3.793  -1.864  25.011  0.00  0.00    -0.009 C 
ATOM     13  C   UNL     1      -2.909  -2.459  23.906  0.00  0.00    +0.003 C 
ATOM     14  C   UNL     1      -3.008  -0.850  25.851  0.00  0.00    +0.003 C 
ATOM     16  C   UNL     1      -1.627  -3.064  24.474  0.00  0.00    +0.000 C 
ATOM     17  C   UNL     1      -1.725  -1.456  26.416  0.00  0.00    +0.000 C 
ATOM     18  C   UNL     1      -0.854  -2.054  25.316  0.00  0.00    +0.000 C 
ENDBRANCH  15  12
ENDBRANCH  19  15
ENDBRANCH   8  19
ENDBRANCH  20  23
BRANCH   7   1
ATOM      1  S   UNL     1      -1.497   4.341  24.619  0.00  0.00    +0.062 S 
ATOM      3  O   UNL     1      -1.499   4.839  23.264  0.00  0.00    -0.153 OA
ATOM      4  O   UNL     1      -0.635   4.909  25.629  0.00  0.00    -0.153 OA
BRANCH   1  27
ATOM     27  C   UNL     1      -3.153   4.384  25.221  0.00  0.00    +0.106 A 
ATOM     29  C   UNL     1      -4.176   4.885  24.416  0.00  0.00    +0.028 A 
ATOM     30  C   UNL     1      -3.441   3.918  26.505  0.00  0.00    +0.028 A 
ATOM     33  C   UNL     1      -5.486   4.920  24.893  0.00  0.00    +0.002 A 
ATOM     34  C   UNL     1      -4.751   3.953  26.981  0.00  0.00    +0.002 A 
ATOM     35  C   UNL     1      -5.774   4.454  26.176  0.00  0.00    +0.000 A 
ENDBRANCH   1  27
ENDBRANCH   7   1
TORSDOF 9
ENDMDL
