MODEL 1
REMARK VINA RESULT:       7.8      0.000      0.000
REMARK  Name = 11885044
REMARK  17 active torsions:
REMARK  status: ('A' for Active; 'I' for Inactive)
REMARK    1  A    between atoms: O_2  and  C_15
REMARK    2  A    between atoms: O_3  and  C_20
REMARK    3  A    between atoms: N_7  and  C_26
REMARK    4  A    between atoms: N_9  and  C_28
REMARK    5  A    between atoms: N_9  and  C_34
REMARK    6  A    between atoms: N_9  and  C_35
REMARK    7  A    between atoms: C_10  and  C_18
REMARK    8  A    between atoms: C_12  and  C_20
REMARK    9  A    between atoms: C_12  and  C_21
REMARK   10  A    between atoms: C_13  and  C_23
REMARK   11  A    between atoms: C_23  and  C_24
REMARK   12  A    between atoms: C_26  and  C_28
REMARK   13  A    between atoms: C_27  and  C_29
REMARK   14  A    between atoms: C_29  and  C_30
REMARK   15  A    between atoms: C_30  and  C_31
REMARK   16  A    between atoms: C_30  and  C_32
REMARK   17  A    between atoms: C_30  and  C_33
REMARK                            x       y       z     vdW  Elec       q    Type
REMARK                         _______ _______ _______ _____ _____    ______ ____
ROOT
ATOM      1  S   UNL     1      -0.685  -0.853  23.182  0.00  0.00    -0.057 S 
ATOM      5  O   UNL     1       3.097   1.869  23.250  0.00  0.00    -0.275 OA
ATOM      6  N   UNL     1       0.211   1.490  23.813  0.00  0.00    -0.229 NA
ATOM      8  N   UNL     1       1.795  -0.060  22.866  0.00  0.00    -0.265 N 
ATOM     10  C   UNL     1      -3.416   2.514  24.627  0.00  0.00    -0.019 C 
ATOM     11  C   UNL     1      -3.817   1.038  25.070  0.00  0.00    +0.011 C 
ATOM     12  C   UNL     1      -5.331   0.785  25.431  0.00  0.00    +0.021 C 
ATOM     13  C   UNL     1      -1.829   2.650  24.741  0.00  0.00    +0.054 C 
ATOM     14  C   UNL     1      -4.065   3.538  25.595  0.00  0.00    +0.010 C 
ATOM     15  C   UNL     1      -5.832   1.922  26.365  0.00  0.00    +0.123 C 
ATOM     16  C   UNL     1      -3.214  -0.028  24.110  0.00  0.00    +0.049 C 
ATOM     17  C   UNL     1      -5.554   3.318  25.818  0.00  0.00    +0.032 C 
ATOM     18  C   UNL     1      -3.859   2.848  23.180  0.00  0.00    +0.012 C 
ATOM     19  C   UNL     1      -1.137   1.463  24.119  0.00  0.00    +0.058 A 
ATOM     21  C   UNL     1      -5.448  -0.549  26.221  0.00  0.00    +0.016 C 
ATOM     22  C   UNL     1      -1.773   0.266  23.862  0.00  0.00    +0.015 A 
ATOM     25  C   UNL     1       0.557   0.327  23.307  0.00  0.00    +0.165 A 
ATOM     27  C   UNL     1       2.969   0.712  22.862  0.00  0.00    +0.219 C 
ATOM     39  H   UNL     1       1.842  -1.010  22.506  0.00  0.00    +0.157 HD
ENDROOT
BRANCH  15   2
ATOM      2  O   UNL     1      -7.233   1.795  26.606  0.00  0.00    -0.391 OA
ATOM     36  H   UNL     1      -7.623   1.306  25.863  0.00  0.00    +0.210 HD
ENDBRANCH  15   2
BRANCH  12  20
ATOM     20  C   UNL     1      -6.263   0.627  24.208  0.00  0.00    +0.165 C 
BRANCH  20   3
ATOM      3  O   UNL     1      -7.206   1.675  24.245  0.00  0.00    -0.394 OA
ATOM     37  H   UNL     1      -7.498   1.783  25.167  0.00  0.00    +0.209 HD
ENDBRANCH  20   3
ENDBRANCH  12  20
BRANCH  13  23
ATOM     23  C   UNL     1      -1.261   3.973  24.209  0.00  0.00    +0.106 C 
BRANCH  23  24
ATOM      4  O   UNL     1       0.344   5.618  24.964  0.00  0.00    -0.276 OA
ATOM      7  N   UNL     1       0.283   3.527  25.976  0.00  0.00    -0.314 N 
ATOM     24  C   UNL     1      -0.131   4.492  25.069  0.00  0.00    +0.214 C 
ATOM     38  H   UNL     1      -0.157   2.612  25.973  0.00  0.00    +0.149 HD
BRANCH   7  26
ATOM     26  C   UNL     1       1.351   3.744  26.925  0.00  0.00    +0.119 C 
BRANCH  26  28
ATOM     28  C   UNL     1       1.484   2.569  27.883  0.00  0.00    +0.102 C 
BRANCH  28   9
ATOM      9  N   UNL     1       2.068   3.007  29.145  0.00  0.00    -0.307 NA
ATOM     34  C   UNL     1       3.527   2.874  29.111  0.00  0.00    +0.104 C 
ATOM     35  C   UNL     1       1.515   2.243  30.263  0.00  0.00    +0.104 C 
ENDBRANCH  28   9
ENDBRANCH  26  28
ENDBRANCH   7  26
ENDBRANCH  23  24
ENDBRANCH  13  23
BRANCH  27  29
ATOM     29  C   UNL     1       4.165  -0.040  22.290  0.00  0.00    +0.102 C 
BRANCH  29  30
ATOM     30  C   UNL     1       5.244  -0.430  23.330  0.00  0.00    -0.029 C 
ATOM     31  C   UNL     1       5.398   0.660  24.402  0.00  0.00    +0.011 C 
ATOM     32  C   UNL     1       4.792  -1.732  24.021  0.00  0.00    +0.011 C 
ATOM     33  C   UNL     1       6.606  -0.682  22.662  0.00  0.00    +0.011 C 
ENDBRANCH  29  30
ENDBRANCH  27  29
TORSDOF 10
ENDMDL
MODEL 2
REMARK VINA RESULT:       7.9      2.730      4.110
REMARK  Name = 11885044
REMARK  17 active torsions:
REMARK  status: ('A' for Active; 'I' for Inactive)
REMARK    1  A    between atoms: O_2  and  C_15
REMARK    2  A    between atoms: O_3  and  C_20
REMARK    3  A    between atoms: N_7  and  C_26
REMARK    4  A    between atoms: N_9  and  C_28
REMARK    5  A    between atoms: N_9  and  C_34
REMARK    6  A    between atoms: N_9  and  C_35
REMARK    7  A    between atoms: C_10  and  C_18
REMARK    8  A    between atoms: C_12  and  C_20
REMARK    9  A    between atoms: C_12  and  C_21
REMARK   10  A    between atoms: C_13  and  C_23
REMARK   11  A    between atoms: C_23  and  C_24
REMARK   12  A    between atoms: C_26  and  C_28
REMARK   13  A    between atoms: C_27  and  C_29
REMARK   14  A    between atoms: C_29  and  C_30
REMARK   15  A    between atoms: C_30  and  C_31
REMARK   16  A    between atoms: C_30  and  C_32
REMARK   17  A    between atoms: C_30  and  C_33
REMARK                            x       y       z     vdW  Elec       q    Type
REMARK                         _______ _______ _______ _____ _____    ______ ____
ROOT
ATOM      1  S   UNL     1       0.847   2.307  25.171  0.00  0.00    -0.057 S 
ATOM      5  O   UNL     1       2.008  -0.017  21.302  0.00  0.00    -0.275 OA
ATOM      6  N   UNL     1      -0.074   1.221  23.012  0.00  0.00    -0.229 NA
ATOM      8  N   UNL     1       2.307   1.095  23.361  0.00  0.00    -0.265 N 
ATOM     10  C   UNL     1      -3.628   1.964  24.309  0.00  0.00    -0.019 C 
ATOM     11  C   UNL     1      -3.156   3.269  25.089  0.00  0.00    +0.011 C 
ATOM     12  C   UNL     1      -4.233   4.002  25.978  0.00  0.00    +0.021 C 
ATOM     13  C   UNL     1      -2.555   1.656  23.167  0.00  0.00    +0.054 C 
ATOM     14  C   UNL     1      -4.998   2.235  23.632  0.00  0.00    +0.010 C 
ATOM     15  C   UNL     1      -5.552   4.149  25.167  0.00  0.00    +0.123 C 
ATOM     16  C   UNL     1      -1.798   3.039  25.814  0.00  0.00    +0.049 C 
ATOM     17  C   UNL     1      -6.039   2.836  24.566  0.00  0.00    +0.032 C 
ATOM     18  C   UNL     1      -3.766   0.728  25.233  0.00  0.00    +0.012 C 
ATOM     19  C   UNL     1      -1.150   1.743  23.706  0.00  0.00    +0.058 A 
ATOM     21  C   UNL     1      -3.730   5.436  26.307  0.00  0.00    +0.016 C 
ATOM     22  C   UNL     1      -0.830   2.384  24.886  0.00  0.00    +0.015 A 
ATOM     25  C   UNL     1       1.027   1.453  23.692  0.00  0.00    +0.165 A 
ATOM     27  C   UNL     1       2.719   0.398  22.213  0.00  0.00    +0.219 C 
ATOM     39  H   UNL     1       3.016   1.373  24.036  0.00  0.00    +0.157 HD
ENDROOT
BRANCH  15   2
ATOM      2  O   UNL     1      -6.588   4.691  25.985  0.00  0.00    -0.391 OA
ATOM     36  H   UNL     1      -7.240   3.991  26.149  0.00  0.00    +0.210 HD
ENDBRANCH  15   2
BRANCH  12  20
ATOM     20  C   UNL     1      -4.500   3.331  27.344  0.00  0.00    +0.165 C 
BRANCH  20   3
ATOM      3  O   UNL     1      -5.701   2.600  27.239  0.00  0.00    -0.394 OA
ATOM     37  H   UNL     1      -6.133   2.604  28.111  0.00  0.00    +0.209 HD
ENDBRANCH  20   3
ENDBRANCH  12  20
BRANCH  13  23
ATOM     23  C   UNL     1      -2.785   0.340  22.412  0.00  0.00    +0.106 C 
BRANCH  23  24
ATOM      4  O   UNL     1      -4.467  -0.750  23.767  0.00  0.00    -0.276 OA
ATOM      7  N   UNL     1      -2.361  -1.711  23.560  0.00  0.00    -0.314 N 
ATOM     24  C   UNL     1      -3.325  -0.744  23.316  0.00  0.00    +0.214 C 
ATOM     38  H   UNL     1      -1.433  -1.608  23.160  0.00  0.00    +0.149 HD
BRANCH   7  26
ATOM     26  C   UNL     1      -2.596  -2.867  24.395  0.00  0.00    +0.119 C 
BRANCH  26  28
ATOM     28  C   UNL     1      -1.749  -2.816  25.659  0.00  0.00    +0.102 C 
BRANCH  28   9
ATOM      9  N   UNL     1      -0.724  -1.787  25.541  0.00  0.00    -0.307 NA
ATOM     34  C   UNL     1       0.612  -2.386  25.561  0.00  0.00    +0.104 C 
ATOM     35  C   UNL     1      -0.855  -0.802  26.615  0.00  0.00    +0.104 C 
ENDBRANCH  28   9
ENDBRANCH  26  28
ENDBRANCH   7  26
ENDBRANCH  23  24
ENDBRANCH  13  23
BRANCH  27  29
ATOM     29  C   UNL     1       4.224   0.164  22.175  0.00  0.00    +0.102 C 
BRANCH  29  30
ATOM     30  C   UNL     1       4.819  -0.449  23.467  0.00  0.00    -0.029 C 
ATOM     31  C   UNL     1       3.971  -1.633  23.958  0.00  0.00    +0.011 C 
ATOM     32  C   UNL     1       6.234  -0.965  23.141  0.00  0.00    +0.011 C 
ATOM     33  C   UNL     1       4.930   0.596  24.589  0.00  0.00    +0.011 C 
ENDBRANCH  29  30
ENDBRANCH  27  29
TORSDOF 10
ENDMDL
MODEL 3
REMARK VINA RESULT:       8.5      1.885      3.214
REMARK  Name = 11885044
REMARK  17 active torsions:
REMARK  status: ('A' for Active; 'I' for Inactive)
REMARK    1  A    between atoms: O_2  and  C_15
REMARK    2  A    between atoms: O_3  and  C_20
REMARK    3  A    between atoms: N_7  and  C_26
REMARK    4  A    between atoms: N_9  and  C_28
REMARK    5  A    between atoms: N_9  and  C_34
REMARK    6  A    between atoms: N_9  and  C_35
REMARK    7  A    between atoms: C_10  and  C_18
REMARK    8  A    between atoms: C_12  and  C_20
REMARK    9  A    between atoms: C_12  and  C_21
REMARK   10  A    between atoms: C_13  and  C_23
REMARK   11  A    between atoms: C_23  and  C_24
REMARK   12  A    between atoms: C_26  and  C_28
REMARK   13  A    between atoms: C_27  and  C_29
REMARK   14  A    between atoms: C_29  and  C_30
REMARK   15  A    between atoms: C_30  and  C_31
REMARK   16  A    between atoms: C_30  and  C_32
REMARK   17  A    between atoms: C_30  and  C_33
REMARK                            x       y       z     vdW  Elec       q    Type
REMARK                         _______ _______ _______ _____ _____    ______ ____
ROOT
ATOM      1  S   UNL     1       0.426   2.932  23.918  0.00  0.00    -0.057 S 
ATOM      5  O   UNL     1       2.809  -0.915  22.806  0.00  0.00    -0.275 OA
ATOM      6  N   UNL     1       0.250   0.376  23.564  0.00  0.00    -0.229 NA
ATOM      8  N   UNL     1       2.421   1.371  23.243  0.00  0.00    -0.265 N 
ATOM     10  C   UNL     1      -3.394   0.586  24.807  0.00  0.00    -0.019 C 
ATOM     11  C   UNL     1      -3.586   2.061  24.240  0.00  0.00    +0.011 C 
ATOM     12  C   UNL     1      -4.949   2.783  24.569  0.00  0.00    +0.021 C 
ATOM     13  C   UNL     1      -2.189  -0.096  24.011  0.00  0.00    +0.054 C 
ATOM     14  C   UNL     1      -4.682  -0.239  24.544  0.00  0.00    +0.010 C 
ATOM     15  C   UNL     1      -6.126   1.805  24.295  0.00  0.00    +0.123 C 
ATOM     16  C   UNL     1      -2.330   2.941  24.508  0.00  0.00    +0.049 C 
ATOM     17  C   UNL     1      -5.961   0.456  24.986  0.00  0.00    +0.032 C 
ATOM     18  C   UNL     1      -3.089   0.560  26.326  0.00  0.00    +0.012 C 
ATOM     19  C   UNL     1      -1.006   0.835  23.919  0.00  0.00    +0.058 A 
ATOM     21  C   UNL     1      -5.124   3.997  23.613  0.00  0.00    +0.016 C 
ATOM     22  C   UNL     1      -1.095   2.196  24.128  0.00  0.00    +0.015 A 
ATOM     25  C   UNL     1       1.084   1.392  23.539  0.00  0.00    +0.165 A 
ATOM     27  C   UNL     1       3.193   0.247  22.901  0.00  0.00    +0.219 C 
ATOM     39  H   UNL     1       2.882   2.276  23.286  0.00  0.00    +0.157 HD
ENDROOT
BRANCH  15   2
ATOM      2  O   UNL     1      -7.365   2.382  24.704  0.00  0.00    -0.391 OA
ATOM     36  H   UNL     1      -7.859   1.712  25.205  0.00  0.00    +0.210 HD
ENDBRANCH  15   2
BRANCH  12  20
ATOM     20  C   UNL     1      -5.038   3.364  25.998  0.00  0.00    +0.165 C 
BRANCH  20   3
ATOM      3  O   UNL     1      -6.044   4.352  26.001  0.00  0.00    -0.394 OA
ATOM     37  H   UNL     1      -6.875   3.934  26.285  0.00  0.00    +0.209 HD
ENDBRANCH  20   3
ENDBRANCH  12  20
BRANCH  13  23
ATOM     23  C   UNL     1      -1.776  -1.477  24.537  0.00  0.00    +0.106 C 
BRANCH  23  24
ATOM      4  O   UNL     1       0.111  -2.236  25.848  0.00  0.00    -0.276 OA
ATOM      7  N   UNL     1      -0.897  -0.204  26.357  0.00  0.00    -0.314 N 
ATOM     24  C   UNL     1      -0.742  -1.379  25.636  0.00  0.00    +0.214 C 
ATOM     38  H   UNL     1      -1.649   0.436  26.121  0.00  0.00    +0.149 HD
BRANCH   7  26
ATOM     26  C   UNL     1      -0.048   0.155  27.470  0.00  0.00    +0.119 C 
BRANCH  26  28
ATOM     28  C   UNL     1       0.141   1.663  27.555  0.00  0.00    +0.102 C 
BRANCH  28   9
ATOM      9  N   UNL     1       1.168   1.991  28.536  0.00  0.00    -0.307 NA
ATOM     34  C   UNL     1       0.560   2.490  29.771  0.00  0.00    +0.104 C 
ATOM     35  C   UNL     1       2.101   2.980  27.994  0.00  0.00    +0.104 C 
ENDBRANCH  28   9
ENDBRANCH  26  28
ENDBRANCH   7  26
ENDBRANCH  23  24
ENDBRANCH  13  23
BRANCH  27  29
ATOM     29  C   UNL     1       4.654   0.594  22.643  0.00  0.00    +0.102 C 
BRANCH  29  30
ATOM     30  C   UNL     1       5.662  -0.099  23.592  0.00  0.00    -0.029 C 
ATOM     31  C   UNL     1       7.033  -0.264  22.916  0.00  0.00    +0.011 C 
ATOM     32  C   UNL     1       5.837   0.793  24.836  0.00  0.00    +0.011 C 
ATOM     33  C   UNL     1       5.153  -1.476  24.049  0.00  0.00    +0.011 C 
ENDBRANCH  29  30
ENDBRANCH  27  29
TORSDOF 10
ENDMDL
