MODEL 1
REMARK VINA RESULT:       4.9      0.000      0.000
REMARK  Name = 26743312
REMARK  9 active torsions:
REMARK  status: ('A' for Active; 'I' for Inactive)
REMARK    1  A    between atoms: C_6  and  C_10
REMARK    2  A    between atoms: C_7  and  C_12
REMARK    3  A    between atoms: C_10  and  C_13
REMARK    4  A    between atoms: C_12  and  C_14
REMARK    5  A    between atoms: C_21  and  C_22
REMARK    6  A    between atoms: C_23  and  C_24
REMARK    7  A    between atoms: C_23  and  C_29
REMARK    8  A    between atoms: C_23  and  C_30
REMARK    9  A    between atoms: C_23  and  C_31
REMARK                            x       y       z     vdW  Elec       q    Type
REMARK                         _______ _______ _______ _____ _____    ______ ____
ROOT
ATOM      3  N   UNL     1      -5.254   4.898  25.697  0.00  0.00    -0.316 NA
ATOM      6  C   UNL     1      -3.020   3.006  25.325  0.00  0.00    +0.004 C 
ATOM      7  C   UNL     1      -3.702   3.738  24.143  0.00  0.00    +0.012 C 
ATOM      8  C   UNL     1      -3.221   3.828  26.608  0.00  0.00    +0.019 C 
ATOM      9  C   UNL     1      -5.159   4.106  24.469  0.00  0.00    +0.085 C 
ATOM     11  C   UNL     1      -4.687   4.191  26.844  0.00  0.00    +0.081 C 
ATOM     32  H   UNL     1      -6.231   5.115  25.884  0.00  0.00    +0.122 HD
ENDROOT
BRANCH   6  10
ATOM     10  C   UNL     1      -3.495   1.561  25.521  0.00  0.00    +0.100 C 
BRANCH  10  13
ATOM      1  O   UNL     1      -1.200   1.130  25.926  0.00  0.00    -0.276 OA
ATOM      4  N   UNL     1      -2.550  -0.721  25.543  0.00  0.00    -0.301 N 
ATOM     13  C   UNL     1      -2.308   0.645  25.683  0.00  0.00    +0.216 C 
ATOM     15  C   UNL     1      -1.449  -1.675  25.683  0.00  0.00    +0.108 C 
ATOM     16  C   UNL     1      -3.864  -1.331  25.298  0.00  0.00    +0.108 C 
ATOM     17  C   UNL     1      -1.358  -2.589  24.464  0.00  0.00    +0.019 C 
ATOM     18  C   UNL     1      -3.820  -2.239  24.071  0.00  0.00    +0.019 C 
ATOM     19  C   UNL     1      -2.696  -3.269  24.182  0.00  0.00    +0.003 C 
ENDBRANCH  10  13
ENDBRANCH   6  10
BRANCH   7  12
ATOM     12  C   UNL     1      -3.627   2.957  22.830  0.00  0.00    +0.064 C 
BRANCH  12  14
ATOM      2  O   UNL     1      -1.264   0.262  22.485  0.00  0.00    -0.354 OA
ATOM      5  N   UNL     1      -2.546   0.792  22.400  0.00  0.00    -0.083 NA
ATOM     14  C   UNL     1      -2.422   2.062  22.795  0.00  0.00    +0.085 A 
ATOM     20  C   UNL     1      -1.098   2.388  23.138  0.00  0.00    +0.076 A 
ATOM     21  C   UNL     1      -0.411   1.222  22.926  0.00  0.00    +0.167 A 
BRANCH  21  22
ATOM     22  C   UNL     1       0.958   0.819  23.064  0.00  0.00    +0.020 A 
ATOM     24  C   UNL     1       3.623   0.037  23.335  0.00  0.00    -0.042 A 
ATOM     25  C   UNL     1       1.972   1.778  23.055  0.00  0.00    +0.012 A 
ATOM     26  C   UNL     1       1.277  -0.531  23.209  0.00  0.00    +0.012 A 
ATOM     27  C   UNL     1       3.304   1.387  23.190  0.00  0.00    +0.005 A 
ATOM     28  C   UNL     1       2.610  -0.922  23.345  0.00  0.00    +0.005 A 
BRANCH  24  23
ATOM     23  C   UNL     1       5.046  -0.382  23.480  0.00  0.00    -0.013 C 
ATOM     29  C   UNL     1       5.797   0.513  24.514  0.00  0.00    +0.015 C 
ATOM     30  C   UNL     1       5.155  -1.859  23.970  0.00  0.00    +0.015 C 
ATOM     31  C   UNL     1       5.903  -0.314  22.172  0.00  0.00    +0.015 C 
ENDBRANCH  24  23
ENDBRANCH  21  22
ENDBRANCH  12  14
ENDBRANCH   7  12
TORSDOF 6
ENDMDL
MODEL 2
REMARK VINA RESULT:       5.4      2.104      3.994
REMARK  Name = 26743312
REMARK  9 active torsions:
REMARK  status: ('A' for Active; 'I' for Inactive)
REMARK    1  A    between atoms: C_6  and  C_10
REMARK    2  A    between atoms: C_7  and  C_12
REMARK    3  A    between atoms: C_10  and  C_13
REMARK    4  A    between atoms: C_12  and  C_14
REMARK    5  A    between atoms: C_21  and  C_22
REMARK    6  A    between atoms: C_23  and  C_24
REMARK    7  A    between atoms: C_23  and  C_29
REMARK    8  A    between atoms: C_23  and  C_30
REMARK    9  A    between atoms: C_23  and  C_31
REMARK                            x       y       z     vdW  Elec       q    Type
REMARK                         _______ _______ _______ _____ _____    ______ ____
ROOT
ATOM      3  N   UNL     1      -6.170   2.421  26.938  0.00  0.00    -0.316 NA
ATOM      6  C   UNL     1      -5.510   2.061  24.084  0.00  0.00    +0.004 C 
ATOM      7  C   UNL     1      -6.005   0.901  24.982  0.00  0.00    +0.012 C 
ATOM      8  C   UNL     1      -6.000   3.394  24.672  0.00  0.00    +0.019 C 
ATOM      9  C   UNL     1      -5.654   1.137  26.460  0.00  0.00    +0.085 C 
ATOM     11  C   UNL     1      -5.651   3.540  26.154  0.00  0.00    +0.081 C 
ATOM     32  H   UNL     1      -5.911   2.546  27.915  0.00  0.00    +0.122 HD
ENDROOT
BRANCH   6  10
ATOM     10  C   UNL     1      -3.992   2.082  23.872  0.00  0.00    +0.100 C 
BRANCH  10  13
ATOM      1  O   UNL     1      -3.951   4.357  23.211  0.00  0.00    -0.276 OA
ATOM      4  N   UNL     1      -2.476   3.741  24.897  0.00  0.00    -0.301 N 
ATOM     13  C   UNL     1      -3.477   3.496  23.957  0.00  0.00    +0.216 C 
ATOM     15  C   UNL     1      -1.923   5.089  25.039  0.00  0.00    +0.108 C 
ATOM     16  C   UNL     1      -1.924   2.748  25.829  0.00  0.00    +0.108 C 
ATOM     17  C   UNL     1      -0.402   5.072  24.910  0.00  0.00    +0.019 C 
ATOM     18  C   UNL     1      -0.402   2.687  25.716  0.00  0.00    +0.019 C 
ATOM     19  C   UNL     1       0.223   4.072  25.880  0.00  0.00    +0.003 C 
ENDBRANCH  10  13
ENDBRANCH   6  10
BRANCH   7  12
ATOM     12  C   UNL     1      -5.500  -0.469  24.523  0.00  0.00    +0.064 C 
BRANCH  12  14
ATOM      2  O   UNL     1      -2.125  -1.050  25.634  0.00  0.00    -0.354 OA
ATOM      5  N   UNL     1      -3.502  -1.083  25.816  0.00  0.00    -0.083 NA
ATOM     14  C   UNL     1      -4.013  -0.586  24.686  0.00  0.00    +0.085 A 
ATOM     20  C   UNL     1      -3.016  -0.226  23.763  0.00  0.00    +0.076 A 
ATOM     21  C   UNL     1      -1.847  -0.537  24.408  0.00  0.00    +0.167 A 
BRANCH  21  22
ATOM     22  C   UNL     1      -0.456  -0.441  24.076  0.00  0.00    +0.020 A 
ATOM     24  C   UNL     1       2.252  -0.257  23.429  0.00  0.00    -0.042 A 
ATOM     25  C   UNL     1       0.417  -1.475  24.421  0.00  0.00    +0.012 A 
ATOM     26  C   UNL     1       0.026   0.684  23.406  0.00  0.00    +0.012 A 
ATOM     27  C   UNL     1       1.770  -1.381  24.098  0.00  0.00    +0.005 A 
ATOM     28  C   UNL     1       1.380   0.775  23.083  0.00  0.00    +0.005 A 
BRANCH  24  23
ATOM     23  C   UNL     1       3.699  -0.157  23.083  0.00  0.00    -0.013 C 
ATOM     29  C   UNL     1       4.453  -1.480  23.421  0.00  0.00    +0.015 C 
ATOM     30  C   UNL     1       3.899   0.122  21.561  0.00  0.00    +0.015 C 
ATOM     31  C   UNL     1       4.490   0.973  23.821  0.00  0.00    +0.015 C 
ENDBRANCH  24  23
ENDBRANCH  21  22
ENDBRANCH  12  14
ENDBRANCH   7  12
TORSDOF 6
ENDMDL
MODEL 3
REMARK VINA RESULT:       5.6      1.581      2.316
REMARK  Name = 26743312
REMARK  9 active torsions:
REMARK  status: ('A' for Active; 'I' for Inactive)
REMARK    1  A    between atoms: C_6  and  C_10
REMARK    2  A    between atoms: C_7  and  C_12
REMARK    3  A    between atoms: C_10  and  C_13
REMARK    4  A    between atoms: C_12  and  C_14
REMARK    5  A    between atoms: C_21  and  C_22
REMARK    6  A    between atoms: C_23  and  C_24
REMARK    7  A    between atoms: C_23  and  C_29
REMARK    8  A    between atoms: C_23  and  C_30
REMARK    9  A    between atoms: C_23  and  C_31
REMARK                            x       y       z     vdW  Elec       q    Type
REMARK                         _______ _______ _______ _____ _____    ______ ____
ROOT
ATOM      3  N   UNL     1      -6.496   2.965  26.509  0.00  0.00    -0.316 NA
ATOM      6  C   UNL     1      -4.196   1.593  25.270  0.00  0.00    +0.004 C 
ATOM      7  C   UNL     1      -4.315   3.135  25.335  0.00  0.00    +0.012 C 
ATOM      8  C   UNL     1      -5.031   0.977  26.404  0.00  0.00    +0.019 C 
ATOM      9  C   UNL     1      -5.783   3.590  25.393  0.00  0.00    +0.085 C 
ATOM     11  C   UNL     1      -6.466   1.506  26.424  0.00  0.00    +0.081 C 
ATOM     32  H   UNL     1      -7.464   3.282  26.510  0.00  0.00    +0.122 HD
ENDROOT
BRANCH   6  10
ATOM     10  C   UNL     1      -4.588   0.993  23.914  0.00  0.00    +0.100 C 
BRANCH  10  13
ATOM      1  O   UNL     1      -5.883  -0.987  24.038  0.00  0.00    -0.276 OA
ATOM      4  N   UNL     1      -3.578  -1.249  24.147  0.00  0.00    -0.301 N 
ATOM     13  C   UNL     1      -4.749  -0.501  24.037  0.00  0.00    +0.216 C 
ATOM     15  C   UNL     1      -3.651  -2.705  24.273  0.00  0.00    +0.108 C 
ATOM     16  C   UNL     1      -2.214  -0.703  24.105  0.00  0.00    +0.108 C 
ATOM     17  C   UNL     1      -2.881  -3.187  25.499  0.00  0.00    +0.019 C 
ATOM     18  C   UNL     1      -1.415  -1.148  25.328  0.00  0.00    +0.019 C 
ATOM     19  C   UNL     1      -1.445  -2.667  25.489  0.00  0.00    +0.003 C 
ENDBRANCH  10  13
ENDBRANCH   6  10
BRANCH   7  12
ATOM     12  C   UNL     1      -3.580   3.842  24.194  0.00  0.00    +0.064 C 
BRANCH  12  14
ATOM      2  O   UNL     1      -1.314   1.711  22.381  0.00  0.00    -0.354 OA
ATOM      5  N   UNL     1      -2.535   2.353  22.540  0.00  0.00    -0.083 NA
ATOM     14  C   UNL     1      -2.429   3.020  23.693  0.00  0.00    +0.085 A 
ATOM     20  C   UNL     1      -1.174   2.837  24.300  0.00  0.00    +0.076 A 
ATOM     21  C   UNL     1      -0.511   2.006  23.435  0.00  0.00    +0.167 A 
BRANCH  21  22
ATOM     22  C   UNL     1       0.793   1.411  23.409  0.00  0.00    +0.020 A 
ATOM     24  C   UNL     1       3.329   0.250  23.356  0.00  0.00    -0.042 A 
ATOM     25  C   UNL     1       0.925   0.026  23.292  0.00  0.00    +0.012 A 
ATOM     26  C   UNL     1       1.929   2.214  23.498  0.00  0.00    +0.012 A 
ATOM     27  C   UNL     1       2.193  -0.554  23.266  0.00  0.00    +0.005 A 
ATOM     28  C   UNL     1       3.197   1.634  23.471  0.00  0.00    +0.005 A 
BRANCH  24  23
ATOM     23  C   UNL     1       4.685  -0.370  23.328  0.00  0.00    -0.013 C 
ATOM     29  C   UNL     1       4.627  -1.875  23.734  0.00  0.00    +0.015 C 
ATOM     30  C   UNL     1       5.314  -0.292  21.901  0.00  0.00    +0.015 C 
ATOM     31  C   UNL     1       5.740   0.278  24.284  0.00  0.00    +0.015 C 
ENDBRANCH  24  23
ENDBRANCH  21  22
ENDBRANCH  12  14
ENDBRANCH   7  12
TORSDOF 6
ENDMDL
MODEL 4
REMARK VINA RESULT:       6.6      1.946      3.901
REMARK  Name = 26743312
REMARK  9 active torsions:
REMARK  status: ('A' for Active; 'I' for Inactive)
REMARK    1  A    between atoms: C_6  and  C_10
REMARK    2  A    between atoms: C_7  and  C_12
REMARK    3  A    between atoms: C_10  and  C_13
REMARK    4  A    between atoms: C_12  and  C_14
REMARK    5  A    between atoms: C_21  and  C_22
REMARK    6  A    between atoms: C_23  and  C_24
REMARK    7  A    between atoms: C_23  and  C_29
REMARK    8  A    between atoms: C_23  and  C_30
REMARK    9  A    between atoms: C_23  and  C_31
REMARK                            x       y       z     vdW  Elec       q    Type
REMARK                         _______ _______ _______ _____ _____    ______ ____
ROOT
ATOM      3  N   UNL     1      -6.746   1.992  24.988  0.00  0.00    -0.316 NA
ATOM      6  C   UNL     1      -3.827   1.642  24.725  0.00  0.00    +0.004 C 
ATOM      7  C   UNL     1      -4.804   0.449  24.861  0.00  0.00    +0.012 C 
ATOM      8  C   UNL     1      -4.585   2.848  24.147  0.00  0.00    +0.019 C 
ATOM      9  C   UNL     1      -6.084   0.847  25.615  0.00  0.00    +0.085 C 
ATOM     11  C   UNL     1      -5.866   3.158  24.922  0.00  0.00    +0.081 C 
ATOM     32  H   UNL     1      -7.582   2.231  25.518  0.00  0.00    +0.122 HD
ENDROOT
BRANCH   6  10
ATOM     10  C   UNL     1      -3.116   2.018  26.031  0.00  0.00    +0.100 C 
BRANCH  10  13
ATOM      1  O   UNL     1      -3.600   4.285  26.524  0.00  0.00    -0.276 OA
ATOM      4  N   UNL     1      -1.571   3.863  25.476  0.00  0.00    -0.301 N 
ATOM     13  C   UNL     1      -2.792   3.491  26.037  0.00  0.00    +0.216 C 
ATOM     15  C   UNL     1      -1.184   5.274  25.441  0.00  0.00    +0.108 C 
ATOM     16  C   UNL     1      -0.569   2.938  24.929  0.00  0.00    +0.108 C 
ATOM     17  C   UNL     1      -0.823   5.708  24.023  0.00  0.00    +0.019 C 
ATOM     18  C   UNL     1      -0.195   3.327  23.501  0.00  0.00    +0.019 C 
ATOM     19  C   UNL     1       0.237   4.790  23.418  0.00  0.00    +0.003 C 
ENDBRANCH  10  13
ENDBRANCH   6  10
BRANCH   7  12
ATOM     12  C   UNL     1      -4.162  -0.781  25.506  0.00  0.00    +0.064 C 
BRANCH  12  14
ATOM      2  O   UNL     1      -1.265  -2.086  23.814  0.00  0.00    -0.354 OA
ATOM      5  N   UNL     1      -2.605  -2.140  24.176  0.00  0.00    -0.083 NA
ATOM     14  C   UNL     1      -2.804  -1.055  24.929  0.00  0.00    +0.085 A 
ATOM     20  C   UNL     1      -1.637  -0.286  25.075  0.00  0.00    +0.076 A 
ATOM     21  C   UNL     1      -0.698  -0.978  24.355  0.00  0.00    +0.167 A 
BRANCH  21  22
ATOM     22  C   UNL     1       0.693  -0.787  24.065  0.00  0.00    +0.020 A 
ATOM     24  C   UNL     1       3.400  -0.413  23.502  0.00  0.00    -0.042 A 
ATOM     25  C   UNL     1       1.119   0.382  23.431  0.00  0.00    +0.012 A 
ATOM     26  C   UNL     1       1.620  -1.767  24.417  0.00  0.00    +0.012 A 
ATOM     27  C   UNL     1       2.472   0.568  23.150  0.00  0.00    +0.005 A 
ATOM     28  C   UNL     1       2.973  -1.580  24.135  0.00  0.00    +0.005 A 
BRANCH  24  23
ATOM     23  C   UNL     1       4.846  -0.214  23.200  0.00  0.00    -0.013 C 
ATOM     29  C   UNL     1       5.674  -1.495  23.530  0.00  0.00    +0.015 C 
ATOM     30  C   UNL     1       5.070   0.114  21.691  0.00  0.00    +0.015 C 
ATOM     31  C   UNL     1       5.543   0.946  23.986  0.00  0.00    +0.015 C 
ENDBRANCH  24  23
ENDBRANCH  21  22
ENDBRANCH  12  14
ENDBRANCH   7  12
TORSDOF 6
ENDMDL
MODEL 5
REMARK VINA RESULT:       6.9      1.719      4.185
REMARK  Name = 26743312
REMARK  9 active torsions:
REMARK  status: ('A' for Active; 'I' for Inactive)
REMARK    1  A    between atoms: C_6  and  C_10
REMARK    2  A    between atoms: C_7  and  C_12
REMARK    3  A    between atoms: C_10  and  C_13
REMARK    4  A    between atoms: C_12  and  C_14
REMARK    5  A    between atoms: C_21  and  C_22
REMARK    6  A    between atoms: C_23  and  C_24
REMARK    7  A    between atoms: C_23  and  C_29
REMARK    8  A    between atoms: C_23  and  C_30
REMARK    9  A    between atoms: C_23  and  C_31
REMARK                            x       y       z     vdW  Elec       q    Type
REMARK                         _______ _______ _______ _____ _____    ______ ____
ROOT
ATOM      3  N   UNL     1      -3.434  -2.704  25.153  0.00  0.00    -0.316 NA
ATOM      6  C   UNL     1      -4.191   0.142  25.339  0.00  0.00    +0.004 C 
ATOM      7  C   UNL     1      -4.061  -0.603  23.989  0.00  0.00    +0.012 C 
ATOM      8  C   UNL     1      -4.482  -0.880  26.450  0.00  0.00    +0.019 C 
ATOM      9  C   UNL     1      -3.072  -1.777  24.080  0.00  0.00    +0.085 C 
ATOM     11  C   UNL     1      -3.484  -2.038  26.453  0.00  0.00    +0.081 C 
ATOM     32  H   UNL     1      -2.754  -3.462  25.189  0.00  0.00    +0.122 HD
ENDROOT
BRANCH   6  10
ATOM     10  C   UNL     1      -2.973   1.004  25.696  0.00  0.00    +0.100 C 
BRANCH  10  13
ATOM      1  O   UNL     1      -4.542   2.776  25.575  0.00  0.00    -0.276 OA
ATOM      4  N   UNL     1      -2.311   3.381  25.809  0.00  0.00    -0.301 N 
ATOM     13  C   UNL     1      -3.353   2.463  25.688  0.00  0.00    +0.216 C 
ATOM     15  C   UNL     1      -2.598   4.816  25.808  0.00  0.00    +0.108 C 
ATOM     16  C   UNL     1      -0.893   3.038  25.989  0.00  0.00    +0.108 C 
ATOM     17  C   UNL     1      -1.771   5.539  24.748  0.00  0.00    +0.019 C 
ATOM     18  C   UNL     1      -0.032   3.727  24.933  0.00  0.00    +0.019 C 
ATOM     19  C   UNL     1      -0.282   5.235  24.908  0.00  0.00    +0.003 C 
ENDBRANCH  10  13
ENDBRANCH   6  10
BRANCH   7  12
ATOM     12  C   UNL     1      -3.690   0.322  22.828  0.00  0.00    +0.064 C 
BRANCH  12  14
ATOM      2  O   UNL     1      -0.432   1.842  22.647  0.00  0.00    -0.354 OA
ATOM      5  N   UNL     1      -1.816   1.888  22.549  0.00  0.00    -0.083 NA
ATOM     14  C   UNL     1      -2.226   0.649  22.836  0.00  0.00    +0.085 A 
ATOM     20  C   UNL     1      -1.153  -0.213  23.121  0.00  0.00    +0.076 A 
ATOM     21  C   UNL     1      -0.047   0.586  22.988  0.00  0.00    +0.167 A 
BRANCH  21  22
ATOM     22  C   UNL     1       1.365   0.384  23.128  0.00  0.00    +0.020 A 
ATOM     24  C   UNL     1       4.114  -0.006  23.400  0.00  0.00    -0.042 A 
ATOM     25  C   UNL     1       2.250   1.425  22.841  0.00  0.00    +0.012 A 
ATOM     26  C   UNL     1       1.855  -0.851  23.551  0.00  0.00    +0.012 A 
ATOM     27  C   UNL     1       3.624   1.230  22.977  0.00  0.00    +0.005 A 
ATOM     28  C   UNL     1       3.230  -1.045  23.687  0.00  0.00    +0.005 A 
BRANCH  24  23
ATOM     23  C   UNL     1       5.583  -0.215  23.545  0.00  0.00    -0.013 C 
ATOM     29  C   UNL     1       6.264  -0.431  22.158  0.00  0.00    +0.015 C 
ATOM     30  C   UNL     1       6.267   1.018  24.217  0.00  0.00    +0.015 C 
ATOM     31  C   UNL     1       6.004  -1.447  24.413  0.00  0.00    +0.015 C 
ENDBRANCH  24  23
ENDBRANCH  21  22
ENDBRANCH  12  14
ENDBRANCH   7  12
TORSDOF 6
ENDMDL
MODEL 6
REMARK VINA RESULT:       7.2      1.809      4.467
REMARK  Name = 26743312
REMARK  9 active torsions:
REMARK  status: ('A' for Active; 'I' for Inactive)
REMARK    1  A    between atoms: C_6  and  C_10
REMARK    2  A    between atoms: C_7  and  C_12
REMARK    3  A    between atoms: C_10  and  C_13
REMARK    4  A    between atoms: C_12  and  C_14
REMARK    5  A    between atoms: C_21  and  C_22
REMARK    6  A    between atoms: C_23  and  C_24
REMARK    7  A    between atoms: C_23  and  C_29
REMARK    8  A    between atoms: C_23  and  C_30
REMARK    9  A    between atoms: C_23  and  C_31
REMARK                            x       y       z     vdW  Elec       q    Type
REMARK                         _______ _______ _______ _____ _____    ______ ____
ROOT
ATOM      3  N   UNL     1      -2.307  -2.629  24.291  0.00  0.00    -0.316 NA
ATOM      6  C   UNL     1      -4.395  -0.558  24.044  0.00  0.00    +0.004 C 
ATOM      7  C   UNL     1      -3.015  -0.442  23.351  0.00  0.00    +0.012 C 
ATOM      8  C   UNL     1      -4.707  -2.042  24.294  0.00  0.00    +0.019 C 
ATOM      9  C   UNL     1      -1.931  -1.225  24.111  0.00  0.00    +0.085 C 
ATOM     11  C   UNL     1      -3.569  -2.764  25.015  0.00  0.00    +0.081 C 
ATOM     32  H   UNL     1      -1.571  -3.112  24.804  0.00  0.00    +0.122 HD
ENDROOT
BRANCH   6  10
ATOM     10  C   UNL     1      -4.512   0.251  25.341  0.00  0.00    +0.100 C 
BRANCH  10  13
ATOM      1  O   UNL     1      -6.222   1.630  24.453  0.00  0.00    -0.276 OA
ATOM      4  N   UNL     1      -4.464   2.715  25.516  0.00  0.00    -0.301 N 
ATOM     13  C   UNL     1      -5.149   1.588  25.060  0.00  0.00    +0.216 C 
ATOM     15  C   UNL     1      -5.017   4.049  25.280  0.00  0.00    +0.108 C 
ATOM     16  C   UNL     1      -3.209   2.695  26.279  0.00  0.00    +0.108 C 
ATOM     17  C   UNL     1      -3.996   4.949  24.588  0.00  0.00    +0.019 C 
ATOM     18  C   UNL     1      -2.153   3.570  25.608  0.00  0.00    +0.019 C 
ATOM     19  C   UNL     1      -2.678   4.983  25.359  0.00  0.00    +0.003 C 
ENDBRANCH  10  13
ENDBRANCH   6  10
BRANCH   7  12
ATOM     12  C   UNL     1      -2.575   1.007  23.131  0.00  0.00    +0.064 C 
BRANCH  12  14
ATOM      2  O   UNL     1       0.783   2.124  23.789  0.00  0.00    -0.354 OA
ATOM      5  N   UNL     1      -0.590   2.325  23.733  0.00  0.00    -0.083 NA
ATOM     14  C   UNL     1      -1.094   1.161  23.312  0.00  0.00    +0.085 A 
ATOM     20  C   UNL     1      -0.094   0.198  23.089  0.00  0.00    +0.076 A 
ATOM     21  C   UNL     1       1.067   0.853  23.404  0.00  0.00    +0.167 A 
BRANCH  21  22
ATOM     22  C   UNL     1       2.456   0.497  23.411  0.00  0.00    +0.020 A 
ATOM     24  C   UNL     1       5.158  -0.198  23.425  0.00  0.00    -0.042 A 
ATOM     25  C   UNL     1       2.840  -0.805  23.735  0.00  0.00    +0.012 A 
ATOM     26  C   UNL     1       3.422   1.451  23.095  0.00  0.00    +0.012 A 
ATOM     27  C   UNL     1       4.191  -1.152  23.742  0.00  0.00    +0.005 A 
ATOM     28  C   UNL     1       4.773   1.103  23.101  0.00  0.00    +0.005 A 
BRANCH  24  23
ATOM     23  C   UNL     1       6.602  -0.568  23.433  0.00  0.00    -0.013 C 
ATOM     29  C   UNL     1       6.939  -1.504  24.635  0.00  0.00    +0.015 C 
ATOM     30  C   UNL     1       7.000  -1.321  22.125  0.00  0.00    +0.015 C 
ATOM     31  C   UNL     1       7.603   0.629  23.544  0.00  0.00    +0.015 C 
ENDBRANCH  24  23
ENDBRANCH  21  22
ENDBRANCH  12  14
ENDBRANCH   7  12
TORSDOF 6
ENDMDL
MODEL 7
REMARK VINA RESULT:       7.5      2.213      7.387
REMARK  Name = 26743312
REMARK  9 active torsions:
REMARK  status: ('A' for Active; 'I' for Inactive)
REMARK    1  A    between atoms: C_6  and  C_10
REMARK    2  A    between atoms: C_7  and  C_12
REMARK    3  A    between atoms: C_10  and  C_13
REMARK    4  A    between atoms: C_12  and  C_14
REMARK    5  A    between atoms: C_21  and  C_22
REMARK    6  A    between atoms: C_23  and  C_24
REMARK    7  A    between atoms: C_23  and  C_29
REMARK    8  A    between atoms: C_23  and  C_30
REMARK    9  A    between atoms: C_23  and  C_31
REMARK                            x       y       z     vdW  Elec       q    Type
REMARK                         _______ _______ _______ _____ _____    ______ ____
ROOT
ATOM      3  N   UNL     1       5.196  -0.546  23.922  0.00  0.00    -0.316 NA
ATOM      6  C   UNL     1       2.541  -0.277  22.662  0.00  0.00    +0.004 C 
ATOM      7  C   UNL     1       3.552   0.892  22.739  0.00  0.00    +0.012 C 
ATOM      8  C   UNL     1       3.306  -1.609  22.736  0.00  0.00    +0.019 C 
ATOM      9  C   UNL     1       4.502   0.742  23.940  0.00  0.00    +0.085 C 
ATOM     11  C   UNL     1       4.259  -1.668  23.930  0.00  0.00    +0.081 C 
ATOM     32  H   UNL     1       5.807  -0.612  24.734  0.00  0.00    +0.122 HD
ENDROOT
BRANCH   6  10
ATOM     10  C   UNL     1       1.438  -0.221  23.727  0.00  0.00    +0.100 C 
BRANCH  10  13
ATOM      1  O   UNL     1       0.038  -1.108  22.034  0.00  0.00    -0.276 OA
ATOM      4  N   UNL     1      -0.649  -1.443  24.228  0.00  0.00    -0.301 N 
ATOM     13  C   UNL     1       0.217  -0.963  23.246  0.00  0.00    +0.216 C 
ATOM     15  C   UNL     1      -1.858  -2.172  23.841  0.00  0.00    +0.108 C 
ATOM     16  C   UNL     1      -0.440  -1.324  25.677  0.00  0.00    +0.108 C 
ATOM     17  C   UNL     1      -3.098  -1.549  24.476  0.00  0.00    +0.019 C 
ATOM     18  C   UNL     1      -1.654  -0.685  26.348  0.00  0.00    +0.019 C 
ATOM     19  C   UNL     1      -2.941  -1.427  25.990  0.00  0.00    +0.003 C 
ENDBRANCH  10  13
ENDBRANCH   6  10
BRANCH   7  12
ATOM     12  C   UNL     1       2.880   2.266  22.755  0.00  0.00    +0.064 C 
BRANCH  12  14
ATOM      2  O   UNL     1       0.406   2.088  25.364  0.00  0.00    -0.354 OA
ATOM      5  N   UNL     1       1.716   2.027  24.907  0.00  0.00    -0.083 NA
ATOM     14  C   UNL     1       1.635   2.256  23.593  0.00  0.00    +0.085 A 
ATOM     20  C   UNL     1       0.312   2.466  23.169  0.00  0.00    +0.076 A 
ATOM     21  C   UNL     1      -0.422   2.350  24.321  0.00  0.00    +0.167 A 
BRANCH  21  22
ATOM     22  C   UNL     1      -1.816   2.443  24.642  0.00  0.00    +0.020 A 
ATOM     24  C   UNL     1      -4.529   2.621  25.268  0.00  0.00    -0.042 A 
ATOM     25  C   UNL     1      -2.748   1.688  23.929  0.00  0.00    +0.012 A 
ATOM     26  C   UNL     1      -2.240   3.287  25.669  0.00  0.00    +0.012 A 
ATOM     27  C   UNL     1      -4.104   1.778  24.241  0.00  0.00    +0.005 A 
ATOM     28  C   UNL     1      -3.597   3.375  25.981  0.00  0.00    +0.005 A 
BRANCH  24  23
ATOM     23  C   UNL     1      -5.979   2.717  25.602  0.00  0.00    -0.013 C 
ATOM     29  C   UNL     1      -6.447   4.204  25.668  0.00  0.00    +0.015 C 
ATOM     30  C   UNL     1      -6.856   1.996  24.531  0.00  0.00    +0.015 C 
ATOM     31  C   UNL     1      -6.395   2.089  26.973  0.00  0.00    +0.015 C 
ENDBRANCH  24  23
ENDBRANCH  21  22
ENDBRANCH  12  14
ENDBRANCH   7  12
TORSDOF 6
ENDMDL
