MODEL 1
REMARK VINA RESULT:       5.7      0.000      0.000
REMARK  Name = 75368576
REMARK  2 active torsions:
REMARK  status: ('A' for Active; 'I' for Inactive)
REMARK    1  A    between atoms: N_5  and  C_14
REMARK    2  A    between atoms: C_14  and  C_16
REMARK                            x       y       z     vdW  Elec       q    Type
REMARK                         _______ _______ _______ _____ _____    ______ ____
ROOT
ATOM      1  O   UNL     1       2.190   2.156  23.036  0.00  0.00    -0.252 OA
ATOM      4  N   UNL     1       0.392   0.683  23.201  0.00  0.00    -0.278 N 
ATOM      5  N   UNL     1      -2.170  -0.272  23.867  0.00  0.00    -0.295 NA
ATOM      6  N   UNL     1       2.467  -0.178  23.486  0.00  0.00    -0.238 N 
ATOM      7  N   UNL     1       4.663   0.754  23.425  0.00  0.00    -0.240 NA
ATOM      8  C   UNL     1       0.178  -0.740  23.302  0.00  0.00    +0.109 C 
ATOM      9  C   UNL     1      -0.974  -1.045  24.258  0.00  0.00    +0.109 C 
ATOM     10  C   UNL     1       1.537  -1.273  23.741  0.00  0.00    +0.140 C 
ATOM     11  C   UNL     1      -0.744   1.553  22.969  0.00  0.00    +0.125 C 
ATOM     12  C   UNL     1      -1.895   1.178  23.906  0.00  0.00    +0.104 C 
ATOM     13  C   UNL     1       1.753   1.027  23.212  0.00  0.00    +0.311 C 
ATOM     15  C   UNL     1       3.878  -0.334  23.593  0.00  0.00    +0.129 A 
ATOM     19  C   UNL     1       4.362  -1.604  23.866  0.00  0.00    +0.044 A 
ATOM     23  C   UNL     1       5.739  -1.767  23.973  0.00  0.00    +0.005 A 
ATOM     24  C   UNL     1       5.995   0.557  23.537  0.00  0.00    +0.113 A 
ATOM     25  C   UNL     1       6.578  -0.671  23.807  0.00  0.00    +0.020 A 
ENDROOT
BRANCH   5  14
ATOM     14  C   UNL     1      -3.296  -0.601  24.741  0.00  0.00    +0.119 C 
BRANCH  14  16
ATOM      2  O   UNL     1      -3.687   4.176  25.608  0.00  0.00    -0.485 OA
ATOM      3  O   UNL     1      -6.546   3.904  25.844  0.00  0.00    -0.485 OA
ATOM     16  C   UNL     1      -4.142   0.607  25.045  0.00  0.00    -0.030 A 
ATOM     17  C   UNL     1      -3.545   1.861  25.179  0.00  0.00    +0.054 A 
ATOM     18  C   UNL     1      -5.523   0.468  25.198  0.00  0.00    +0.009 A 
ATOM     20  C   UNL     1      -4.332   2.976  25.468  0.00  0.00    +0.162 A 
ATOM     21  C   UNL     1      -6.311   1.585  25.473  0.00  0.00    +0.050 A 
ATOM     22  C   UNL     1      -5.718   2.842  25.593  0.00  0.00    +0.162 A 
ATOM     26  C   UNL     1      -4.516   5.159  26.233  0.00  0.00    +0.270 C 
ATOM     27  C   UNL     1      -5.897   5.156  25.606  0.00  0.00    +0.270 C 
ENDBRANCH  14  16
ENDBRANCH   5  14
TORSDOF 2
ENDMDL
MODEL 2
REMARK VINA RESULT:       7.2      2.220      8.851
REMARK  Name = 75368576
REMARK  2 active torsions:
REMARK  status: ('A' for Active; 'I' for Inactive)
REMARK    1  A    between atoms: N_5  and  C_14
REMARK    2  A    between atoms: C_14  and  C_16
REMARK                            x       y       z     vdW  Elec       q    Type
REMARK                         _______ _______ _______ _____ _____    ______ ____
ROOT
ATOM      1  O   UNL     1      -5.577   0.067  25.145  0.00  0.00    -0.252 OA
ATOM      4  N   UNL     1      -3.427  -0.360  24.353  0.00  0.00    -0.278 N 
ATOM      5  N   UNL     1      -0.943  -1.649  24.060  0.00  0.00    -0.295 NA
ATOM      6  N   UNL     1      -3.996   1.805  24.694  0.00  0.00    -0.238 N 
ATOM      7  N   UNL     1      -5.983   2.891  25.448  0.00  0.00    -0.240 NA
ATOM      8  C   UNL     1      -2.304   0.389  23.845  0.00  0.00    +0.109 C 
ATOM      9  C   UNL     1      -0.990  -0.202  24.352  0.00  0.00    +0.109 C 
ATOM     10  C   UNL     1      -2.589   1.813  24.307  0.00  0.00    +0.140 C 
ATOM     11  C   UNL     1      -3.415  -1.806  24.254  0.00  0.00    +0.125 C 
ATOM     12  C   UNL     1      -2.062  -2.354  24.716  0.00  0.00    +0.104 C 
ATOM     13  C   UNL     1      -4.482   0.466  24.774  0.00  0.00    +0.311 C 
ATOM     15  C   UNL     1      -4.706   2.997  25.015  0.00  0.00    +0.129 A 
ATOM     19  C   UNL     1      -4.037   4.202  24.863  0.00  0.00    +0.044 A 
ATOM     23  C   UNL     1      -4.722   5.371  25.175  0.00  0.00    +0.005 A 
ATOM     24  C   UNL     1      -6.616   4.048  25.742  0.00  0.00    +0.113 A 
ATOM     25  C   UNL     1      -6.036   5.301  25.624  0.00  0.00    +0.020 A 
ENDROOT
BRANCH   5  14
ATOM     14  C   UNL     1       0.336  -2.214  24.489  0.00  0.00    +0.119 C 
BRANCH  14  16
ATOM      2  O   UNL     1       5.134  -1.412  24.234  0.00  0.00    -0.485 OA
ATOM      3  O   UNL     1       4.681   0.722  22.350  0.00  0.00    -0.485 OA
ATOM     16  C   UNL     1       1.504  -1.438  23.939  0.00  0.00    -0.030 A 
ATOM     17  C   UNL     1       2.804  -1.774  24.316  0.00  0.00    +0.054 A 
ATOM     18  C   UNL     1       1.282  -0.380  23.057  0.00  0.00    +0.009 A 
ATOM     20  C   UNL     1       3.882  -1.048  23.811  0.00  0.00    +0.162 A 
ATOM     21  C   UNL     1       2.360   0.338  22.540  0.00  0.00    +0.050 A 
ATOM     22  C   UNL     1       3.662  -0.006  22.906  0.00  0.00    +0.162 A 
ATOM     26  C   UNL     1       6.110  -0.409  23.940  0.00  0.00    +0.270 C 
ATOM     27  C   UNL     1       5.948   0.079  22.513  0.00  0.00    +0.270 C 
ENDBRANCH  14  16
ENDBRANCH   5  14
TORSDOF 2
ENDMDL
MODEL 3
REMARK VINA RESULT:       7.6      2.113      2.833
REMARK  Name = 75368576
REMARK  2 active torsions:
REMARK  status: ('A' for Active; 'I' for Inactive)
REMARK    1  A    between atoms: N_5  and  C_14
REMARK    2  A    between atoms: C_14  and  C_16
REMARK                            x       y       z     vdW  Elec       q    Type
REMARK                         _______ _______ _______ _____ _____    ______ ____
ROOT
ATOM      1  O   UNL     1      -0.113  -2.358  22.443  0.00  0.00    -0.252 OA
ATOM      4  N   UNL     1      -1.434  -1.606  24.209  0.00  0.00    -0.278 N 
ATOM      5  N   UNL     1      -3.754  -0.993  25.678  0.00  0.00    -0.295 NA
ATOM      6  N   UNL     1       0.432  -0.416  23.730  0.00  0.00    -0.238 N 
ATOM      7  N   UNL     1       2.170  -0.652  22.112  0.00  0.00    -0.240 NA
ATOM      8  C   UNL     1      -1.359  -0.620  25.259  0.00  0.00    +0.109 C 
ATOM      9  C   UNL     1      -2.719   0.040  25.476  0.00  0.00    +0.109 C 
ATOM     10  C   UNL     1      -0.255   0.318  24.787  0.00  0.00    +0.140 C 
ATOM     11  C   UNL     1      -2.508  -2.579  24.229  0.00  0.00    +0.125 C 
ATOM     12  C   UNL     1      -3.843  -1.885  24.505  0.00  0.00    +0.104 C 
ATOM     13  C   UNL     1      -0.328  -1.560  23.345  0.00  0.00    +0.311 C 
ATOM     15  C   UNL     1       1.647   0.044  23.146  0.00  0.00    +0.129 A 
ATOM     19  C   UNL     1       2.221   1.187  23.681  0.00  0.00    +0.044 A 
ATOM     23  C   UNL     1       3.407   1.644  23.117  0.00  0.00    +0.005 A 
ATOM     24  C   UNL     1       3.323  -0.178  21.590  0.00  0.00    +0.113 A 
ATOM     25  C   UNL     1       3.975   0.955  22.052  0.00  0.00    +0.020 A 
ENDROOT
BRANCH   5  14
ATOM     14  C   UNL     1      -5.050  -0.370  25.945  0.00  0.00    +0.119 C 
BRANCH  14  16
ATOM      2  O   UNL     1      -2.780   3.564  24.188  0.00  0.00    -0.485 OA
ATOM      3  O   UNL     1      -5.082   5.180  24.819  0.00  0.00    -0.485 OA
ATOM     16  C   UNL     1      -5.035   1.106  25.648  0.00  0.00    -0.030 A 
ATOM     17  C   UNL     1      -3.922   1.683  25.037  0.00  0.00    +0.054 A 
ATOM     18  C   UNL     1      -6.135   1.895  25.988  0.00  0.00    +0.009 A 
ATOM     20  C   UNL     1      -3.909   3.052  24.770  0.00  0.00    +0.162 A 
ATOM     21  C   UNL     1      -6.129   3.262  25.709  0.00  0.00    +0.050 A 
ATOM     22  C   UNL     1      -5.021   3.837  25.086  0.00  0.00    +0.162 A 
ATOM     26  C   UNL     1      -2.732   4.991  24.278  0.00  0.00    +0.270 C 
ATOM     27  C   UNL     1      -4.072   5.586  23.890  0.00  0.00    +0.270 C 
ENDBRANCH  14  16
ENDBRANCH   5  14
TORSDOF 2
ENDMDL
MODEL 4
REMARK VINA RESULT:       9.4      2.255      9.330
REMARK  Name = 75368576
REMARK  2 active torsions:
REMARK  status: ('A' for Active; 'I' for Inactive)
REMARK    1  A    between atoms: N_5  and  C_14
REMARK    2  A    between atoms: C_14  and  C_16
REMARK                            x       y       z     vdW  Elec       q    Type
REMARK                         _______ _______ _______ _____ _____    ______ ____
ROOT
ATOM      1  O   UNL     1      -2.071   3.885  25.905  0.00  0.00    -0.252 OA
ATOM      4  N   UNL     1      -1.247   1.830  25.177  0.00  0.00    -0.278 N 
ATOM      5  N   UNL     1       0.448  -0.016  23.898  0.00  0.00    -0.295 NA
ATOM      6  N   UNL     1      -3.494   2.110  25.161  0.00  0.00    -0.238 N 
ATOM      7  N   UNL     1      -4.937   3.907  25.780  0.00  0.00    -0.240 NA
ATOM      8  C   UNL     1      -1.766   0.533  24.819  0.00  0.00    +0.109 C 
ATOM      9  C   UNL     1      -1.003  -0.041  23.626  0.00  0.00    +0.109 C 
ATOM     10  C   UNL     1      -3.245   0.801  24.568  0.00  0.00    +0.140 C 
ATOM     11  C   UNL     1       0.185   2.002  25.322  0.00  0.00    +0.125 C 
ATOM     12  C   UNL     1       0.914   1.364  24.137  0.00  0.00    +0.104 C 
ATOM     13  C   UNL     1      -2.260   2.754  25.477  0.00  0.00    +0.311 C 
ATOM     15  C   UNL     1      -4.804   2.650  25.300  0.00  0.00    +0.129 A 
ATOM     19  C   UNL     1      -5.870   1.845  24.930  0.00  0.00    +0.044 A 
ATOM     23  C   UNL     1      -7.154   2.363  25.062  0.00  0.00    +0.005 A 
ATOM     24  C   UNL     1      -6.200   4.376  25.893  0.00  0.00    +0.113 A 
ATOM     25  C   UNL     1      -7.331   3.652  25.551  0.00  0.00    +0.020 A 
ENDROOT
BRANCH   5  14
ATOM     14  C   UNL     1       1.184  -0.618  22.786  0.00  0.00    +0.119 C 
BRANCH  14  16
ATOM      2  O   UNL     1       5.652  -1.855  24.280  0.00  0.00    -0.485 OA
ATOM      3  O   UNL     1       6.729   0.506  23.025  0.00  0.00    -0.485 OA
ATOM     16  C   UNL     1       2.659  -0.332  22.870  0.00  0.00    -0.030 A 
ATOM     17  C   UNL     1       3.507  -1.224  23.524  0.00  0.00    +0.054 A 
ATOM     18  C   UNL     1       3.175   0.831  22.295  0.00  0.00    +0.009 A 
ATOM     20  C   UNL     1       4.873  -0.951  23.606  0.00  0.00    +0.162 A 
ATOM     21  C   UNL     1       4.543   1.098  22.364  0.00  0.00    +0.050 A 
ATOM     22  C   UNL     1       5.394   0.199  23.007  0.00  0.00    +0.162 A 
ATOM     26  C   UNL     1       6.939  -1.318  24.599  0.00  0.00    +0.270 C 
ATOM     27  C   UNL     1       7.531  -0.621  23.389  0.00  0.00    +0.270 C 
ENDBRANCH  14  16
ENDBRANCH   5  14
TORSDOF 2
ENDMDL
