MODEL 1
REMARK VINA RESULT:      -5.0      0.000      0.000
REMARK  Name = 28961815
REMARK  11 active torsions:
REMARK  status: ('A' for Active; 'I' for Inactive)
REMARK    1  A    between atoms: S_2  and  N_10
REMARK    2  A    between atoms: S_2  and  C_23
REMARK    3  A    between atoms: O_4  and  C_14
REMARK    4  A    between atoms: O_5  and  C_20
REMARK    5  A    between atoms: O_5  and  C_22
REMARK    6  A    between atoms: O_6  and  C_21
REMARK    7  A    between atoms: N_9  and  C_11
REMARK    8  A    between atoms: N_10  and  C_19
REMARK    9  A    between atoms: C_12  and  C_19
REMARK   10  A    between atoms: C_13  and  C_20
REMARK   11  A    between atoms: C_16  and  C_21
REMARK                            x       y       z     vdW  Elec       q    Type
REMARK                         _______ _______ _______ _____ _____    ______ ____
ROOT
ATOM      3  O   UNL     1       1.038   1.550  23.554  0.00  0.00    -0.366 OA
ATOM     11  C   UNL     1      -1.026   0.477  24.064  0.00  0.00    +0.118 C 
ATOM     12  C   UNL     1      -0.196   1.750  24.280  0.00  0.00    +0.154 C 
ATOM     14  C   UNL     1       0.033  -0.581  23.793  0.00  0.00    +0.165 C 
ATOM     16  C   UNL     1       1.037   0.228  22.979  0.00  0.00    +0.174 C 
ENDROOT
BRANCH  11   9
ATOM      9  N   UNL     1      -1.978   0.147  25.110  0.00  0.00    -0.289 NA
ATOM     13  C   UNL     1      -3.366  -0.037  24.670  0.00  0.00    +0.083 C 
ATOM     15  C   UNL     1      -1.606  -1.046  25.867  0.00  0.00    +0.085 C 
ATOM     17  C   UNL     1      -3.994  -0.624  25.932  0.00  0.00    +0.022 C 
ATOM     18  C   UNL     1      -2.893  -1.472  26.561  0.00  0.00    +0.017 C 
BRANCH  13  20
ATOM     20  C   UNL     1      -3.572  -0.955  23.462  0.00  0.00    +0.178 C 
BRANCH  20   5
ATOM      5  O   UNL     1      -4.525  -1.947  23.804  0.00  0.00    -0.381 OA
ATOM     22  C   UNL     1      -3.952  -3.249  23.808  0.00  0.00    +0.194 C 
ENDBRANCH  20   5
ENDBRANCH  13  20
ENDBRANCH  11   9
BRANCH  14   4
ATOM      4  O   UNL     1       0.629  -1.042  24.998  0.00  0.00    -0.388 OA
ATOM     29  H   UNL     1       1.407  -1.573  24.757  0.00  0.00    +0.210 HD
ENDBRANCH  14   4
BRANCH  12  19
ATOM     19  C   UNL     1       0.177   2.087  25.719  0.00  0.00    +0.139 C 
BRANCH  19  10
ATOM     10  N   UNL     1      -0.348   3.421  26.060  0.00  0.00    -0.187 NA
ATOM     30  H   UNL     1      -0.631   3.553  27.038  0.00  0.00    +0.148 HD
BRANCH  10   2
ATOM      2  S   UNL     1      -1.104   4.372  24.865  0.00  0.00    +0.058 S 
ATOM      7  O   UNL     1      -0.494   4.099  23.578  0.00  0.00    -0.153 OA
ATOM      8  O   UNL     1      -1.213   5.737  25.345  0.00  0.00    -0.153 OA
BRANCH   2  23
ATOM      1 CL   UNL     1      -6.907   1.979  24.804  0.00  0.00    -0.084 Cl
ATOM     23  C   UNL     1      -2.738   3.698  24.848  0.00  0.00    +0.105 A 
ATOM     24  C   UNL     1      -3.474   3.624  26.031  0.00  0.00    +0.030 A 
ATOM     25  C   UNL     1      -3.291   3.241  23.652  0.00  0.00    +0.030 A 
ATOM     26  C   UNL     1      -4.763   3.093  26.017  0.00  0.00    +0.022 A 
ATOM     27  C   UNL     1      -4.580   2.709  23.639  0.00  0.00    +0.022 A 
ATOM     28  C   UNL     1      -5.317   2.635  24.821  0.00  0.00    +0.041 A 
ENDBRANCH   2  23
ENDBRANCH  10   2
ENDBRANCH  19  10
ENDBRANCH  12  19
BRANCH  16  21
ATOM     21  C   UNL     1       2.455  -0.313  22.968  0.00  0.00    +0.190 C 
BRANCH  21   6
ATOM      6  O   UNL     1       3.352   0.747  23.258  0.00  0.00    -0.392 OA
ATOM     31  H   UNL     1       3.877   0.473  24.029  0.00  0.00    +0.210 HD
ENDBRANCH  21   6
ENDBRANCH  16  21
TORSDOF 10
ENDMDL
MODEL 2
REMARK VINA RESULT:      -4.6      2.589      5.147
REMARK  Name = 28961815
REMARK  11 active torsions:
REMARK  status: ('A' for Active; 'I' for Inactive)
REMARK    1  A    between atoms: S_2  and  N_10
REMARK    2  A    between atoms: S_2  and  C_23
REMARK    3  A    between atoms: O_4  and  C_14
REMARK    4  A    between atoms: O_5  and  C_20
REMARK    5  A    between atoms: O_5  and  C_22
REMARK    6  A    between atoms: O_6  and  C_21
REMARK    7  A    between atoms: N_9  and  C_11
REMARK    8  A    between atoms: N_10  and  C_19
REMARK    9  A    between atoms: C_12  and  C_19
REMARK   10  A    between atoms: C_13  and  C_20
REMARK   11  A    between atoms: C_16  and  C_21
REMARK                            x       y       z     vdW  Elec       q    Type
REMARK                         _______ _______ _______ _____ _____    ______ ____
ROOT
ATOM      3  O   UNL     1      -2.213   4.160  23.663  0.00  0.00    -0.366 OA
ATOM     11  C   UNL     1      -0.851   2.228  23.950  0.00  0.00    +0.118 C 
ATOM     12  C   UNL     1      -1.984   2.842  23.116  0.00  0.00    +0.154 C 
ATOM     14  C   UNL     1      -0.972   2.956  25.280  0.00  0.00    +0.165 C 
ATOM     16  C   UNL     1      -1.353   4.352  24.802  0.00  0.00    +0.174 C 
ENDROOT
BRANCH  11   9
ATOM      9  N   UNL     1      -0.831   0.778  24.036  0.00  0.00    -0.289 NA
ATOM     13  C   UNL     1       0.224   0.110  23.267  0.00  0.00    +0.083 C 
ATOM     15  C   UNL     1      -0.737   0.288  25.410  0.00  0.00    +0.085 C 
ATOM     17  C   UNL     1       0.114  -1.316  23.801  0.00  0.00    +0.022 C 
ATOM     18  C   UNL     1      -0.278  -1.158  25.267  0.00  0.00    +0.017 C 
BRANCH  13  20
ATOM     20  C   UNL     1       1.640   0.668  23.444  0.00  0.00    +0.178 C 
BRANCH  20   5
ATOM      5  O   UNL     1       2.460   0.161  22.404  0.00  0.00    -0.381 OA
ATOM     22  C   UNL     1       3.815   0.564  22.558  0.00  0.00    +0.194 C 
ENDBRANCH  20   5
ENDBRANCH  13  20
ENDBRANCH  11   9
BRANCH  14   4
ATOM      4  O   UNL     1      -2.009   2.407  26.082  0.00  0.00    -0.388 OA
ATOM     29  H   UNL     1      -2.576   1.871  25.504  0.00  0.00    +0.210 HD
ENDBRANCH  14   4
BRANCH  12  19
ATOM     19  C   UNL     1      -3.320   2.107  23.132  0.00  0.00    +0.139 C 
BRANCH  19  10
ATOM     10  N   UNL     1      -4.277   2.853  23.969  0.00  0.00    -0.187 NA
ATOM     30  H   UNL     1      -4.014   3.820  24.194  0.00  0.00    +0.148 HD
BRANCH  10   2
ATOM      2  S   UNL     1      -5.296   2.021  25.050  0.00  0.00    +0.058 S 
ATOM      7  O   UNL     1      -6.642   1.984  24.509  0.00  0.00    -0.153 OA
ATOM      8  O   UNL     1      -5.065   2.515  26.394  0.00  0.00    -0.153 OA
BRANCH   2  23
ATOM      1 CL   UNL     1      -2.953  -3.797  24.799  0.00  0.00    -0.084 Cl
ATOM     23  C   UNL     1      -4.636   0.383  24.980  0.00  0.00    +0.105 A 
ATOM     24  C   UNL     1      -4.677  -0.334  23.784  0.00  0.00    +0.030 A 
ATOM     25  C   UNL     1      -4.074  -0.192  26.119  0.00  0.00    +0.030 A 
ATOM     26  C   UNL     1      -4.156  -1.627  23.728  0.00  0.00    +0.022 A 
ATOM     27  C   UNL     1      -3.554  -1.485  26.063  0.00  0.00    +0.022 A 
ATOM     28  C   UNL     1      -3.594  -2.203  24.868  0.00  0.00    +0.041 A 
ENDBRANCH   2  23
ENDBRANCH  10   2
ENDBRANCH  19  10
ENDBRANCH  12  19
BRANCH  16  21
ATOM     21  C   UNL     1      -2.064   5.220  25.825  0.00  0.00    +0.190 C 
BRANCH  21   6
ATOM      6  O   UNL     1      -3.280   4.591  26.194  0.00  0.00    -0.392 OA
ATOM     31  H   UNL     1      -3.763   5.214  26.762  0.00  0.00    +0.210 HD
ENDBRANCH  21   6
ENDBRANCH  16  21
TORSDOF 10
ENDMDL
MODEL 3
REMARK VINA RESULT:      -3.2      3.436      6.284
REMARK  Name = 28961815
REMARK  11 active torsions:
REMARK  status: ('A' for Active; 'I' for Inactive)
REMARK    1  A    between atoms: S_2  and  N_10
REMARK    2  A    between atoms: S_2  and  C_23
REMARK    3  A    between atoms: O_4  and  C_14
REMARK    4  A    between atoms: O_5  and  C_20
REMARK    5  A    between atoms: O_5  and  C_22
REMARK    6  A    between atoms: O_6  and  C_21
REMARK    7  A    between atoms: N_9  and  C_11
REMARK    8  A    between atoms: N_10  and  C_19
REMARK    9  A    between atoms: C_12  and  C_19
REMARK   10  A    between atoms: C_13  and  C_20
REMARK   11  A    between atoms: C_16  and  C_21
REMARK                            x       y       z     vdW  Elec       q    Type
REMARK                         _______ _______ _______ _____ _____    ______ ____
ROOT
ATOM      3  O   UNL     1      -0.809   3.320  25.255  0.00  0.00    -0.366 OA
ATOM     11  C   UNL     1      -2.752   1.944  25.266  0.00  0.00    +0.118 C 
ATOM     12  C   UNL     1      -1.264   1.996  24.896  0.00  0.00    +0.154 C 
ATOM     14  C   UNL     1      -3.175   3.403  25.195  0.00  0.00    +0.165 C 
ATOM     16  C   UNL     1      -1.928   4.084  25.747  0.00  0.00    +0.174 C 
ENDROOT
BRANCH  11   9
ATOM      9  N   UNL     1      -3.573   1.023  24.499  0.00  0.00    -0.289 NA
ATOM     13  C   UNL     1      -3.088  -0.360  24.438  0.00  0.00    +0.083 C 
ATOM     15  C   UNL     1      -4.959   0.973  24.958  0.00  0.00    +0.085 C 
ATOM     17  C   UNL     1      -4.294  -1.062  23.818  0.00  0.00    +0.022 C 
ATOM     18  C   UNL     1      -5.508  -0.321  24.369  0.00  0.00    +0.017 C 
BRANCH  13  20
ATOM     20  C   UNL     1      -2.697  -0.995  25.777  0.00  0.00    +0.178 C 
BRANCH  20   5
ATOM      5  O   UNL     1      -2.831  -2.402  25.668  0.00  0.00    -0.381 OA
ATOM     22  C   UNL     1      -2.070  -2.921  24.585  0.00  0.00    +0.194 C 
ENDBRANCH  20   5
ENDBRANCH  13  20
ENDBRANCH  11   9
BRANCH  14   4
ATOM      4  O   UNL     1      -3.410   3.813  23.854  0.00  0.00    -0.388 OA
ATOM     29  H   UNL     1      -4.364   3.970  23.758  0.00  0.00    +0.210 HD
ENDBRANCH  14   4
BRANCH  12  19
ATOM     19  C   UNL     1      -0.918   1.783  23.426  0.00  0.00    +0.139 C 
BRANCH  19  10
ATOM     10  N   UNL     1       0.499   1.394  23.310  0.00  0.00    -0.187 NA
ATOM     30  H   UNL     1       1.141   2.133  23.002  0.00  0.00    +0.148 HD
BRANCH  10   2
ATOM      2  S   UNL     1       0.915  -0.225  22.984  0.00  0.00    +0.058 S 
ATOM      7  O   UNL     1       0.601  -0.533  21.601  0.00  0.00    -0.153 OA
ATOM      8  O   UNL     1       0.409  -1.068  24.051  0.00  0.00    -0.153 OA
BRANCH   2  23
ATOM      1 CL   UNL     1       7.164  -0.084  23.564  0.00  0.00    -0.084 Cl
ATOM     23  C   UNL     1       2.675  -0.185  23.147  0.00  0.00    +0.105 A 
ATOM     24  C   UNL     1       3.353  -1.294  23.653  0.00  0.00    +0.030 A 
ATOM     25  C   UNL     1       3.385   0.955  22.769  0.00  0.00    +0.030 A 
ATOM     26  C   UNL     1       4.741  -1.262  23.781  0.00  0.00    +0.022 A 
ATOM     27  C   UNL     1       4.773   0.986  22.898  0.00  0.00    +0.022 A 
ATOM     28  C   UNL     1       5.452  -0.123  23.404  0.00  0.00    +0.041 A 
ENDBRANCH   2  23
ENDBRANCH  10   2
ENDBRANCH  19  10
ENDBRANCH  12  19
BRANCH  16  21
ATOM     21  C   UNL     1      -1.751   5.539  25.355  0.00  0.00    +0.190 C 
BRANCH  21   6
ATOM      6  O   UNL     1      -0.544   5.672  24.619  0.00  0.00    -0.392 OA
ATOM     31  H   UNL     1      -0.247   4.774  24.395  0.00  0.00    +0.210 HD
ENDBRANCH  21   6
ENDBRANCH  16  21
TORSDOF 10
ENDMDL
MODEL 4
REMARK VINA RESULT:      -3.2      2.617      5.193
REMARK  Name = 28961815
REMARK  11 active torsions:
REMARK  status: ('A' for Active; 'I' for Inactive)
REMARK    1  A    between atoms: S_2  and  N_10
REMARK    2  A    between atoms: S_2  and  C_23
REMARK    3  A    between atoms: O_4  and  C_14
REMARK    4  A    between atoms: O_5  and  C_20
REMARK    5  A    between atoms: O_5  and  C_22
REMARK    6  A    between atoms: O_6  and  C_21
REMARK    7  A    between atoms: N_9  and  C_11
REMARK    8  A    between atoms: N_10  and  C_19
REMARK    9  A    between atoms: C_12  and  C_19
REMARK   10  A    between atoms: C_13  and  C_20
REMARK   11  A    between atoms: C_16  and  C_21
REMARK                            x       y       z     vdW  Elec       q    Type
REMARK                         _______ _______ _______ _____ _____    ______ ____
ROOT
ATOM      3  O   UNL     1      -3.751  -1.539  25.662  0.00  0.00    -0.366 OA
ATOM     11  C   UNL     1      -1.633  -0.523  25.276  0.00  0.00    +0.118 C 
ATOM     12  C   UNL     1      -3.132  -0.249  25.454  0.00  0.00    +0.154 C 
ATOM     14  C   UNL     1      -1.605  -1.950  24.753  0.00  0.00    +0.165 C 
ATOM     16  C   UNL     1      -2.747  -2.566  25.552  0.00  0.00    +0.174 C 
ENDROOT
BRANCH  11   9
ATOM      9  N   UNL     1      -0.894   0.443  24.482  0.00  0.00    -0.289 NA
ATOM     13  C   UNL     1      -0.698   1.759  25.102  0.00  0.00    +0.083 C 
ATOM     15  C   UNL     1       0.423  -0.040  24.073  0.00  0.00    +0.085 C 
ATOM     17  C   UNL     1       0.313   2.383  24.144  0.00  0.00    +0.022 C 
ATOM     18  C   UNL     1       1.184   1.220  23.677  0.00  0.00    +0.017 C 
BRANCH  13  20
ATOM     20  C   UNL     1      -0.175   1.752  26.542  0.00  0.00    +0.178 C 
BRANCH  20   5
ATOM      5  O   UNL     1       0.801   2.771  26.674  0.00  0.00    -0.381 OA
ATOM     22  C   UNL     1       1.392   2.769  27.968  0.00  0.00    +0.194 C 
ENDBRANCH  20   5
ENDBRANCH  13  20
ENDBRANCH  11   9
BRANCH  14   4
ATOM      4  O   UNL     1      -1.891  -2.001  23.361  0.00  0.00    -0.388 OA
ATOM     29  H   UNL     1      -1.715  -1.119  22.992  0.00  0.00    +0.210 HD
ENDBRANCH  14   4
BRANCH  12  19
ATOM     19  C   UNL     1      -3.850   0.413  24.283  0.00  0.00    +0.139 C 
BRANCH  19  10
ATOM     10  N   UNL     1      -5.290   0.505  24.581  0.00  0.00    -0.187 NA
ATOM     30  H   UNL     1      -5.906  -0.066  23.990  0.00  0.00    +0.148 HD
BRANCH  10   2
ATOM      2  S   UNL     1      -5.928   1.918  25.284  0.00  0.00    +0.058 S 
ATOM      7  O   UNL     1      -6.209   1.673  26.686  0.00  0.00    -0.153 OA
ATOM      8  O   UNL     1      -6.962   2.453  24.417  0.00  0.00    -0.153 OA
BRANCH   2  23
ATOM      1 CL   UNL     1      -1.037   5.839  24.945  0.00  0.00    -0.084 Cl
ATOM     23  C   UNL     1      -4.551   3.022  25.189  0.00  0.00    +0.105 A 
ATOM     24  C   UNL     1      -4.072   3.433  23.944  0.00  0.00    +0.030 A 
ATOM     25  C   UNL     1      -3.945   3.483  26.357  0.00  0.00    +0.030 A 
ATOM     26  C   UNL     1      -2.986   4.304  23.870  0.00  0.00    +0.022 A 
ATOM     27  C   UNL     1      -2.858   4.353  26.281  0.00  0.00    +0.022 A 
ATOM     28  C   UNL     1      -2.378   4.765  25.038  0.00  0.00    +0.041 A 
ENDBRANCH   2  23
ENDBRANCH  10   2
ENDBRANCH  19  10
ENDBRANCH  12  19
BRANCH  16  21
ATOM     21  C   UNL     1      -3.369  -3.812  24.949  0.00  0.00    +0.190 C 
BRANCH  21   6
ATOM      6  O   UNL     1      -4.192  -3.430  23.857  0.00  0.00    -0.392 OA
ATOM     31  H   UNL     1      -4.015  -4.055  23.134  0.00  0.00    +0.210 HD
ENDBRANCH  21   6
ENDBRANCH  16  21
TORSDOF 10
ENDMDL
MODEL 5
REMARK VINA RESULT:      -2.3      3.323      6.685
REMARK  Name = 28961815
REMARK  11 active torsions:
REMARK  status: ('A' for Active; 'I' for Inactive)
REMARK    1  A    between atoms: S_2  and  N_10
REMARK    2  A    between atoms: S_2  and  C_23
REMARK    3  A    between atoms: O_4  and  C_14
REMARK    4  A    between atoms: O_5  and  C_20
REMARK    5  A    between atoms: O_5  and  C_22
REMARK    6  A    between atoms: O_6  and  C_21
REMARK    7  A    between atoms: N_9  and  C_11
REMARK    8  A    between atoms: N_10  and  C_19
REMARK    9  A    between atoms: C_12  and  C_19
REMARK   10  A    between atoms: C_13  and  C_20
REMARK   11  A    between atoms: C_16  and  C_21
REMARK                            x       y       z     vdW  Elec       q    Type
REMARK                         _______ _______ _______ _____ _____    ______ ____
ROOT
ATOM      3  O   UNL     1      -2.394  -0.742  23.530  0.00  0.00    -0.366 OA
ATOM     11  C   UNL     1      -3.663   1.048  24.456  0.00  0.00    +0.118 C 
ATOM     12  C   UNL     1      -2.275   0.637  23.945  0.00  0.00    +0.154 C 
ATOM     14  C   UNL     1      -4.271  -0.275  24.896  0.00  0.00    +0.165 C 
ATOM     16  C   UNL     1      -3.728  -1.206  23.819  0.00  0.00    +0.174 C 
ENDROOT
BRANCH  11   9
ATOM      9  N   UNL     1      -3.693   2.105  25.452  0.00  0.00    -0.289 NA
ATOM     13  C   UNL     1      -2.592   3.074  25.384  0.00  0.00    +0.083 C 
ATOM     15  C   UNL     1      -4.939   2.869  25.438  0.00  0.00    +0.085 C 
ATOM     17  C   UNL     1      -3.089   4.144  26.352  0.00  0.00    +0.022 C 
ATOM     18  C   UNL     1      -4.605   4.154  26.186  0.00  0.00    +0.017 C 
BRANCH  13  20
ATOM     20  C   UNL     1      -2.299   3.662  24.000  0.00  0.00    +0.178 C 
BRANCH  20   5
ATOM      5  O   UNL     1      -0.901   3.859  23.879  0.00  0.00    -0.381 OA
ATOM     22  C   UNL     1      -0.452   4.949  24.674  0.00  0.00    +0.194 C 
ENDBRANCH  20   5
ENDBRANCH  13  20
ENDBRANCH  11   9
BRANCH  14   4
ATOM      4  O   UNL     1      -3.794  -0.668  26.177  0.00  0.00    -0.388 OA
ATOM     29  H   UNL     1      -4.555  -0.687  26.781  0.00  0.00    +0.210 HD
ENDBRANCH  14   4
BRANCH  12  19
ATOM     19  C   UNL     1      -1.128   0.710  24.948  0.00  0.00    +0.139 C 
BRANCH  19  10
ATOM     10  N   UNL     1       0.150   0.803  24.221  0.00  0.00    -0.187 NA
ATOM     30  H   UNL     1       0.467   1.754  23.994  0.00  0.00    +0.148 HD
BRANCH  10   2
ATOM      2  S   UNL     1       0.659  -0.477  23.220  0.00  0.00    +0.058 S 
ATOM      7  O   UNL     1       0.239  -0.217  21.856  0.00  0.00    -0.153 OA
ATOM      8  O   UNL     1       0.326  -1.737  23.857  0.00  0.00    -0.153 OA
BRANCH   2  23
ATOM      1 CL   UNL     1       6.904   0.112  23.462  0.00  0.00    -0.084 Cl
ATOM     23  C   UNL     1       2.418  -0.312  23.289  0.00  0.00    +0.105 A 
ATOM     24  C   UNL     1       3.024   0.869  22.858  0.00  0.00    +0.030 A 
ATOM     25  C   UNL     1       3.199  -1.360  23.773  0.00  0.00    +0.030 A 
ATOM     26  C   UNL     1       4.411   1.000  22.913  0.00  0.00    +0.022 A 
ATOM     27  C   UNL     1       4.586  -1.229  23.826  0.00  0.00    +0.022 A 
ATOM     28  C   UNL     1       5.193  -0.049  23.397  0.00  0.00    +0.041 A 
ENDBRANCH   2  23
ENDBRANCH  10   2
ENDBRANCH  19  10
ENDBRANCH  12  19
BRANCH  16  21
ATOM     21  C   UNL     1      -3.675  -2.676  24.193  0.00  0.00    +0.190 C 
BRANCH  21   6
ATOM      6  O   UNL     1      -2.374  -2.981  24.672  0.00  0.00    -0.392 OA
ATOM     31  H   UNL     1      -2.459  -3.752  25.257  0.00  0.00    +0.210 HD
ENDBRANCH  21   6
ENDBRANCH  16  21
TORSDOF 10
ENDMDL
MODEL 6
REMARK VINA RESULT:      -2.1      3.445      6.107
REMARK  Name = 28961815
REMARK  11 active torsions:
REMARK  status: ('A' for Active; 'I' for Inactive)
REMARK    1  A    between atoms: S_2  and  N_10
REMARK    2  A    between atoms: S_2  and  C_23
REMARK    3  A    between atoms: O_4  and  C_14
REMARK    4  A    between atoms: O_5  and  C_20
REMARK    5  A    between atoms: O_5  and  C_22
REMARK    6  A    between atoms: O_6  and  C_21
REMARK    7  A    between atoms: N_9  and  C_11
REMARK    8  A    between atoms: N_10  and  C_19
REMARK    9  A    between atoms: C_12  and  C_19
REMARK   10  A    between atoms: C_13  and  C_20
REMARK   11  A    between atoms: C_16  and  C_21
REMARK                            x       y       z     vdW  Elec       q    Type
REMARK                         _______ _______ _______ _____ _____    ______ ____
ROOT
ATOM      3  O   UNL     1      -0.622   3.398  25.707  0.00  0.00    -0.366 OA
ATOM     11  C   UNL     1      -2.553   2.067  25.299  0.00  0.00    +0.118 C 
ATOM     12  C   UNL     1      -1.222   2.132  26.060  0.00  0.00    +0.154 C 
ATOM     14  C   UNL     1      -2.306   2.969  24.099  0.00  0.00    +0.165 C 
ATOM     16  C   UNL     1      -1.458   4.062  24.739  0.00  0.00    +0.174 C 
ENDROOT
BRANCH  11   9
ATOM      9  N   UNL     1      -3.047   0.738  24.984  0.00  0.00    -0.289 NA
ATOM     13  C   UNL     1      -4.441   0.474  25.357  0.00  0.00    +0.083 C 
ATOM     15  C   UNL     1      -2.910   0.397  23.569  0.00  0.00    +0.085 C 
ATOM     17  C   UNL     1      -4.683  -0.857  24.649  0.00  0.00    +0.022 C 
ATOM     18  C   UNL     1      -3.861  -0.776  23.368  0.00  0.00    +0.017 C 
BRANCH  13  20
ATOM     20  C   UNL     1      -5.464   1.531  24.929  0.00  0.00    +0.178 C 
BRANCH  20   5
ATOM      5  O   UNL     1      -5.695   2.406  26.021  0.00  0.00    -0.381 OA
ATOM     22  C   UNL     1      -5.538   3.768  25.646  0.00  0.00    +0.194 C 
ENDBRANCH  20   5
ENDBRANCH  13  20
ENDBRANCH  11   9
BRANCH  14   4
ATOM      4  O   UNL     1      -1.567   2.298  23.086  0.00  0.00    -0.388 OA
ATOM     29  H   UNL     1      -1.155   1.517  23.491  0.00  0.00    +0.210 HD
ENDBRANCH  14   4
BRANCH  12  19
ATOM     19  C   UNL     1      -0.201   1.044  25.747  0.00  0.00    +0.139 C 
BRANCH  19  10
ATOM     10  N   UNL     1       0.334   1.254  24.390  0.00  0.00    -0.187 NA
ATOM     30  H   UNL     1       0.105   2.156  23.954  0.00  0.00    +0.148 HD
BRANCH  10   2
ATOM      2  S   UNL     1       0.637  -0.079  23.375  0.00  0.00    +0.058 S 
ATOM      7  O   UNL     1       0.168   0.221  22.036  0.00  0.00    -0.153 OA
ATOM      8  O   UNL     1       0.204  -1.292  24.044  0.00  0.00    -0.153 OA
BRANCH   2  23
ATOM      1 CL   UNL     1       6.912  -0.193  23.246  0.00  0.00    -0.084 Cl
ATOM     23  C   UNL     1       2.404  -0.112  23.339  0.00  0.00    +0.105 A 
ATOM     24  C   UNL     1       3.112   1.003  22.889  0.00  0.00    +0.030 A 
ATOM     25  C   UNL     1       3.090  -1.250  23.761  0.00  0.00    +0.030 A 
ATOM     26  C   UNL     1       4.506   0.977  22.861  0.00  0.00    +0.022 A 
ATOM     27  C   UNL     1       4.484  -1.275  23.732  0.00  0.00    +0.022 A 
ATOM     28  C   UNL     1       5.193  -0.162  23.282  0.00  0.00    +0.041 A 
ENDBRANCH   2  23
ENDBRANCH  10   2
ENDBRANCH  19  10
ENDBRANCH  12  19
BRANCH  16  21
ATOM     21  C   UNL     1      -0.585   4.855  23.783  0.00  0.00    +0.190 C 
BRANCH  21   6
ATOM      6  O   UNL     1       0.486   4.031  23.351  0.00  0.00    -0.392 OA
ATOM     31  H   UNL     1       1.014   4.555  22.725  0.00  0.00    +0.210 HD
ENDBRANCH  21   6
ENDBRANCH  16  21
TORSDOF 10
ENDMDL
MODEL 7
REMARK VINA RESULT:      -1.8      2.607      4.925
REMARK  Name = 28961815
REMARK  11 active torsions:
REMARK  status: ('A' for Active; 'I' for Inactive)
REMARK    1  A    between atoms: S_2  and  N_10
REMARK    2  A    between atoms: S_2  and  C_23
REMARK    3  A    between atoms: O_4  and  C_14
REMARK    4  A    between atoms: O_5  and  C_20
REMARK    5  A    between atoms: O_5  and  C_22
REMARK    6  A    between atoms: O_6  and  C_21
REMARK    7  A    between atoms: N_9  and  C_11
REMARK    8  A    between atoms: N_10  and  C_19
REMARK    9  A    between atoms: C_12  and  C_19
REMARK   10  A    between atoms: C_13  and  C_20
REMARK   11  A    between atoms: C_16  and  C_21
REMARK                            x       y       z     vdW  Elec       q    Type
REMARK                         _______ _______ _______ _____ _____    ______ ____
ROOT
ATOM      3  O   UNL     1      -3.663  -1.911  25.633  0.00  0.00    -0.366 OA
ATOM     11  C   UNL     1      -1.741  -0.515  25.476  0.00  0.00    +0.118 C 
ATOM     12  C   UNL     1      -3.237  -0.542  25.815  0.00  0.00    +0.154 C 
ATOM     14  C   UNL     1      -1.585  -1.690  24.522  0.00  0.00    +0.165 C 
ATOM     16  C   UNL     1      -2.553  -2.688  25.144  0.00  0.00    +0.174 C 
ENDROOT
BRANCH  11   9
ATOM      9  N   UNL     1      -1.214   0.749  24.994  0.00  0.00    -0.289 NA
ATOM     13  C   UNL     1       0.223   0.769  24.700  0.00  0.00    +0.083 C 
ATOM     15  C   UNL     1      -1.903   1.239  23.801  0.00  0.00    +0.085 C 
ATOM     17  C   UNL     1       0.353   2.110  23.981  0.00  0.00    +0.022 C 
ATOM     18  C   UNL     1      -0.953   2.272  23.210  0.00  0.00    +0.017 C 
BRANCH  13  20
ATOM     20  C   UNL     1       0.748  -0.383  23.837  0.00  0.00    +0.178 C 
BRANCH  20   5
ATOM      5  O   UNL     1       1.322   0.158  22.660  0.00  0.00    -0.381 OA
ATOM     22  C   UNL     1       2.738   0.029  22.657  0.00  0.00    +0.194 C 
ENDBRANCH  20   5
ENDBRANCH  13  20
ENDBRANCH  11   9
BRANCH  14   4
ATOM      4  O   UNL     1      -2.002  -1.350  23.205  0.00  0.00    -0.388 OA
ATOM     29  H   UNL     1      -2.944  -1.114  23.247  0.00  0.00    +0.210 HD
ENDBRANCH  14   4
BRANCH  12  19
ATOM     19  C   UNL     1      -4.147   0.333  24.960  0.00  0.00    +0.139 C 
BRANCH  19  10
ATOM     10  N   UNL     1      -5.391   0.612  25.700  0.00  0.00    -0.187 NA
ATOM     30  H   UNL     1      -6.035  -0.182  25.806  0.00  0.00    +0.148 HD
BRANCH  10   2
ATOM      2  S   UNL     1      -6.041   2.186  25.716  0.00  0.00    +0.058 S 
ATOM      7  O   UNL     1      -6.553   2.481  27.040  0.00  0.00    -0.153 OA
ATOM      8  O   UNL     1      -6.889   2.360  24.551  0.00  0.00    -0.153 OA
BRANCH   2  23
ATOM      1 CL   UNL     1      -0.917   5.696  24.800  0.00  0.00    -0.084 Cl
ATOM     23  C   UNL     1      -4.598   3.174  25.457  0.00  0.00    +0.105 A 
ATOM     24  C   UNL     1      -3.680   3.350  26.493  0.00  0.00    +0.030 A 
ATOM     25  C   UNL     1      -4.378   3.778  24.219  0.00  0.00    +0.030 A 
ATOM     26  C   UNL     1      -2.541   4.129  26.289  0.00  0.00    +0.022 A 
ATOM     27  C   UNL     1      -3.240   4.557  24.017  0.00  0.00    +0.022 A 
ATOM     28  C   UNL     1      -2.321   4.734  25.051  0.00  0.00    +0.041 A 
ENDBRANCH   2  23
ENDBRANCH  10   2
ENDBRANCH  19  10
ENDBRANCH  12  19
BRANCH  16  21
ATOM     21  C   UNL     1      -3.071  -3.766  24.208  0.00  0.00    +0.190 C 
BRANCH  21   6
ATOM      6  O   UNL     1      -4.259  -3.301  23.587  0.00  0.00    -0.392 OA
ATOM     31  H   UNL     1      -4.966  -3.925  23.820  0.00  0.00    +0.210 HD
ENDBRANCH  21   6
ENDBRANCH  16  21
TORSDOF 10
ENDMDL
MODEL 8
REMARK VINA RESULT:      -1.8      2.613      4.930
REMARK  Name = 28961815
REMARK  11 active torsions:
REMARK  status: ('A' for Active; 'I' for Inactive)
REMARK    1  A    between atoms: S_2  and  N_10
REMARK    2  A    between atoms: S_2  and  C_23
REMARK    3  A    between atoms: O_4  and  C_14
REMARK    4  A    between atoms: O_5  and  C_20
REMARK    5  A    between atoms: O_5  and  C_22
REMARK    6  A    between atoms: O_6  and  C_21
REMARK    7  A    between atoms: N_9  and  C_11
REMARK    8  A    between atoms: N_10  and  C_19
REMARK    9  A    between atoms: C_12  and  C_19
REMARK   10  A    between atoms: C_13  and  C_20
REMARK   11  A    between atoms: C_16  and  C_21
REMARK                            x       y       z     vdW  Elec       q    Type
REMARK                         _______ _______ _______ _____ _____    ______ ____
ROOT
ATOM      3  O   UNL     1      -0.559   3.598  25.597  0.00  0.00    -0.366 OA
ATOM     11  C   UNL     1       0.553   1.998  24.228  0.00  0.00    +0.118 C 
ATOM     12  C   UNL     1      -0.519   3.096  24.242  0.00  0.00    +0.154 C 
ATOM     14  C   UNL     1       0.571   1.519  25.671  0.00  0.00    +0.165 C 
ATOM     16  C   UNL     1       0.357   2.836  26.408  0.00  0.00    +0.174 C 
ENDROOT
BRANCH  11   9
ATOM      9  N   UNL     1       0.389   0.955  23.231  0.00  0.00    -0.289 NA
ATOM     13  C   UNL     1       1.611   0.557  22.521  0.00  0.00    +0.083 C 
ATOM     15  C   UNL     1      -0.210  -0.264  23.770  0.00  0.00    +0.085 C 
ATOM     17  C   UNL     1       1.128  -0.695  21.793  0.00  0.00    +0.022 C 
ATOM     18  C   UNL     1       0.120  -1.338  22.740  0.00  0.00    +0.017 C 
BRANCH  13  20
ATOM     20  C   UNL     1       2.831   0.260  23.398  0.00  0.00    +0.178 C 
BRANCH  20   5
ATOM      5  O   UNL     1       3.978   0.822  22.783  0.00  0.00    -0.381 OA
ATOM     22  C   UNL     1       5.178   0.241  23.278  0.00  0.00    +0.194 C 
ENDBRANCH  20   5
ENDBRANCH  13  20
ENDBRANCH  11   9
BRANCH  14   4
ATOM      4  O   UNL     1      -0.500   0.623  25.937  0.00  0.00    -0.388 OA
ATOM     29  H   UNL     1      -0.131  -0.151  26.394  0.00  0.00    +0.210 HD
ENDBRANCH  14   4
BRANCH  12  19
ATOM     19  C   UNL     1      -1.937   2.672  23.875  0.00  0.00    +0.139 C 
BRANCH  19  10
ATOM     10  N   UNL     1      -2.869   3.131  24.920  0.00  0.00    -0.187 NA
ATOM     30  H   UNL     1      -2.436   3.479  25.784  0.00  0.00    +0.148 HD
BRANCH  10   2
ATOM      2  S   UNL     1      -4.439   2.477  25.011  0.00  0.00    +0.058 S 
ATOM      7  O   UNL     1      -5.197   2.884  23.844  0.00  0.00    -0.153 OA
ATOM      8  O   UNL     1      -4.971   2.706  26.342  0.00  0.00    -0.153 OA
BRANCH   2  23
ATOM      1 CL   UNL     1      -3.293  -3.676  24.528  0.00  0.00    -0.084 Cl
ATOM     23  C   UNL     1      -4.116   0.744  24.875  0.00  0.00    +0.105 A 
ATOM     24  C   UNL     1      -3.764   0.010  26.008  0.00  0.00    +0.030 A 
ATOM     25  C   UNL     1      -4.215   0.112  23.636  0.00  0.00    +0.030 A 
ATOM     26  C   UNL     1      -3.510  -1.357  25.900  0.00  0.00    +0.022 A 
ATOM     27  C   UNL     1      -3.960  -1.255  23.529  0.00  0.00    +0.022 A 
ATOM     28  C   UNL     1      -3.607  -1.990  24.661  0.00  0.00    +0.041 A 
ENDBRANCH   2  23
ENDBRANCH  10   2
ENDBRANCH  19  10
ENDBRANCH  12  19
BRANCH  16  21
ATOM     21  C   UNL     1      -0.203   2.714  27.814  0.00  0.00    +0.190 C 
BRANCH  21   6
ATOM      6  O   UNL     1       0.836   2.295  28.685  0.00  0.00    -0.392 OA
ATOM     31  H   UNL     1       1.577   2.912  28.563  0.00  0.00    +0.210 HD
ENDBRANCH  21   6
ENDBRANCH  16  21
TORSDOF 10
ENDMDL
MODEL 9
REMARK VINA RESULT:      -1.2      2.758      4.938
REMARK  Name = 28961815
REMARK  11 active torsions:
REMARK  status: ('A' for Active; 'I' for Inactive)
REMARK    1  A    between atoms: S_2  and  N_10
REMARK    2  A    between atoms: S_2  and  C_23
REMARK    3  A    between atoms: O_4  and  C_14
REMARK    4  A    between atoms: O_5  and  C_20
REMARK    5  A    between atoms: O_5  and  C_22
REMARK    6  A    between atoms: O_6  and  C_21
REMARK    7  A    between atoms: N_9  and  C_11
REMARK    8  A    between atoms: N_10  and  C_19
REMARK    9  A    between atoms: C_12  and  C_19
REMARK   10  A    between atoms: C_13  and  C_20
REMARK   11  A    between atoms: C_16  and  C_21
REMARK                            x       y       z     vdW  Elec       q    Type
REMARK                         _______ _______ _______ _____ _____    ______ ____
ROOT
ATOM      3  O   UNL     1      -3.566  -1.640  23.472  0.00  0.00    -0.366 OA
ATOM     11  C   UNL     1      -4.330   0.394  24.447  0.00  0.00    +0.118 C 
ATOM     12  C   UNL     1      -3.722  -0.233  23.184  0.00  0.00    +0.154 C 
ATOM     14  C   UNL     1      -3.872  -0.548  25.551  0.00  0.00    +0.165 C 
ATOM     16  C   UNL     1      -3.969  -1.889  24.833  0.00  0.00    +0.174 C 
ENDROOT
BRANCH  11   9
ATOM      9  N   UNL     1      -4.038   1.798  24.671  0.00  0.00    -0.289 NA
ATOM     13  C   UNL     1      -5.159   2.722  24.462  0.00  0.00    +0.083 C 
ATOM     15  C   UNL     1      -3.503   2.067  26.005  0.00  0.00    +0.085 C 
ATOM     17  C   UNL     1      -4.582   4.013  25.038  0.00  0.00    +0.022 C 
ATOM     18  C   UNL     1      -3.697   3.566  26.197  0.00  0.00    +0.017 C 
BRANCH  13  20
ATOM     20  C   UNL     1      -6.478   2.343  25.144  0.00  0.00    +0.178 C 
BRANCH  20   5
ATOM      5  O   UNL     1      -6.339   2.543  26.540  0.00  0.00    -0.381 OA
ATOM     22  C   UNL     1      -6.718   1.388  27.277  0.00  0.00    +0.194 C 
ENDBRANCH  20   5
ENDBRANCH  13  20
ENDBRANCH  11   9
BRANCH  14   4
ATOM      4  O   UNL     1      -2.528  -0.287  25.935  0.00  0.00    -0.388 OA
ATOM     29  H   UNL     1      -1.948  -0.759  25.314  0.00  0.00    +0.210 HD
ENDBRANCH  14   4
BRANCH  12  19
ATOM     19  C   UNL     1      -2.359   0.294  22.749  0.00  0.00    +0.139 C 
BRANCH  19  10
ATOM     10  N   UNL     1      -1.326  -0.708  23.065  0.00  0.00    -0.187 NA
ATOM     30  H   UNL     1      -1.658  -1.674  23.172  0.00  0.00    +0.148 HD
BRANCH  10   2
ATOM      2  S   UNL     1       0.089  -0.245  23.892  0.00  0.00    +0.058 S 
ATOM      7  O   UNL     1       1.218  -0.303  22.983  0.00  0.00    -0.153 OA
ATOM      8  O   UNL     1       0.142  -0.940  25.165  0.00  0.00    -0.153 OA
BRANCH   2  23
ATOM      1 CL   UNL     1      -1.079   5.795  25.142  0.00  0.00    -0.084 Cl
ATOM     23  C   UNL     1      -0.240   1.456  24.245  0.00  0.00    +0.105 A 
ATOM     24  C   UNL     1      -0.823   2.268  23.272  0.00  0.00    +0.030 A 
ATOM     25  C   UNL     1       0.083   1.984  25.494  0.00  0.00    +0.030 A 
ATOM     26  C   UNL     1      -1.083   3.610  23.550  0.00  0.00    +0.022 A 
ATOM     27  C   UNL     1      -0.176   3.326  25.771  0.00  0.00    +0.022 A 
ATOM     28  C   UNL     1      -0.759   4.140  24.800  0.00  0.00    +0.041 A 
ENDBRANCH   2  23
ENDBRANCH  10   2
ENDBRANCH  19  10
ENDBRANCH  12  19
BRANCH  16  21
ATOM     21  C   UNL     1      -3.114  -3.002  25.412  0.00  0.00    +0.190 C 
BRANCH  21   6
ATOM      6  O   UNL     1      -1.817  -2.928  24.840  0.00  0.00    -0.392 OA
ATOM     31  H   UNL     1      -1.249  -2.466  25.479  0.00  0.00    +0.210 HD
ENDBRANCH  21   6
ENDBRANCH  16  21
TORSDOF 10
ENDMDL
MODEL 10
REMARK VINA RESULT:      -1.2      3.662      6.593
REMARK  Name = 28961815
REMARK  11 active torsions:
REMARK  status: ('A' for Active; 'I' for Inactive)
REMARK    1  A    between atoms: S_2  and  N_10
REMARK    2  A    between atoms: S_2  and  C_23
REMARK    3  A    between atoms: O_4  and  C_14
REMARK    4  A    between atoms: O_5  and  C_20
REMARK    5  A    between atoms: O_5  and  C_22
REMARK    6  A    between atoms: O_6  and  C_21
REMARK    7  A    between atoms: N_9  and  C_11
REMARK    8  A    between atoms: N_10  and  C_19
REMARK    9  A    between atoms: C_12  and  C_19
REMARK   10  A    between atoms: C_13  and  C_20
REMARK   11  A    between atoms: C_16  and  C_21
REMARK                            x       y       z     vdW  Elec       q    Type
REMARK                         _______ _______ _______ _____ _____    ______ ____
ROOT
ATOM      3  O   UNL     1      -2.080  -0.374  23.306  0.00  0.00    -0.366 OA
ATOM     11  C   UNL     1      -3.230   1.680  23.667  0.00  0.00    +0.118 C 
ATOM     12  C   UNL     1      -1.859   1.052  23.381  0.00  0.00    +0.154 C 
ATOM     14  C   UNL     1      -3.981   0.557  24.367  0.00  0.00    +0.165 C 
ATOM     16  C   UNL     1      -3.465  -0.651  23.594  0.00  0.00    +0.174 C 
ENDROOT
BRANCH  11   9
ATOM      9  N   UNL     1      -3.219   2.950  24.370  0.00  0.00    -0.289 NA
ATOM     13  C   UNL     1      -4.520   3.619  24.493  0.00  0.00    +0.083 C 
ATOM     15  C   UNL     1      -2.656   2.856  25.715  0.00  0.00    +0.085 C 
ATOM     17  C   UNL     1      -4.182   4.728  25.487  0.00  0.00    +0.022 C 
ATOM     18  C   UNL     1      -3.141   4.117  26.420  0.00  0.00    +0.017 C 
BRANCH  13  20
ATOM     20  C   UNL     1      -5.678   2.750  24.994  0.00  0.00    +0.178 C 
BRANCH  20   5
ATOM      5  O   UNL     1      -5.725   2.830  26.409  0.00  0.00    -0.381 OA
ATOM     22  C   UNL     1      -6.479   1.763  26.972  0.00  0.00    +0.194 C 
ENDBRANCH  20   5
ENDBRANCH  13  20
ENDBRANCH  11   9
BRANCH  14   4
ATOM      4  O   UNL     1      -3.616   0.461  25.738  0.00  0.00    -0.388 OA
ATOM     29  H   UNL     1      -3.290  -0.441  25.893  0.00  0.00    +0.210 HD
ENDBRANCH  14   4
BRANCH  12  19
ATOM     19  C   UNL     1      -0.769   1.285  24.422  0.00  0.00    +0.139 C 
BRANCH  19  10
ATOM     10  N   UNL     1       0.552   1.145  23.786  0.00  0.00    -0.187 NA
ATOM     30  H   UNL     1       0.950   2.005  23.389  0.00  0.00    +0.148 HD
BRANCH  10   2
ATOM      2  S   UNL     1       1.022  -0.348  23.114  0.00  0.00    +0.058 S 
ATOM      7  O   UNL     1       0.673  -0.372  21.706  0.00  0.00    -0.153 OA
ATOM      8  O   UNL     1       0.589  -1.419  23.991  0.00  0.00    -0.153 OA
BRANCH   2  23
ATOM      1 CL   UNL     1       7.277  -0.035  23.547  0.00  0.00    -0.084 Cl
ATOM     23  C   UNL     1       2.783  -0.260  23.236  0.00  0.00    +0.105 A 
ATOM     24  C   UNL     1       3.456   0.880  22.794  0.00  0.00    +0.030 A 
ATOM     25  C   UNL     1       3.499  -1.329  23.775  0.00  0.00    +0.030 A 
ATOM     26  C   UNL     1       4.846   0.949  22.891  0.00  0.00    +0.022 A 
ATOM     27  C   UNL     1       4.889  -1.259  23.870  0.00  0.00    +0.022 A 
ATOM     28  C   UNL     1       5.563  -0.120  23.429  0.00  0.00    +0.041 A 
ENDBRANCH   2  23
ENDBRANCH  10   2
ENDBRANCH  19  10
ENDBRANCH  12  19
BRANCH  16  21
ATOM     21  C   UNL     1      -3.569  -1.982  24.317  0.00  0.00    +0.190 C 
BRANCH  21   6
ATOM      6  O   UNL     1      -2.321  -2.270  24.927  0.00  0.00    -0.392 OA
ATOM     31  H   UNL     1      -1.703  -1.568  24.660  0.00  0.00    +0.210 HD
ENDBRANCH  21   6
ENDBRANCH  16  21
TORSDOF 10
ENDMDL
