MODEL 1
REMARK VINA RESULT:       0.9      0.000      0.000
REMARK  Name = 28990637
REMARK  3 active torsions:
REMARK  status: ('A' for Active; 'I' for Inactive)
REMARK    1  A    between atoms: N_3  and  C_13
REMARK    2  A    between atoms: C_13  and  C_18
REMARK    3  A    between atoms: C_16  and  C_19
REMARK                            x       y       z     vdW  Elec       q    Type
REMARK                         _______ _______ _______ _____ _____    ______ ____
ROOT
ATOM      2  O   UNL     1      -1.831   3.695  27.728  0.00  0.00    -0.267 OA
ATOM      3  N   UNL     1      -4.341   1.020  24.308  0.00  0.00    -0.297 NA
ATOM      4  N   UNL     1      -2.267   3.124  25.509  0.00  0.00    -0.311 N 
ATOM      6  C   UNL     1      -4.544   3.517  24.401  0.00  0.00    +0.024 C 
ATOM      7  C   UNL     1      -2.725   2.504  23.113  0.00  0.00    +0.050 C 
ATOM      8  C   UNL     1      -3.732   3.651  23.120  0.00  0.00    +0.017 C 
ATOM      9  C   UNL     1      -5.266   2.154  24.430  0.00  0.00    +0.090 C 
ATOM     10  C   UNL     1      -3.480   1.155  23.124  0.00  0.00    +0.094 C 
ATOM     11  C   UNL     1      -3.610   3.714  25.602  0.00  0.00    +0.130 C 
ATOM     12  C   UNL     1      -1.791   2.600  24.305  0.00  0.00    +0.026 A 
ATOM     14  C   UNL     1      -0.523   2.167  24.212  0.00  0.00    +0.022 A 
ATOM     15  C   UNL     1      -1.458   3.208  26.659  0.00  0.00    +0.259 A 
ATOM     16  C   UNL     1      -0.051   2.684  26.535  0.00  0.00    +0.048 A 
ATOM     17  C   UNL     1       0.354   2.207  25.348  0.00  0.00    +0.015 A 
ENDROOT
BRANCH  16  19
ATOM      5  N   UNL     1       3.064   3.159  28.576  0.00  0.00    -0.263 NA
ATOM     19  C   UNL     1       0.868   2.681  27.686  0.00  0.00    +0.005 A 
ATOM     22  C   UNL     1       0.453   2.225  28.933  0.00  0.00    +0.011 A 
ATOM     24  C   UNL     1       2.171   3.134  27.562  0.00  0.00    +0.119 A 
ATOM     25  C   UNL     1       1.344   2.234  30.001  0.00  0.00    +0.020 A 
ATOM     26  C   UNL     1       2.626   2.707  29.774  0.00  0.00    +0.111 A 
ENDBRANCH  16  19
BRANCH   3  13
ATOM     13  C   UNL     1      -5.067  -0.248  24.285  0.00  0.00    +0.126 C 
BRANCH  13  18
ATOM      1  S   UNL     1      -2.680  -1.294  25.249  0.00  0.00    -0.100 S 
ATOM     18  C   UNL     1      -4.139  -1.426  24.363  0.00  0.00    +0.004 A 
ATOM     20  C   UNL     1      -4.289  -2.674  23.798  0.00  0.00    +0.012 A 
ATOM     21  C   UNL     1      -3.192  -3.532  24.096  0.00  0.00    +0.008 A 
ATOM     23  C   UNL     1      -2.244  -2.907  24.878  0.00  0.00    +0.045 A 
ENDBRANCH  13  18
ENDBRANCH   3  13
TORSDOF 3
ENDMDL
MODEL 2
REMARK VINA RESULT:       2.5      2.714      3.648
REMARK  Name = 28990637
REMARK  3 active torsions:
REMARK  status: ('A' for Active; 'I' for Inactive)
REMARK    1  A    between atoms: N_3  and  C_13
REMARK    2  A    between atoms: C_13  and  C_18
REMARK    3  A    between atoms: C_16  and  C_19
REMARK                            x       y       z     vdW  Elec       q    Type
REMARK                         _______ _______ _______ _____ _____    ______ ____
ROOT
ATOM      2  O   UNL     1       1.103   2.082  25.500  0.00  0.00    -0.267 OA
ATOM      3  N   UNL     1      -3.837   1.365  25.021  0.00  0.00    -0.297 NA
ATOM      4  N   UNL     1      -0.907   2.443  24.373  0.00  0.00    -0.311 N 
ATOM      6  C   UNL     1      -2.897   3.650  25.444  0.00  0.00    +0.024 C 
ATOM      7  C   UNL     1      -3.071   2.826  23.145  0.00  0.00    +0.050 C 
ATOM      8  C   UNL     1      -3.221   4.070  24.017  0.00  0.00    +0.017 C 
ATOM      9  C   UNL     1      -3.865   2.540  25.902  0.00  0.00    +0.090 C 
ATOM     10  C   UNL     1      -4.065   1.741  23.618  0.00  0.00    +0.094 C 
ATOM     11  C   UNL     1      -1.427   3.215  25.510  0.00  0.00    +0.130 C 
ATOM     12  C   UNL     1      -1.648   2.301  23.197  0.00  0.00    +0.026 A 
ATOM     14  C   UNL     1      -1.110   1.688  22.131  0.00  0.00    +0.022 A 
ATOM     15  C   UNL     1       0.406   1.946  24.492  0.00  0.00    +0.259 A 
ATOM     16  C   UNL     1       0.971   1.234  23.292  0.00  0.00    +0.048 A 
ATOM     17  C   UNL     1       0.217   1.143  22.186  0.00  0.00    +0.015 A 
ENDROOT
BRANCH  16  19
ATOM      5  N   UNL     1       3.705  -1.310  23.677  0.00  0.00    -0.263 NA
ATOM     19  C   UNL     1       2.318   0.637  23.321  0.00  0.00    +0.005 A 
ATOM     22  C   UNL     1       3.446   1.399  23.037  0.00  0.00    +0.011 A 
ATOM     24  C   UNL     1       2.499  -0.701  23.632  0.00  0.00    +0.119 A 
ATOM     25  C   UNL     1       4.704   0.807  23.074  0.00  0.00    +0.020 A 
ATOM     26  C   UNL     1       4.780  -0.538  23.396  0.00  0.00    +0.111 A 
ENDBRANCH  16  19
BRANCH   3  13
ATOM     13  C   UNL     1      -4.805   0.360  25.457  0.00  0.00    +0.126 C 
BRANCH  13  18
ATOM      1  S   UNL     1      -3.287  -1.880  26.086  0.00  0.00    -0.100 S 
ATOM     18  C   UNL     1      -4.380  -1.029  25.079  0.00  0.00    +0.004 A 
ATOM     20  C   UNL     1      -4.755  -1.771  23.981  0.00  0.00    +0.012 A 
ATOM     21  C   UNL     1      -4.137  -3.054  23.965  0.00  0.00    +0.008 A 
ATOM     23  C   UNL     1      -3.313  -3.245  25.053  0.00  0.00    +0.045 A 
ENDBRANCH  13  18
ENDBRANCH   3  13
TORSDOF 3
ENDMDL
MODEL 3
REMARK VINA RESULT:       4.5      3.545      5.562
REMARK  Name = 28990637
REMARK  3 active torsions:
REMARK  status: ('A' for Active; 'I' for Inactive)
REMARK    1  A    between atoms: N_3  and  C_13
REMARK    2  A    between atoms: C_13  and  C_18
REMARK    3  A    between atoms: C_16  and  C_19
REMARK                            x       y       z     vdW  Elec       q    Type
REMARK                         _______ _______ _______ _____ _____    ______ ____
ROOT
ATOM      2  O   UNL     1      -0.029  -0.199  21.958  0.00  0.00    -0.267 OA
ATOM      3  N   UNL     1      -3.837   0.580  25.127  0.00  0.00    -0.297 NA
ATOM      4  N   UNL     1      -1.494  -0.959  23.605  0.00  0.00    -0.311 N 
ATOM      6  C   UNL     1      -4.030  -1.077  23.255  0.00  0.00    +0.024 C 
ATOM      7  C   UNL     1      -3.065  -1.782  25.392  0.00  0.00    +0.050 C 
ATOM      8  C   UNL     1      -3.965  -2.232  24.244  0.00  0.00    +0.017 C 
ATOM      9  C   UNL     1      -4.608   0.177  23.944  0.00  0.00    +0.090 C 
ATOM     10  C   UNL     1      -3.681  -0.536  26.071  0.00  0.00    +0.094 C 
ATOM     11  C   UNL     1      -2.628  -0.839  22.679  0.00  0.00    +0.130 C 
ATOM     12  C   UNL     1      -1.665  -1.476  24.892  0.00  0.00    +0.026 A 
ATOM     14  C   UNL     1      -0.601  -1.682  25.683  0.00  0.00    +0.022 A 
ATOM     15  C   UNL     1      -0.223  -0.625  23.099  0.00  0.00    +0.259 A 
ATOM     16  C   UNL     1       0.949  -0.834  24.021  0.00  0.00    +0.048 A 
ATOM     17  C   UNL     1       0.723  -1.349  25.239  0.00  0.00    +0.015 A 
ENDROOT
BRANCH  16  19
ATOM      5  N   UNL     1       4.654  -1.081  23.466  0.00  0.00    -0.263 NA
ATOM     19  C   UNL     1       2.318  -0.477  23.610  0.00  0.00    +0.005 A 
ATOM     22  C   UNL     1       2.588   0.743  22.999  0.00  0.00    +0.011 A 
ATOM     24  C   UNL     1       3.376  -1.347  23.818  0.00  0.00    +0.119 A 
ATOM     25  C   UNL     1       3.890   1.052  22.623  0.00  0.00    +0.020 A 
ATOM     26  C   UNL     1       4.879   0.115  22.876  0.00  0.00    +0.111 A 
ENDBRANCH  16  19
BRANCH   3  13
ATOM     13  C   UNL     1      -4.446   1.736  25.780  0.00  0.00    +0.126 C 
BRANCH  13  18
ATOM      1  S   UNL     1      -2.014   2.825  24.996  0.00  0.00    -0.100 S 
ATOM     18  C   UNL     1      -3.572   2.954  25.695  0.00  0.00    +0.004 A 
ATOM     20  C   UNL     1      -3.845   4.236  26.117  0.00  0.00    +0.012 A 
ATOM     21  C   UNL     1      -2.761   5.125  25.863  0.00  0.00    +0.008 A 
ATOM     23  C   UNL     1      -1.700   4.487  25.257  0.00  0.00    +0.045 A 
ENDBRANCH  13  18
ENDBRANCH   3  13
TORSDOF 3
ENDMDL
MODEL 4
REMARK VINA RESULT:       4.8      3.370      6.528
REMARK  Name = 28990637
REMARK  3 active torsions:
REMARK  status: ('A' for Active; 'I' for Inactive)
REMARK    1  A    between atoms: N_3  and  C_13
REMARK    2  A    between atoms: C_13  and  C_18
REMARK    3  A    between atoms: C_16  and  C_19
REMARK                            x       y       z     vdW  Elec       q    Type
REMARK                         _______ _______ _______ _____ _____    ______ ____
ROOT
ATOM      2  O   UNL     1      -2.212   2.186  26.386  0.00  0.00    -0.267 OA
ATOM      3  N   UNL     1       0.460  -0.692  23.266  0.00  0.00    -0.297 NA
ATOM      4  N   UNL     1      -1.909   0.196  25.209  0.00  0.00    -0.311 N 
ATOM      6  C   UNL     1       0.062  -1.383  25.643  0.00  0.00    +0.024 C 
ATOM      7  C   UNL     1      -1.594  -1.950  23.931  0.00  0.00    +0.050 C 
ATOM      8  C   UNL     1      -0.901  -2.472  25.187  0.00  0.00    +0.017 C 
ATOM      9  C   UNL     1       1.091  -1.087  24.533  0.00  0.00    +0.090 C 
ATOM     10  C   UNL     1      -0.539  -1.680  22.833  0.00  0.00    +0.094 C 
ATOM     11  C   UNL     1      -0.748  -0.143  26.043  0.00  0.00    +0.130 C 
ATOM     12  C   UNL     1      -2.379  -0.687  24.234  0.00  0.00    +0.026 A 
ATOM     14  C   UNL     1      -3.507  -0.409  23.560  0.00  0.00    +0.022 A 
ATOM     15  C   UNL     1      -2.577   1.399  25.510  0.00  0.00    +0.259 A 
ATOM     16  C   UNL     1      -3.819   1.700  24.715  0.00  0.00    +0.048 A 
ATOM     17  C   UNL     1      -4.230   0.806  23.803  0.00  0.00    +0.015 A 
ENDROOT
BRANCH  16  19
ATOM      5  N   UNL     1      -6.416   4.104  25.970  0.00  0.00    -0.263 NA
ATOM     19  C   UNL     1      -4.571   2.951  24.917  0.00  0.00    +0.005 A 
ATOM     22  C   UNL     1      -4.186   4.129  24.285  0.00  0.00    +0.011 A 
ATOM     24  C   UNL     1      -5.683   2.991  25.742  0.00  0.00    +0.119 A 
ATOM     25  C   UNL     1      -4.916   5.294  24.494  0.00  0.00    +0.020 A 
ATOM     26  C   UNL     1      -6.013   5.230  25.339  0.00  0.00    +0.111 A 
ENDBRANCH  16  19
BRANCH   3  13
ATOM     13  C   UNL     1       1.463  -0.472  22.228  0.00  0.00    +0.126 C 
BRANCH  13  18
ATOM      1  S   UNL     1       3.690   1.131  22.665  0.00  0.00    -0.100 S 
ATOM     18  C   UNL     1       2.846  -0.353  22.800  0.00  0.00    +0.004 A 
ATOM     20  C   UNL     1       3.587  -1.310  23.458  0.00  0.00    +0.012 A 
ATOM     21  C   UNL     1       4.864  -0.819  23.856  0.00  0.00    +0.008 A 
ATOM     23  C   UNL     1       5.050   0.495  23.487  0.00  0.00    +0.045 A 
ENDBRANCH  13  18
ENDBRANCH   3  13
TORSDOF 3
ENDMDL
