MODEL 1
REMARK VINA RESULT:      -2.2      0.000      0.000
REMARK  Name = 45783775
REMARK  6 active torsions:
REMARK  status: ('A' for Active; 'I' for Inactive)
REMARK    1  A    between atoms: N_2  and  C_8
REMARK    2  A    between atoms: N_3  and  C_18
REMARK    3  A    between atoms: N_7  and  C_24
REMARK    4  A    between atoms: N_7  and  C_25
REMARK    5  A    between atoms: C_9  and  C_17
REMARK    6  A    between atoms: C_19  and  C_20
REMARK                            x       y       z     vdW  Elec       q    Type
REMARK                         _______ _______ _______ _____ _____    ______ ____
ROOT
ATOM      1  O   UNL     1      -1.795   3.435  24.660  0.00  0.00    -0.336 OA
ATOM      4  N   UNL     1      -1.541   1.428  23.696  0.00  0.00    -0.190 NA
ATOM      5  N   UNL     1      -0.416   3.254  24.493  0.00  0.00    -0.056 NA
ATOM     17  C   UNL     1      -2.384   2.314  24.165  0.00  0.00    +0.245 A 
ATOM     19  C   UNL     1      -0.346   2.049  23.919  0.00  0.00    +0.204 A 
ENDROOT
BRANCH  19  20
ATOM      6  N   UNL     1       3.276   1.664  23.170  0.00  0.00    -0.240 NA
ATOM     20  C   UNL     1       0.899   1.439  23.557  0.00  0.00    +0.041 A 
ATOM     21  C   UNL     1       0.970   0.084  23.249  0.00  0.00    +0.016 A 
ATOM     22  C   UNL     1       2.071   2.178  23.503  0.00  0.00    +0.124 A 
ATOM     23  C   UNL     1       2.193  -0.481  22.901  0.00  0.00    +0.044 A 
ATOM     24  C   UNL     1       3.306   0.344  22.877  0.00  0.00    +0.118 A 
BRANCH  24   7
ATOM      7  N   UNL     1       4.544  -0.247  22.522  0.00  0.00    -0.332 N 
ATOM     25  C   UNL     1       5.702  -0.163  23.351  0.00  0.00    +0.127 C 
ATOM     26  H   UNL     1       4.533  -0.925  21.768  0.00  0.00    +0.147 HD
ENDBRANCH  24   7
ENDBRANCH  19  20
BRANCH  17   9
ATOM      2  N   UNL     1      -4.389   1.581  25.443  0.00  0.00    -0.288 NA
ATOM      9  C   UNL     1      -3.895   2.261  24.229  0.00  0.00    +0.146 C 
ATOM     10  C   UNL     1      -5.688   2.178  25.753  0.00  0.00    +0.085 C 
ATOM     13  C   UNL     1      -4.537   3.660  24.278  0.00  0.00    +0.030 C 
ATOM     14  C   UNL     1      -5.419   3.651  25.518  0.00  0.00    +0.017 C 
BRANCH   2   8
ATOM      3  N   UNL     1      -3.304  -2.380  24.345  0.00  0.00    -0.305 NA
ATOM      8  C   UNL     1      -4.473   0.129  25.295  0.00  0.00    +0.060 C 
ATOM     11  C   UNL     1      -3.299  -0.546  26.008  0.00  0.00    +0.034 C 
ATOM     12  C   UNL     1      -4.486  -0.271  23.816  0.00  0.00    +0.034 C 
ATOM     15  C   UNL     1      -3.315  -2.059  25.779  0.00  0.00    +0.085 C 
ATOM     16  C   UNL     1      -4.463  -1.794  23.660  0.00  0.00    +0.085 C 
ATOM     18  C   UNL     1      -3.268  -3.828  24.144  0.00  0.00    +0.104 C 
ENDBRANCH   2   8
ENDBRANCH  17   9
TORSDOF 4
ENDMDL
MODEL 2
REMARK VINA RESULT:      -0.8      1.603      3.901
REMARK  Name = 45783775
REMARK  6 active torsions:
REMARK  status: ('A' for Active; 'I' for Inactive)
REMARK    1  A    between atoms: N_2  and  C_8
REMARK    2  A    between atoms: N_3  and  C_18
REMARK    3  A    between atoms: N_7  and  C_24
REMARK    4  A    between atoms: N_7  and  C_25
REMARK    5  A    between atoms: C_9  and  C_17
REMARK    6  A    between atoms: C_19  and  C_20
REMARK                            x       y       z     vdW  Elec       q    Type
REMARK                         _______ _______ _______ _____ _____    ______ ____
ROOT
ATOM      1  O   UNL     1      -1.192   0.531  23.127  0.00  0.00    -0.336 OA
ATOM      4  N   UNL     1       0.195  -0.721  24.365  0.00  0.00    -0.190 NA
ATOM      5  N   UNL     1       0.104   0.843  22.696  0.00  0.00    -0.056 NA
ATOM     17  C   UNL     1      -1.048  -0.396  24.111  0.00  0.00    +0.245 A 
ATOM     19  C   UNL     1       0.865   0.065  23.473  0.00  0.00    +0.204 A 
ENDROOT
BRANCH  19  20
ATOM      6  N   UNL     1       4.347   1.227  22.877  0.00  0.00    -0.240 NA
ATOM     20  C   UNL     1       2.296   0.051  23.383  0.00  0.00    +0.041 A 
ATOM     21  C   UNL     1       3.021  -1.094  23.696  0.00  0.00    +0.016 A 
ATOM     22  C   UNL     1       3.000   1.175  22.982  0.00  0.00    +0.124 A 
ATOM     23  C   UNL     1       4.409  -1.079  23.599  0.00  0.00    +0.044 A 
ATOM     24  C   UNL     1       5.018   0.096  23.189  0.00  0.00    +0.118 A 
BRANCH  24   7
ATOM      7  N   UNL     1       6.432   0.096  23.097  0.00  0.00    -0.332 N 
ATOM     25  C   UNL     1       7.181  -1.068  22.751  0.00  0.00    +0.127 C 
ATOM     26  H   UNL     1       6.893   0.998  23.063  0.00  0.00    +0.147 HD
ENDBRANCH  24   7
ENDBRANCH  19  20
BRANCH  17   9
ATOM      2  N   UNL     1      -3.529  -0.243  24.214  0.00  0.00    -0.288 NA
ATOM      9  C   UNL     1      -2.323  -0.905  24.750  0.00  0.00    +0.146 C 
ATOM     10  C   UNL     1      -4.618  -1.213  24.324  0.00  0.00    +0.085 C 
ATOM     13  C   UNL     1      -2.557  -2.406  24.497  0.00  0.00    +0.030 C 
ATOM     14  C   UNL     1      -3.943  -2.493  23.874  0.00  0.00    +0.017 C 
BRANCH   2   8
ATOM      3  N   UNL     1      -5.436   3.466  25.040  0.00  0.00    -0.305 NA
ATOM      8  C   UNL     1      -3.844   1.014  24.890  0.00  0.00    +0.060 C 
ATOM     11  C   UNL     1      -5.302   1.015  25.357  0.00  0.00    +0.034 C 
ATOM     12  C   UNL     1      -3.592   2.211  23.967  0.00  0.00    +0.034 C 
ATOM     15  C   UNL     1      -5.679   2.362  25.978  0.00  0.00    +0.085 C 
ATOM     16  C   UNL     1      -4.025   3.519  24.634  0.00  0.00    +0.085 C 
ATOM     18  C   UNL     1      -5.848   4.739  25.628  0.00  0.00    +0.104 C 
ENDBRANCH   2   8
ENDBRANCH  17   9
TORSDOF 4
ENDMDL
MODEL 3
REMARK VINA RESULT:      -0.6      1.968      4.365
REMARK  Name = 45783775
REMARK  6 active torsions:
REMARK  status: ('A' for Active; 'I' for Inactive)
REMARK    1  A    between atoms: N_2  and  C_8
REMARK    2  A    between atoms: N_3  and  C_18
REMARK    3  A    between atoms: N_7  and  C_24
REMARK    4  A    between atoms: N_7  and  C_25
REMARK    5  A    between atoms: C_9  and  C_17
REMARK    6  A    between atoms: C_19  and  C_20
REMARK                            x       y       z     vdW  Elec       q    Type
REMARK                         _______ _______ _______ _____ _____    ______ ____
ROOT
ATOM      1  O   UNL     1      -0.788  -0.416  22.618  0.00  0.00    -0.336 OA
ATOM      4  N   UNL     1       0.528  -0.570  24.425  0.00  0.00    -0.190 NA
ATOM      5  N   UNL     1       0.525  -0.252  22.158  0.00  0.00    -0.056 NA
ATOM     17  C   UNL     1      -0.697  -0.597  23.962  0.00  0.00    +0.245 A 
ATOM     19  C   UNL     1       1.243  -0.355  23.282  0.00  0.00    +0.204 A 
ENDROOT
BRANCH  19  20
ATOM      6  N   UNL     1       4.815  -1.256  23.783  0.00  0.00    -0.240 NA
ATOM     20  C   UNL     1       2.672  -0.248  23.296  0.00  0.00    +0.041 A 
ATOM     21  C   UNL     1       3.308   0.909  22.859  0.00  0.00    +0.016 A 
ATOM     22  C   UNL     1       3.465  -1.293  23.744  0.00  0.00    +0.124 A 
ATOM     23  C   UNL     1       4.697   0.985  22.884  0.00  0.00    +0.044 A 
ATOM     24  C   UNL     1       5.398  -0.116  23.351  0.00  0.00    +0.118 A 
BRANCH  24   7
ATOM      7  N   UNL     1       6.812  -0.024  23.368  0.00  0.00    -0.332 N 
ATOM     25  C   UNL     1       7.651  -0.929  22.652  0.00  0.00    +0.127 C 
ATOM     26  H   UNL     1       7.215   0.836  23.722  0.00  0.00    +0.147 HD
ENDBRANCH  24   7
ENDBRANCH  19  20
BRANCH  17   9
ATOM      2  N   UNL     1      -3.086   0.056  24.191  0.00  0.00    -0.288 NA
ATOM      9  C   UNL     1      -2.000  -0.801  24.706  0.00  0.00    +0.146 C 
ATOM     10  C   UNL     1      -4.334  -0.669  24.431  0.00  0.00    +0.085 C 
ATOM     13  C   UNL     1      -2.540  -2.237  24.575  0.00  0.00    +0.030 C 
ATOM     14  C   UNL     1      -3.955  -2.083  24.038  0.00  0.00    +0.017 C 
BRANCH   2   8
ATOM      3  N   UNL     1      -2.143   4.154  24.813  0.00  0.00    -0.305 NA
ATOM      8  C   UNL     1      -3.102   1.389  24.790  0.00  0.00    +0.060 C 
ATOM     11  C   UNL     1      -3.573   2.425  23.767  0.00  0.00    +0.034 C 
ATOM     12  C   UNL     1      -1.714   1.769  25.318  0.00  0.00    +0.034 C 
ATOM     15  C   UNL     1      -3.500   3.840  24.346  0.00  0.00    +0.085 C 
ATOM     16  C   UNL     1      -1.703   3.206  25.845  0.00  0.00    +0.085 C 
ATOM     18  C   UNL     1      -2.078   5.525  25.316  0.00  0.00    +0.104 C 
ENDBRANCH   2   8
ENDBRANCH  17   9
TORSDOF 4
ENDMDL
MODEL 4
REMARK VINA RESULT:       0.6      1.852      2.852
REMARK  Name = 45783775
REMARK  6 active torsions:
REMARK  status: ('A' for Active; 'I' for Inactive)
REMARK    1  A    between atoms: N_2  and  C_8
REMARK    2  A    between atoms: N_3  and  C_18
REMARK    3  A    between atoms: N_7  and  C_24
REMARK    4  A    between atoms: N_7  and  C_25
REMARK    5  A    between atoms: C_9  and  C_17
REMARK    6  A    between atoms: C_19  and  C_20
REMARK                            x       y       z     vdW  Elec       q    Type
REMARK                         _______ _______ _______ _____ _____    ______ ____
ROOT
ATOM      1  O   UNL     1      -0.294   0.415  22.649  0.00  0.00    -0.336 OA
ATOM      4  N   UNL     1       1.192   1.486  23.939  0.00  0.00    -0.190 NA
ATOM      5  N   UNL     1       0.932  -0.231  22.448  0.00  0.00    -0.056 NA
ATOM     17  C   UNL     1      -0.053   1.414  23.539  0.00  0.00    +0.245 A 
ATOM     19  C   UNL     1       1.758   0.458  23.242  0.00  0.00    +0.204 A 
ENDROOT
BRANCH  19  20
ATOM      6  N   UNL     1       4.869  -1.486  23.851  0.00  0.00    -0.240 NA
ATOM     20  C   UNL     1       3.152   0.145  23.361  0.00  0.00    +0.041 A 
ATOM     21  C   UNL     1       4.126   1.108  23.119  0.00  0.00    +0.016 A 
ATOM     22  C   UNL     1       3.573  -1.126  23.722  0.00  0.00    +0.124 A 
ATOM     23  C   UNL     1       5.471   0.775  23.242  0.00  0.00    +0.044 A 
ATOM     24  C   UNL     1       5.787  -0.523  23.607  0.00  0.00    +0.118 A 
BRANCH  24   7
ATOM      7  N   UNL     1       7.161  -0.847  23.727  0.00  0.00    -0.332 N 
ATOM     25  C   UNL     1       8.135  -0.441  22.766  0.00  0.00    +0.127 C 
ATOM     26  H   UNL     1       7.480  -1.185  24.629  0.00  0.00    +0.147 HD
ENDBRANCH  24   7
ENDBRANCH  19  20
BRANCH  17   9
ATOM      2  N   UNL     1      -1.770   1.934  25.263  0.00  0.00    -0.288 NA
ATOM      9  C   UNL     1      -1.238   2.273  23.928  0.00  0.00    +0.146 C 
ATOM     10  C   UNL     1      -2.349   3.164  25.802  0.00  0.00    +0.085 C 
ATOM     13  C   UNL     1      -0.884   3.769  24.016  0.00  0.00    +0.030 C 
ATOM     14  C   UNL     1      -1.308   4.196  25.414  0.00  0.00    +0.017 C 
BRANCH   2   8
ATOM      3  N   UNL     1      -3.606  -1.730  24.134  0.00  0.00    -0.305 NA
ATOM      8  C   UNL     1      -2.736   0.838  25.237  0.00  0.00    +0.060 C 
ATOM     11  C   UNL     1      -2.052  -0.481  25.602  0.00  0.00    +0.034 C 
ATOM     12  C   UNL     1      -3.394   0.721  23.858  0.00  0.00    +0.034 C 
ATOM     15  C   UNL     1      -3.026  -1.656  25.482  0.00  0.00    +0.085 C 
ATOM     16  C   UNL     1      -4.324  -0.494  23.796  0.00  0.00    +0.085 C 
ATOM     18  C   UNL     1      -4.494  -2.886  24.021  0.00  0.00    +0.104 C 
ENDBRANCH   2   8
ENDBRANCH  17   9
TORSDOF 4
ENDMDL
