MODEL 1
REMARK VINA RESULT:       0.5      0.000      0.000
REMARK  Name = 71693345
REMARK  13 active torsions:
REMARK  status: ('A' for Active; 'I' for Inactive)
REMARK    1  A    between atoms: S_1  and  N_8
REMARK    2  A    between atoms: S_1  and  C_24
REMARK    3  A    between atoms: O_3  and  C_13
REMARK    4  A    between atoms: N_7  and  C_11
REMARK    5  A    between atoms: N_8  and  C_21
REMARK    6  A    between atoms: C_9  and  C_13
REMARK    7  A    between atoms: C_10  and  C_14
REMARK    8  A    between atoms: C_11  and  C_12
REMARK    9  A    between atoms: C_12  and  C_17
REMARK   10  A    between atoms: C_12  and  C_18
REMARK   11  A    between atoms: C_24  and  C_25
REMARK   12  A    between atoms: C_25  and  C_26
REMARK   13  A    between atoms: C_25  and  C_27
REMARK                            x       y       z     vdW  Elec       q    Type
REMARK                         _______ _______ _______ _____ _____    ______ ____
ROOT
ATOM     14  C   UNL     1      -4.142  -9.990  11.526  0.00  0.00    -0.017 A 
ATOM     19  C   UNL     1      -3.284 -10.495  12.502  0.00  0.00    +0.008 A 
ATOM     20  C   UNL     1      -3.641  -9.180  10.507  0.00  0.00    +0.008 A 
ATOM     21  C   UNL     1      -1.421  -9.379  11.440  0.00  0.00    +0.048 A 
ATOM     22  C   UNL     1      -1.923 -10.190  12.459  0.00  0.00    +0.025 A 
ATOM     23  C   UNL     1      -2.281  -8.874  10.465  0.00  0.00    +0.025 A 
ENDROOT
BRANCH  14  10
ATOM      2  O   UNL     1      -6.148  -9.715  12.751  0.00  0.00    -0.361 OA
ATOM      4  O   UNL     1      -9.644  -9.988  12.121  0.00  0.00    -0.273 OA
ATOM      7  N   UNL     1      -7.883  -9.933  10.595  0.00  0.00    -0.291 N 
ATOM      9  C   UNL     1      -6.424  -9.798  10.366  0.00  0.00    +0.135 C 
ATOM     10  C   UNL     1      -5.619 -10.322  11.572  0.00  0.00    +0.171 C 
ATOM     15  C   UNL     1      -8.436 -10.003  11.876  0.00  0.00    +0.242 C 
ATOM     16  C   UNL     1      -7.450 -10.180  13.013  0.00  0.00    +0.256 C 
BRANCH   7  11
ATOM     11  C   UNL     1      -8.778  -9.744   9.457  0.00  0.00    +0.111 C 
BRANCH  11  12
ATOM     12  C   UNL     1      -9.207  -8.282   9.289  0.00  0.00    +0.000 C 
ATOM     17  C   UNL     1     -10.718  -8.202   9.070  0.00  0.00    +0.009 C 
ATOM     18  C   UNL     1      -8.476  -7.610   8.125  0.00  0.00    +0.009 C 
ENDBRANCH  11  12
ENDBRANCH   7  11
BRANCH   9  13
ATOM     13  C   UNL     1      -5.966 -10.484   9.072  0.00  0.00    +0.181 C 
BRANCH  13   3
ATOM      3  O   UNL     1      -5.623  -9.481   8.137  0.00  0.00    -0.393 OA
ATOM     28  H   UNL     1      -6.032  -9.725   7.290  0.00  0.00    +0.209 HD
ENDBRANCH  13   3
ENDBRANCH   9  13
ENDBRANCH  14  10
BRANCH  21   8
ATOM      8  N   UNL     1      -0.030  -9.068  11.396  0.00  0.00    -0.221 N 
ATOM     29  H   UNL     1       0.583  -9.894  11.357  0.00  0.00    +0.173 HD
BRANCH   8   1
ATOM      1  S   UNL     1       0.547  -7.775  12.378  0.00  0.00    +0.043 S 
ATOM      5  O   UNL     1      -0.255  -6.597  12.104  0.00  0.00    -0.155 OA
ATOM      6  O   UNL     1       0.764  -8.217  13.741  0.00  0.00    -0.155 OA
BRANCH   1  24
ATOM     24  C   UNL     1       2.139  -7.500  11.634  0.00  0.00    +0.191 C 
BRANCH  24  25
ATOM     25  C   UNL     1       3.035  -6.580  12.464  0.00  0.00    +0.006 C 
ATOM     26  C   UNL     1       2.829  -5.106  12.108  0.00  0.00    +0.009 C 
ATOM     27  C   UNL     1       4.502  -6.960  12.256  0.00  0.00    +0.009 C 
ENDBRANCH  24  25
ENDBRANCH   1  24
ENDBRANCH   8   1
ENDBRANCH  21   8
TORSDOF 9
ENDMDL
MODEL 2
REMARK VINA RESULT:       1.1      2.345      2.821
REMARK  Name = 71693345
REMARK  13 active torsions:
REMARK  status: ('A' for Active; 'I' for Inactive)
REMARK    1  A    between atoms: S_1  and  N_8
REMARK    2  A    between atoms: S_1  and  C_24
REMARK    3  A    between atoms: O_3  and  C_13
REMARK    4  A    between atoms: N_7  and  C_11
REMARK    5  A    between atoms: N_8  and  C_21
REMARK    6  A    between atoms: C_9  and  C_13
REMARK    7  A    between atoms: C_10  and  C_14
REMARK    8  A    between atoms: C_11  and  C_12
REMARK    9  A    between atoms: C_12  and  C_17
REMARK   10  A    between atoms: C_12  and  C_18
REMARK   11  A    between atoms: C_24  and  C_25
REMARK   12  A    between atoms: C_25  and  C_26
REMARK   13  A    between atoms: C_25  and  C_27
REMARK                            x       y       z     vdW  Elec       q    Type
REMARK                         _______ _______ _______ _____ _____    ______ ____
ROOT
ATOM     14  C   UNL     1      -5.312  -9.776  10.955  0.00  0.00    -0.017 A 
ATOM     19  C   UNL     1      -4.365 -10.781  11.153  0.00  0.00    +0.008 A 
ATOM     20  C   UNL     1      -4.908  -8.509  10.535  0.00  0.00    +0.008 A 
ATOM     21  C   UNL     1      -2.608  -9.251  10.511  0.00  0.00    +0.048 A 
ATOM     22  C   UNL     1      -3.013 -10.518  10.931  0.00  0.00    +0.025 A 
ATOM     23  C   UNL     1      -3.556  -8.246  10.314  0.00  0.00    +0.025 A 
ENDROOT
BRANCH  14  10
ATOM      2  O   UNL     1      -7.174  -9.297  12.336  0.00  0.00    -0.361 OA
ATOM      4  O   UNL     1     -10.720  -9.556  12.111  0.00  0.00    -0.273 OA
ATOM      7  N   UNL     1      -9.129  -9.740  10.417  0.00  0.00    -0.291 N 
ATOM      9  C   UNL     1      -7.701  -9.672  10.022  0.00  0.00    +0.135 C 
ATOM     10  C   UNL     1      -6.780 -10.061  11.195  0.00  0.00    +0.171 C 
ATOM     15  C   UNL     1      -9.544  -9.634  11.745  0.00  0.00    +0.242 C 
ATOM     16  C   UNL     1      -8.446  -9.691  12.788  0.00  0.00    +0.256 C 
BRANCH   7  11
ATOM     11  C   UNL     1     -10.137  -9.673   9.362  0.00  0.00    +0.111 C 
BRANCH  11  12
ATOM     12  C   UNL     1     -10.337  -8.247   8.836  0.00  0.00    +0.000 C 
ATOM     17  C   UNL     1      -9.065  -7.763   8.140  0.00  0.00    +0.009 C 
ATOM     18  C   UNL     1     -10.717  -7.280   9.960  0.00  0.00    +0.009 C 
ENDBRANCH  11  12
ENDBRANCH   7  11
BRANCH   9  13
ATOM     13  C   UNL     1      -7.391 -10.528   8.786  0.00  0.00    +0.181 C 
BRANCH  13   3
ATOM      3  O   UNL     1      -6.165 -10.088   8.240  0.00  0.00    -0.393 OA
ATOM     28  H   UNL     1      -5.463 -10.633   8.633  0.00  0.00    +0.209 HD
ENDBRANCH  13   3
ENDBRANCH   9  13
ENDBRANCH  14  10
BRANCH  21   8
ATOM      8  N   UNL     1      -1.225  -8.983  10.283  0.00  0.00    -0.221 N 
ATOM     29  H   UNL     1      -0.803  -9.561   9.544  0.00  0.00    +0.173 HD
BRANCH   8   1
ATOM      1  S   UNL     1      -0.217  -8.690  11.649  0.00  0.00    +0.043 S 
ATOM      5  O   UNL     1       1.163  -8.906  11.256  0.00  0.00    -0.155 OA
ATOM      6  O   UNL     1      -0.608  -7.472  12.330  0.00  0.00    -0.155 OA
BRANCH   1  24
ATOM     24  C   UNL     1      -0.680 -10.064  12.681  0.00  0.00    +0.191 C 
BRANCH  24  25
ATOM     25  C   UNL     1      -1.348  -9.631  13.987  0.00  0.00    +0.006 C 
ATOM     26  C   UNL     1      -0.389  -9.714  15.175  0.00  0.00    +0.009 C 
ATOM     27  C   UNL     1      -2.577 -10.503  14.253  0.00  0.00    +0.009 C 
ENDBRANCH  24  25
ENDBRANCH   1  24
ENDBRANCH   8   1
ENDBRANCH  21   8
TORSDOF 9
ENDMDL
MODEL 3
REMARK VINA RESULT:       2.7     15.888     17.193
REMARK  Name = 71693345
REMARK  13 active torsions:
REMARK  status: ('A' for Active; 'I' for Inactive)
REMARK    1  A    between atoms: S_1  and  N_8
REMARK    2  A    between atoms: S_1  and  C_24
REMARK    3  A    between atoms: O_3  and  C_13
REMARK    4  A    between atoms: N_7  and  C_11
REMARK    5  A    between atoms: N_8  and  C_21
REMARK    6  A    between atoms: C_9  and  C_13
REMARK    7  A    between atoms: C_10  and  C_14
REMARK    8  A    between atoms: C_11  and  C_12
REMARK    9  A    between atoms: C_12  and  C_17
REMARK   10  A    between atoms: C_12  and  C_18
REMARK   11  A    between atoms: C_24  and  C_25
REMARK   12  A    between atoms: C_25  and  C_26
REMARK   13  A    between atoms: C_25  and  C_27
REMARK                            x       y       z     vdW  Elec       q    Type
REMARK                         _______ _______ _______ _____ _____    ______ ____
ROOT
ATOM     14  C   UNL     1      -1.793   0.423  24.080  0.00  0.00    -0.017 A 
ATOM     19  C   UNL     1      -0.867   1.294  23.506  0.00  0.00    +0.008 A 
ATOM     20  C   UNL     1      -1.411  -0.874  24.423  0.00  0.00    +0.008 A 
ATOM     21  C   UNL     1       0.823  -0.430  23.618  0.00  0.00    +0.048 A 
ATOM     22  C   UNL     1       0.441   0.868  23.276  0.00  0.00    +0.025 A 
ATOM     23  C   UNL     1      -0.104  -1.300  24.192  0.00  0.00    +0.025 A 
ENDROOT
BRANCH  14  10
ATOM      2  O   UNL     1      -3.727   0.094  25.403  0.00  0.00    -0.361 OA
ATOM      4  O   UNL     1      -6.658   1.941  26.238  0.00  0.00    -0.273 OA
ATOM      7  N   UNL     1      -4.703   2.685  25.208  0.00  0.00    -0.291 N 
ATOM      9  C   UNL     1      -3.334   2.369  24.736  0.00  0.00    +0.135 C 
ATOM     10  C   UNL     1      -3.213   0.886  24.331  0.00  0.00    +0.171 C 
ATOM     15  C   UNL     1      -5.563   1.710  25.717  0.00  0.00    +0.242 C 
ATOM     16  C   UNL     1      -5.116   0.274  25.536  0.00  0.00    +0.256 C 
BRANCH   7  11
ATOM     11  C   UNL     1      -5.068   4.091  25.367  0.00  0.00    +0.111 C 
BRANCH  11  12
ATOM     12  C   UNL     1      -4.074   4.854  26.251  0.00  0.00    +0.000 C 
ATOM     17  C   UNL     1      -2.917   5.381  25.403  0.00  0.00    +0.009 C 
ATOM     18  C   UNL     1      -3.534   3.975  27.381  0.00  0.00    +0.009 C 
ENDBRANCH  11  12
ENDBRANCH   7  11
BRANCH   9  13
ATOM     13  C   UNL     1      -2.882   3.280  23.586  0.00  0.00    +0.181 C 
BRANCH  13   3
ATOM      3  O   UNL     1      -3.699   3.013  22.464  0.00  0.00    -0.393 OA
ATOM     28  H   UNL     1      -3.876   2.058  22.458  0.00  0.00    +0.209 HD
ENDBRANCH  13   3
ENDBRANCH   9  13
ENDBRANCH  14  10
BRANCH  21   8
ATOM      8  N   UNL     1       2.161  -0.866  23.383  0.00  0.00    -0.221 N 
ATOM     29  H   UNL     1       2.606  -1.312  24.197  0.00  0.00    +0.173 HD
BRANCH   8   1
ATOM      1  S   UNL     1       3.195   0.148  22.449  0.00  0.00    +0.043 S 
ATOM      5  O   UNL     1       2.813   0.033  21.054  0.00  0.00    -0.155 OA
ATOM      6  O   UNL     1       3.341   1.450  23.068  0.00  0.00    -0.155 OA
BRANCH   1  24
ATOM     24  C   UNL     1       4.737  -0.720  22.634  0.00  0.00    +0.191 C 
BRANCH  24  25
ATOM     25  C   UNL     1       5.768   0.063  23.448  0.00  0.00    +0.006 C 
ATOM     26  C   UNL     1       7.202  -0.312  23.069  0.00  0.00    +0.009 C 
ATOM     27  C   UNL     1       5.548  -0.188  24.941  0.00  0.00    +0.009 C 
ENDBRANCH  24  25
ENDBRANCH   1  24
ENDBRANCH   8   1
ENDBRANCH  21   8
TORSDOF 9
ENDMDL
MODEL 4
REMARK VINA RESULT:       2.7     15.019     18.445
REMARK  Name = 71693345
REMARK  13 active torsions:
REMARK  status: ('A' for Active; 'I' for Inactive)
REMARK    1  A    between atoms: S_1  and  N_8
REMARK    2  A    between atoms: S_1  and  C_24
REMARK    3  A    between atoms: O_3  and  C_13
REMARK    4  A    between atoms: N_7  and  C_11
REMARK    5  A    between atoms: N_8  and  C_21
REMARK    6  A    between atoms: C_9  and  C_13
REMARK    7  A    between atoms: C_10  and  C_14
REMARK    8  A    between atoms: C_11  and  C_12
REMARK    9  A    between atoms: C_12  and  C_17
REMARK   10  A    between atoms: C_12  and  C_18
REMARK   11  A    between atoms: C_24  and  C_25
REMARK   12  A    between atoms: C_25  and  C_26
REMARK   13  A    between atoms: C_25  and  C_27
REMARK                            x       y       z     vdW  Elec       q    Type
REMARK                         _______ _______ _______ _____ _____    ______ ____
ROOT
ATOM     14  C   UNL     1      -1.621   0.443  23.519  0.00  0.00    -0.017 A 
ATOM     19  C   UNL     1      -2.295  -0.239  24.532  0.00  0.00    +0.008 A 
ATOM     20  C   UNL     1      -2.214   1.546  22.906  0.00  0.00    +0.008 A 
ATOM     21  C   UNL     1      -4.157   1.288  24.319  0.00  0.00    +0.048 A 
ATOM     22  C   UNL     1      -3.563   0.184  24.932  0.00  0.00    +0.025 A 
ATOM     23  C   UNL     1      -3.482   1.968  23.306  0.00  0.00    +0.025 A 
ENDROOT
BRANCH  14  10
ATOM      2  O   UNL     1      -0.243  -0.040  21.657  0.00  0.00    -0.361 OA
ATOM      4  O   UNL     1       3.247  -0.342  21.008  0.00  0.00    -0.273 OA
ATOM      7  N   UNL     1       2.179   0.544  22.881  0.00  0.00    -0.291 N 
ATOM      9  C   UNL     1       0.904   0.905  23.545  0.00  0.00    +0.135 C 
ATOM     10  C   UNL     1      -0.244  -0.015  23.085  0.00  0.00    +0.171 C 
ATOM     15  C   UNL     1       2.222  -0.133  21.660  0.00  0.00    +0.242 C 
ATOM     16  C   UNL     1       0.903  -0.694  21.169  0.00  0.00    +0.256 C 
BRANCH   7  11
ATOM     11  C   UNL     1       3.414   1.126  23.401  0.00  0.00    +0.111 C 
BRANCH  11  12
ATOM     12  C   UNL     1       4.603   0.165  23.290  0.00  0.00    +0.000 C 
ATOM     17  C   UNL     1       4.243  -1.188  23.906  0.00  0.00    +0.009 C 
ATOM     18  C   UNL     1       5.851   0.732  23.971  0.00  0.00    +0.009 C 
ENDBRANCH  11  12
ENDBRANCH   7  11
BRANCH   9  13
ATOM     13  C   UNL     1       1.016   0.902  25.077  0.00  0.00    +0.181 C 
BRANCH  13   3
ATOM      3  O   UNL     1       0.625   2.174  25.551  0.00  0.00    -0.393 OA
ATOM     28  H   UNL     1       0.138   2.611  24.833  0.00  0.00    +0.209 HD
ENDBRANCH  13   3
ENDBRANCH   9  13
ENDBRANCH  14  10
BRANCH  21   8
ATOM      8  N   UNL     1      -5.454   1.720  24.729  0.00  0.00    -0.221 N 
ATOM     29  H   UNL     1      -6.124   1.824  23.955  0.00  0.00    +0.173 HD
BRANCH   8   1
ATOM      1  S   UNL     1      -5.560   2.923  25.957  0.00  0.00    +0.043 S 
ATOM      5  O   UNL     1      -6.103   4.133  25.367  0.00  0.00    -0.155 OA
ATOM      6  O   UNL     1      -6.131   2.375  27.171  0.00  0.00    -0.155 OA
BRANCH   1  24
ATOM     24  C   UNL     1      -3.832   3.225  26.253  0.00  0.00    +0.191 C 
BRANCH  24  25
ATOM     25  C   UNL     1      -3.342   4.537  25.640  0.00  0.00    +0.006 C 
ATOM     26  C   UNL     1      -3.888   4.747  24.227  0.00  0.00    +0.009 C 
ATOM     27  C   UNL     1      -1.812   4.554  25.609  0.00  0.00    +0.009 C 
ENDBRANCH  24  25
ENDBRANCH   1  24
ENDBRANCH   8   1
ENDBRANCH  21   8
TORSDOF 9
ENDMDL
MODEL 5
REMARK VINA RESULT:       3.3     15.629     16.792
REMARK  Name = 71693345
REMARK  13 active torsions:
REMARK  status: ('A' for Active; 'I' for Inactive)
REMARK    1  A    between atoms: S_1  and  N_8
REMARK    2  A    between atoms: S_1  and  C_24
REMARK    3  A    between atoms: O_3  and  C_13
REMARK    4  A    between atoms: N_7  and  C_11
REMARK    5  A    between atoms: N_8  and  C_21
REMARK    6  A    between atoms: C_9  and  C_13
REMARK    7  A    between atoms: C_10  and  C_14
REMARK    8  A    between atoms: C_11  and  C_12
REMARK    9  A    between atoms: C_12  and  C_17
REMARK   10  A    between atoms: C_12  and  C_18
REMARK   11  A    between atoms: C_24  and  C_25
REMARK   12  A    between atoms: C_25  and  C_26
REMARK   13  A    between atoms: C_25  and  C_27
REMARK                            x       y       z     vdW  Elec       q    Type
REMARK                         _______ _______ _______ _____ _____    ______ ____
ROOT
ATOM     14  C   UNL     1      -0.215   0.470  23.520  0.00  0.00    -0.017 A 
ATOM     19  C   UNL     1       0.410  -0.394  22.622  0.00  0.00    +0.008 A 
ATOM     20  C   UNL     1       0.519   1.479  24.143  0.00  0.00    +0.008 A 
ATOM     21  C   UNL     1       2.505   0.761  22.969  0.00  0.00    +0.048 A 
ATOM     22  C   UNL     1       1.770  -0.249  22.346  0.00  0.00    +0.025 A 
ATOM     23  C   UNL     1       1.879   1.624  23.868  0.00  0.00    +0.025 A 
ENDROOT
BRANCH  14  10
ATOM      2  O   UNL     1      -1.796  -0.384  25.061  0.00  0.00    -0.361 OA
ATOM      4  O   UNL     1      -5.236   0.140  25.824  0.00  0.00    -0.273 OA
ATOM      7  N   UNL     1      -3.820   1.428  24.493  0.00  0.00    -0.291 N 
ATOM      9  C   UNL     1      -2.455   1.645  23.957  0.00  0.00    +0.135 C 
ATOM     10  C   UNL     1      -1.691   0.313  23.819  0.00  0.00    +0.171 C 
ATOM     15  C   UNL     1      -4.156   0.304  25.251  0.00  0.00    +0.242 C 
ATOM     16  C   UNL     1      -3.119  -0.800  25.292  0.00  0.00    +0.256 C 
BRANCH   7  11
ATOM     11  C   UNL     1      -4.769   2.536  24.429  0.00  0.00    +0.111 C 
BRANCH  11  12
ATOM     12  C   UNL     1      -4.770   3.378  25.710  0.00  0.00    +0.000 C 
ATOM     17  C   UNL     1      -5.848   4.458  25.626  0.00  0.00    +0.009 C 
ATOM     18  C   UNL     1      -3.405   4.022  25.963  0.00  0.00    +0.009 C 
ENDBRANCH  11  12
ENDBRANCH   7  11
BRANCH   9  13
ATOM     13  C   UNL     1      -2.461   2.405  22.622  0.00  0.00    +0.181 C 
BRANCH  13   3
ATOM      3  O   UNL     1      -2.529   1.458  21.576  0.00  0.00    -0.393 OA
ATOM     28  H   UNL     1      -1.861   1.708  20.918  0.00  0.00    +0.209 HD
ENDBRANCH  13   3
ENDBRANCH   9  13
ENDBRANCH  14  10
BRANCH  21   8
ATOM      8  N   UNL     1       3.895   0.909  22.687  0.00  0.00    -0.221 N 
ATOM     29  H   UNL     1       4.113   0.982  21.684  0.00  0.00    +0.173 HD
BRANCH   8   1
ATOM      1  S   UNL     1       5.017  -0.012  23.615  0.00  0.00    +0.043 S 
ATOM      5  O   UNL     1       5.348   0.738  24.812  0.00  0.00    -0.155 OA
ATOM      6  O   UNL     1       4.601  -1.397  23.704  0.00  0.00    -0.155 OA
BRANCH   1  24
ATOM     24  C   UNL     1       6.441   0.062  22.550  0.00  0.00    +0.191 C 
BRANCH  24  25
ATOM     25  C   UNL     1       7.610  -0.783  23.058  0.00  0.00    +0.006 C 
ATOM     26  C   UNL     1       8.869   0.056  23.281  0.00  0.00    +0.009 C 
ATOM     27  C   UNL     1       7.908  -1.905  22.060  0.00  0.00    +0.009 C 
ENDBRANCH  24  25
ENDBRANCH   1  24
ENDBRANCH   8   1
ENDBRANCH  21   8
TORSDOF 9
ENDMDL
MODEL 6
REMARK VINA RESULT:       3.7     15.854     17.273
REMARK  Name = 71693345
REMARK  13 active torsions:
REMARK  status: ('A' for Active; 'I' for Inactive)
REMARK    1  A    between atoms: S_1  and  N_8
REMARK    2  A    between atoms: S_1  and  C_24
REMARK    3  A    between atoms: O_3  and  C_13
REMARK    4  A    between atoms: N_7  and  C_11
REMARK    5  A    between atoms: N_8  and  C_21
REMARK    6  A    between atoms: C_9  and  C_13
REMARK    7  A    between atoms: C_10  and  C_14
REMARK    8  A    between atoms: C_11  and  C_12
REMARK    9  A    between atoms: C_12  and  C_17
REMARK   10  A    between atoms: C_12  and  C_18
REMARK   11  A    between atoms: C_24  and  C_25
REMARK   12  A    between atoms: C_25  and  C_26
REMARK   13  A    between atoms: C_25  and  C_27
REMARK                            x       y       z     vdW  Elec       q    Type
REMARK                         _______ _______ _______ _____ _____    ______ ____
ROOT
ATOM     14  C   UNL     1      -0.679   1.316  24.671  0.00  0.00    -0.017 A 
ATOM     19  C   UNL     1      -0.598  -0.069  24.536  0.00  0.00    +0.008 A 
ATOM     20  C   UNL     1       0.373   2.123  24.237  0.00  0.00    +0.008 A 
ATOM     21  C   UNL     1       1.588   0.157  23.531  0.00  0.00    +0.048 A 
ATOM     22  C   UNL     1       0.535  -0.649  23.965  0.00  0.00    +0.025 A 
ATOM     23  C   UNL     1       1.506   1.543  23.668  0.00  0.00    +0.025 A 
ENDROOT
BRANCH  14  10
ATOM      2  O   UNL     1      -1.548   3.269  25.689  0.00  0.00    -0.361 OA
ATOM      4  O   UNL     1      -4.763   4.673  26.310  0.00  0.00    -0.273 OA
ATOM      7  N   UNL     1      -4.187   2.896  24.915  0.00  0.00    -0.291 N 
ATOM      9  C   UNL     1      -3.115   2.052  24.334  0.00  0.00    +0.135 C 
ATOM     10  C   UNL     1      -1.910   1.946  25.289  0.00  0.00    +0.171 C 
ATOM     15  C   UNL     1      -3.933   3.863  25.890  0.00  0.00    +0.242 C 
ATOM     16  C   UNL     1      -2.546   3.838  26.500  0.00  0.00    +0.256 C 
BRANCH   7  11
ATOM     11  C   UNL     1      -5.500   2.878  24.274  0.00  0.00    +0.111 C 
BRANCH  11  12
ATOM     12  C   UNL     1      -6.512   2.019  25.041  0.00  0.00    +0.000 C 
ATOM     17  C   UNL     1      -6.081   1.880  26.501  0.00  0.00    +0.009 C 
ATOM     18  C   UNL     1      -6.668   0.634  24.409  0.00  0.00    +0.009 C 
ENDBRANCH  11  12
ENDBRANCH   7  11
BRANCH   9  13
ATOM     13  C   UNL     1      -3.615   0.655  23.940  0.00  0.00    +0.181 C 
BRANCH  13   3
ATOM      3  O   UNL     1      -3.697  -0.132  25.111  0.00  0.00    -0.393 OA
ATOM     28  H   UNL     1      -4.610  -0.456  25.177  0.00  0.00    +0.209 HD
ENDBRANCH  13   3
ENDBRANCH   9  13
ENDBRANCH  14  10
BRANCH  21   8
ATOM      8  N   UNL     1       2.747  -0.436  22.948  0.00  0.00    -0.221 N 
ATOM     29  H   UNL     1       3.170  -1.179  23.520  0.00  0.00    +0.173 HD
BRANCH   8   1
ATOM      1  S   UNL     1       3.868   0.592  22.138  0.00  0.00    +0.043 S 
ATOM      5  O   UNL     1       3.566   0.573  20.719  0.00  0.00    -0.155 OA
ATOM      6  O   UNL     1       4.018   1.850  22.842  0.00  0.00    -0.155 OA
BRANCH   1  24
ATOM     24  C   UNL     1       5.367  -0.340  22.359  0.00  0.00    +0.191 C 
BRANCH  24  25
ATOM     25  C   UNL     1       5.564  -0.819  23.798  0.00  0.00    +0.006 C 
ATOM     26  C   UNL     1       4.547  -1.893  24.189  0.00  0.00    +0.009 C 
ATOM     27  C   UNL     1       5.454   0.368  24.758  0.00  0.00    +0.009 C 
ENDBRANCH  24  25
ENDBRANCH   1  24
ENDBRANCH   8   1
ENDBRANCH  21   8
TORSDOF 9
ENDMDL
MODEL 7
REMARK VINA RESULT:       4.0     15.191     18.447
REMARK  Name = 71693345
REMARK  13 active torsions:
REMARK  status: ('A' for Active; 'I' for Inactive)
REMARK    1  A    between atoms: S_1  and  N_8
REMARK    2  A    between atoms: S_1  and  C_24
REMARK    3  A    between atoms: O_3  and  C_13
REMARK    4  A    between atoms: N_7  and  C_11
REMARK    5  A    between atoms: N_8  and  C_21
REMARK    6  A    between atoms: C_9  and  C_13
REMARK    7  A    between atoms: C_10  and  C_14
REMARK    8  A    between atoms: C_11  and  C_12
REMARK    9  A    between atoms: C_12  and  C_17
REMARK   10  A    between atoms: C_12  and  C_18
REMARK   11  A    between atoms: C_24  and  C_25
REMARK   12  A    between atoms: C_25  and  C_26
REMARK   13  A    between atoms: C_25  and  C_27
REMARK                            x       y       z     vdW  Elec       q    Type
REMARK                         _______ _______ _______ _____ _____    ______ ____
ROOT
ATOM     14  C   UNL     1      -1.206   0.917  23.752  0.00  0.00    -0.017 A 
ATOM     19  C   UNL     1      -1.334   0.277  24.985  0.00  0.00    +0.008 A 
ATOM     20  C   UNL     1      -2.344   1.286  23.036  0.00  0.00    +0.008 A 
ATOM     21  C   UNL     1      -3.741   0.378  24.786  0.00  0.00    +0.048 A 
ATOM     22  C   UNL     1      -2.601   0.008  25.502  0.00  0.00    +0.025 A 
ATOM     23  C   UNL     1      -3.611   1.017  23.553  0.00  0.00    +0.025 A 
ENDROOT
BRANCH  14  10
ATOM      2  O   UNL     1       0.751   2.221  24.016  0.00  0.00    -0.361 OA
ATOM      4  O   UNL     1       4.147   2.068  22.948  0.00  0.00    -0.273 OA
ATOM      7  N   UNL     1       2.511   0.410  22.862  0.00  0.00    -0.291 N 
ATOM      9  C   UNL     1       1.122  -0.002  23.182  0.00  0.00    +0.135 C 
ATOM     10  C   UNL     1       0.170   1.210  23.191  0.00  0.00    +0.171 C 
ATOM     15  C   UNL     1       2.974   1.710  23.077  0.00  0.00    +0.242 C 
ATOM     16  C   UNL     1       1.918   2.739  23.424  0.00  0.00    +0.256 C 
BRANCH   7  11
ATOM     11  C   UNL     1       3.481  -0.634  22.542  0.00  0.00    +0.111 C 
BRANCH  11  12
ATOM     12  C   UNL     1       4.490  -0.858  23.674  0.00  0.00    +0.000 C 
ATOM     17  C   UNL     1       5.834  -0.226  23.310  0.00  0.00    +0.009 C 
ATOM     18  C   UNL     1       4.680  -2.347  23.974  0.00  0.00    +0.009 C 
ENDBRANCH  11  12
ENDBRANCH   7  11
BRANCH   9  13
ATOM     13  C   UNL     1       0.599  -1.092  22.236  0.00  0.00    +0.181 C 
BRANCH  13   3
ATOM      3  O   UNL     1       0.887  -0.701  20.909  0.00  0.00    -0.393 OA
ATOM     28  H   UNL     1       0.531   0.195  20.790  0.00  0.00    +0.209 HD
ENDBRANCH  13   3
ENDBRANCH   9  13
ENDBRANCH  14  10
BRANCH  21   8
ATOM      8  N   UNL     1      -5.037   0.102  25.316  0.00  0.00    -0.221 N 
ATOM     29  H   UNL     1      -5.519  -0.682  24.855  0.00  0.00    +0.173 HD
BRANCH   8   1
ATOM      1  S   UNL     1      -6.043   1.435  25.738  0.00  0.00    +0.043 S 
ATOM      5  O   UNL     1      -6.766   1.858  24.553  0.00  0.00    -0.155 OA
ATOM      6  O   UNL     1      -6.748   1.179  26.979  0.00  0.00    -0.155 OA
BRANCH   1  24
ATOM     24  C   UNL     1      -4.807   2.674  26.058  0.00  0.00    +0.191 C 
BRANCH  24  25
ATOM     25  C   UNL     1      -4.825   3.812  25.037  0.00  0.00    +0.006 C 
ATOM     26  C   UNL     1      -3.432   4.404  24.817  0.00  0.00    +0.009 C 
ATOM     27  C   UNL     1      -5.785   4.909  25.501  0.00  0.00    +0.009 C 
ENDBRANCH  24  25
ENDBRANCH   1  24
ENDBRANCH   8   1
ENDBRANCH  21   8
TORSDOF 9
ENDMDL
MODEL 8
REMARK VINA RESULT:       4.1     15.083     16.529
REMARK  Name = 71693345
REMARK  13 active torsions:
REMARK  status: ('A' for Active; 'I' for Inactive)
REMARK    1  A    between atoms: S_1  and  N_8
REMARK    2  A    between atoms: S_1  and  C_24
REMARK    3  A    between atoms: O_3  and  C_13
REMARK    4  A    between atoms: N_7  and  C_11
REMARK    5  A    between atoms: N_8  and  C_21
REMARK    6  A    between atoms: C_9  and  C_13
REMARK    7  A    between atoms: C_10  and  C_14
REMARK    8  A    between atoms: C_11  and  C_12
REMARK    9  A    between atoms: C_12  and  C_17
REMARK   10  A    between atoms: C_12  and  C_18
REMARK   11  A    between atoms: C_24  and  C_25
REMARK   12  A    between atoms: C_25  and  C_26
REMARK   13  A    between atoms: C_25  and  C_27
REMARK                            x       y       z     vdW  Elec       q    Type
REMARK                         _______ _______ _______ _____ _____    ______ ____
ROOT
ATOM     14  C   UNL     1       0.224   1.057  23.691  0.00  0.00    -0.017 A 
ATOM     19  C   UNL     1       1.243   1.955  24.010  0.00  0.00    +0.008 A 
ATOM     20  C   UNL     1       0.504  -0.071  22.920  0.00  0.00    +0.008 A 
ATOM     21  C   UNL     1       2.823   0.595  22.787  0.00  0.00    +0.048 A 
ATOM     22  C   UNL     1       2.542   1.724  23.558  0.00  0.00    +0.025 A 
ATOM     23  C   UNL     1       1.804  -0.302  22.468  0.00  0.00    +0.025 A 
ENDROOT
BRANCH  14  10
ATOM      2  O   UNL     1      -1.939   1.789  23.067  0.00  0.00    -0.361 OA
ATOM      4  O   UNL     1      -5.256   1.488  24.332  0.00  0.00    -0.273 OA
ATOM      7  N   UNL     1      -3.341   0.312  24.953  0.00  0.00    -0.291 N 
ATOM      9  C   UNL     1      -1.898   0.054  24.729  0.00  0.00    +0.135 C 
ATOM     10  C   UNL     1      -1.186   1.307  24.182  0.00  0.00    +0.171 C 
ATOM     15  C   UNL     1      -4.036   1.317  24.276  0.00  0.00    +0.242 C 
ATOM     16  C   UNL     1      -3.186   2.289  23.484  0.00  0.00    +0.256 C 
BRANCH   7  11
ATOM     11  C   UNL     1      -4.104  -0.669  25.721  0.00  0.00    +0.111 C 
BRANCH  11  12
ATOM     12  C   UNL     1      -4.280  -1.991  24.965  0.00  0.00    +0.000 C 
ATOM     17  C   UNL     1      -3.207  -2.990  25.400  0.00  0.00    +0.009 C 
ATOM     18  C   UNL     1      -4.219  -1.787  23.450  0.00  0.00    +0.009 C 
ENDBRANCH  11  12
ENDBRANCH   7  11
BRANCH   9  13
ATOM     13  C   UNL     1      -1.190  -0.461  25.990  0.00  0.00    +0.181 C 
BRANCH  13   3
ATOM      3  O   UNL     1      -0.266  -1.457  25.602  0.00  0.00    -0.393 OA
ATOM     28  H   UNL     1      -0.158  -2.059  26.357  0.00  0.00    +0.209 HD
ENDBRANCH  13   3
ENDBRANCH   9  13
ENDBRANCH  14  10
BRANCH  21   8
ATOM      8  N   UNL     1       4.152   0.359  22.325  0.00  0.00    -0.221 N 
ATOM     29  H   UNL     1       4.200  -0.103  21.407  0.00  0.00    +0.173 HD
BRANCH   8   1
ATOM      1  S   UNL     1       5.331  -0.162  23.469  0.00  0.00    +0.043 S 
ATOM      5  O   UNL     1       5.380   0.805  24.550  0.00  0.00    -0.155 OA
ATOM      6  O   UNL     1       5.189  -1.576  23.750  0.00  0.00    -0.155 OA
BRANCH   1  24
ATOM     24  C   UNL     1       6.815   0.059  22.513  0.00  0.00    +0.191 C 
BRANCH  24  25
ATOM     25  C   UNL     1       7.974  -0.810  23.003  0.00  0.00    +0.006 C 
ATOM     26  C   UNL     1       9.247   0.008  23.227  0.00  0.00    +0.009 C 
ATOM     27  C   UNL     1       8.249  -1.925  21.991  0.00  0.00    +0.009 C 
ENDBRANCH  24  25
ENDBRANCH   1  24
ENDBRANCH   8   1
ENDBRANCH  21   8
TORSDOF 9
ENDMDL
MODEL 9
REMARK VINA RESULT:       4.4     16.000     18.273
REMARK  Name = 71693345
REMARK  13 active torsions:
REMARK  status: ('A' for Active; 'I' for Inactive)
REMARK    1  A    between atoms: S_1  and  N_8
REMARK    2  A    between atoms: S_1  and  C_24
REMARK    3  A    between atoms: O_3  and  C_13
REMARK    4  A    between atoms: N_7  and  C_11
REMARK    5  A    between atoms: N_8  and  C_21
REMARK    6  A    between atoms: C_9  and  C_13
REMARK    7  A    between atoms: C_10  and  C_14
REMARK    8  A    between atoms: C_11  and  C_12
REMARK    9  A    between atoms: C_12  and  C_17
REMARK   10  A    between atoms: C_12  and  C_18
REMARK   11  A    between atoms: C_24  and  C_25
REMARK   12  A    between atoms: C_25  and  C_26
REMARK   13  A    between atoms: C_25  and  C_27
REMARK                            x       y       z     vdW  Elec       q    Type
REMARK                         _______ _______ _______ _____ _____    ______ ____
ROOT
ATOM     14  C   UNL     1      -1.479  -0.431  24.819  0.00  0.00    -0.017 A 
ATOM     19  C   UNL     1      -2.217  -0.886  25.911  0.00  0.00    +0.008 A 
ATOM     20  C   UNL     1      -2.118   0.237  23.774  0.00  0.00    +0.008 A 
ATOM     21  C   UNL     1      -4.235  -0.005  24.914  0.00  0.00    +0.048 A 
ATOM     22  C   UNL     1      -3.595  -0.673  25.958  0.00  0.00    +0.025 A 
ATOM     23  C   UNL     1      -3.496   0.449  23.822  0.00  0.00    +0.025 A 
ENDROOT
BRANCH  14  10
ATOM      2  O   UNL     1       0.225  -2.073  24.801  0.00  0.00    -0.361 OA
ATOM      4  O   UNL     1       3.657  -2.256  23.864  0.00  0.00    -0.273 OA
ATOM      7  N   UNL     1       2.100  -0.586  23.395  0.00  0.00    -0.291 N 
ATOM      9  C   UNL     1       0.699  -0.110  23.500  0.00  0.00    +0.135 C 
ATOM     10  C   UNL     1       0.017  -0.660  24.768  0.00  0.00    +0.171 C 
ATOM     15  C   UNL     1       2.543  -1.752  24.023  0.00  0.00    +0.242 C 
ATOM     16  C   UNL     1       1.582  -2.375  25.015  0.00  0.00    +0.256 C 
BRANCH   7  11
ATOM     11  C   UNL     1       2.972   0.054  22.413  0.00  0.00    +0.111 C 
BRANCH  11  12
ATOM     12  C   UNL     1       4.038   0.938  23.069  0.00  0.00    +0.000 C 
ATOM     17  C   UNL     1       4.193   2.241  22.284  0.00  0.00    +0.009 C 
ATOM     18  C   UNL     1       5.387   0.222  23.160  0.00  0.00    +0.009 C 
ENDBRANCH  11  12
ENDBRANCH   7  11
BRANCH   9  13
ATOM     13  C   UNL     1       0.593   1.421  23.452  0.00  0.00    +0.181 C 
BRANCH  13   3
ATOM      3  O   UNL     1       0.924   1.927  24.729  0.00  0.00    -0.393 OA
ATOM     28  H   UNL     1       1.211   1.174  25.271  0.00  0.00    +0.209 HD
ENDBRANCH  13   3
ENDBRANCH   9  13
ENDBRANCH  14  10
BRANCH  21   8
ATOM      8  N   UNL     1      -5.644   0.213  24.963  0.00  0.00    -0.221 N 
ATOM     29  H   UNL     1      -6.178  -0.348  24.285  0.00  0.00    +0.173 HD
BRANCH   8   1
ATOM      1  S   UNL     1      -6.212   1.823  25.188  0.00  0.00    +0.043 S 
ATOM      5  O   UNL     1      -7.411   2.003  24.392  0.00  0.00    -0.155 OA
ATOM      6  O   UNL     1      -6.197   2.186  26.591  0.00  0.00    -0.155 OA
BRANCH   1  24
ATOM     24  C   UNL     1      -4.914   2.731  24.377  0.00  0.00    +0.191 C 
BRANCH  24  25
ATOM     25  C   UNL     1      -4.286   3.801  25.271  0.00  0.00    +0.006 C 
ATOM     26  C   UNL     1      -3.968   5.080  24.495  0.00  0.00    +0.009 C 
ATOM     27  C   UNL     1      -3.007   3.255  25.911  0.00  0.00    +0.009 C 
ENDBRANCH  24  25
ENDBRANCH   1  24
ENDBRANCH   8   1
ENDBRANCH  21   8
TORSDOF 9
ENDMDL
