MODEL 1
REMARK VINA RESULT:       1.0      0.000      0.000
REMARK  Name = 11913350
REMARK  4 active torsions:
REMARK  status: ('A' for Active; 'I' for Inactive)
REMARK    1  A    between atoms: N_6  and  C_12
REMARK    2  A    between atoms: N_7  and  C_13
REMARK    3  A    between atoms: C_17  and  C_18
REMARK    4  A    between atoms: C_19  and  C_23
REMARK                            x       y       z     vdW  Elec       q    Type
REMARK                         _______ _______ _______ _____ _____    ______ ____
ROOT
ATOM      2  O   UNL     1      -0.984   4.654  25.822  0.00  0.00    -0.370 OA
ATOM      3  O   UNL     1      -1.384   3.054  23.168  0.00  0.00    -0.370 OA
ATOM     10  C   UNL     1      -2.208   3.265  24.328  0.00  0.00    +0.171 C 
ATOM     11  C   UNL     1      -1.291   3.280  25.535  0.00  0.00    +0.171 C 
ATOM     12  C   UNL     1      -2.806   4.651  24.299  0.00  0.00    +0.130 C 
ATOM     13  C   UNL     1      -0.053   2.555  25.067  0.00  0.00    +0.130 C 
ATOM     14  C   UNL     1      -1.709   5.499  24.916  0.00  0.00    +0.185 C 
ATOM     15  C   UNL     1      -0.024   2.863  23.583  0.00  0.00    +0.185 C 
ENDROOT
BRANCH  12   6
ATOM      6  N   UNL     1      -3.995   4.695  25.122  0.00  0.00    -0.306 N 
ATOM      8  N   UNL     1      -4.270   2.366  25.041  0.00  0.00    -0.214 NA
ATOM      9  N   UNL     1      -5.814   3.752  26.267  0.00  0.00    -0.223 NA
ATOM     16  C   UNL     1      -4.714   3.570  25.488  0.00  0.00    +0.216 A 
ATOM     19  C   UNL     1      -4.994   1.292  25.416  0.00  0.00    +0.076 A 
ATOM     21  C   UNL     1      -6.491   2.635  26.605  0.00  0.00    +0.116 A 
ATOM     22  C   UNL     1      -6.124   1.367  26.205  0.00  0.00    +0.048 A 
ATOM     31  H   UNL     1      -4.305   5.581  25.503  0.00  0.00    +0.149 HD
BRANCH  19  23
ATOM      1  F   UNL     1      -3.366  -3.180  26.237  0.00  0.00    -0.205 F 
ATOM     23  C   UNL     1      -4.505   0.022  24.932  0.00  0.00    +0.003 A 
ATOM     26  C   UNL     1      -4.163  -0.986  25.836  0.00  0.00    +0.048 A 
ATOM     27  C   UNL     1      -4.372  -0.200  23.561  0.00  0.00    +0.010 A 
ATOM     28  C   UNL     1      -3.691  -2.213  25.369  0.00  0.00    +0.124 A 
ATOM     29  C   UNL     1      -3.899  -1.427  23.094  0.00  0.00    +0.003 A 
ATOM     30  C   UNL     1      -3.560  -2.433  23.998  0.00  0.00    +0.038 A 
ENDBRANCH  19  23
ENDBRANCH  12   6
BRANCH  13   7
ATOM      4  O   UNL     1       0.538   0.442  23.177  0.00  0.00    -0.267 OA
ATOM      7  N   UNL     1      -0.223   1.095  25.268  0.00  0.00    -0.301 N 
ATOM     17  C   UNL     1       0.094   0.166  24.288  0.00  0.00    +0.280 C 
ATOM     32  H   UNL     1      -0.631   0.774  26.142  0.00  0.00    +0.150 HD
BRANCH  17  18
ATOM      5  O   UNL     1      -0.655  -2.007  23.654  0.00  0.00    -0.458 OA
ATOM     18  C   UNL     1      -0.159  -1.257  24.635  0.00  0.00    +0.189 A 
ATOM     20  C   UNL     1       0.038  -1.898  25.788  0.00  0.00    +0.054 A 
ATOM     24  C   UNL     1      -0.380  -3.223  25.523  0.00  0.00    +0.042 A 
ATOM     25  C   UNL     1      -0.793  -3.238  24.212  0.00  0.00    +0.196 A 
ENDBRANCH  17  18
ENDBRANCH  13   7
TORSDOF 4
ENDMDL
MODEL 2
REMARK VINA RESULT:       1.7      2.732      5.208
REMARK  Name = 11913350
REMARK  4 active torsions:
REMARK  status: ('A' for Active; 'I' for Inactive)
REMARK    1  A    between atoms: N_6  and  C_12
REMARK    2  A    between atoms: N_7  and  C_13
REMARK    3  A    between atoms: C_17  and  C_18
REMARK    4  A    between atoms: C_19  and  C_23
REMARK                            x       y       z     vdW  Elec       q    Type
REMARK                         _______ _______ _______ _____ _____    ______ ____
ROOT
ATOM      2  O   UNL     1      -2.538   0.675  23.557  0.00  0.00    -0.370 OA
ATOM      3  O   UNL     1      -1.678  -1.670  25.436  0.00  0.00    -0.370 OA
ATOM     10  C   UNL     1      -2.714  -0.675  25.509  0.00  0.00    +0.171 C 
ATOM     11  C   UNL     1      -2.146   0.609  24.938  0.00  0.00    +0.171 C 
ATOM     12  C   UNL     1      -3.845  -1.028  24.572  0.00  0.00    +0.130 C 
ATOM     13  C   UNL     1      -0.651   0.433  25.048  0.00  0.00    +0.130 C 
ATOM     14  C   UNL     1      -3.376  -0.451  23.250  0.00  0.00    +0.185 C 
ATOM     15  C   UNL     1      -0.480  -1.068  24.925  0.00  0.00    +0.185 C 
ENDROOT
BRANCH  12   6
ATOM      6  N   UNL     1      -5.063  -0.375  24.999  0.00  0.00    -0.306 N 
ATOM      8  N   UNL     1      -4.059   1.745  24.994  0.00  0.00    -0.214 NA
ATOM      9  N   UNL     1      -6.374   1.475  25.605  0.00  0.00    -0.223 NA
ATOM     16  C   UNL     1      -5.168   0.990  25.205  0.00  0.00    +0.216 A 
ATOM     19  C   UNL     1      -4.196   3.071  25.205  0.00  0.00    +0.076 A 
ATOM     21  C   UNL     1      -6.441   2.809  25.797  0.00  0.00    +0.116 A 
ATOM     22  C   UNL     1      -5.375   3.664  25.610  0.00  0.00    +0.048 A 
ATOM     31  H   UNL     1      -5.910  -0.922  25.109  0.00  0.00    +0.149 HD
BRANCH  19  23
ATOM      1  F   UNL     1       0.094   3.682  23.074  0.00  0.00    -0.205 F 
ATOM     23  C   UNL     1      -3.007   3.856  24.974  0.00  0.00    +0.003 A 
ATOM     26  C   UNL     1      -2.010   3.381  24.119  0.00  0.00    +0.048 A 
ATOM     27  C   UNL     1      -2.850   5.091  25.605  0.00  0.00    +0.010 A 
ATOM     28  C   UNL     1      -0.861   4.139  23.895  0.00  0.00    +0.124 A 
ATOM     29  C   UNL     1      -1.699   5.849  25.381  0.00  0.00    +0.003 A 
ATOM     30  C   UNL     1      -0.706   5.373  24.526  0.00  0.00    +0.038 A 
ENDBRANCH  19  23
ENDBRANCH  12   6
BRANCH  13   7
ATOM      4  O   UNL     1       0.871   2.813  25.684  0.00  0.00    -0.267 OA
ATOM      7  N   UNL     1      -0.194   0.877  26.387  0.00  0.00    -0.301 N 
ATOM     17  C   UNL     1       0.535   2.042  26.579  0.00  0.00    +0.280 C 
ATOM     32  H   UNL     1      -0.385   0.276  27.185  0.00  0.00    +0.150 HD
BRANCH  17  18
ATOM      5  O   UNL     1       2.211   2.691  28.144  0.00  0.00    -0.458 OA
ATOM     18  C   UNL     1       0.940   2.333  27.978  0.00  0.00    +0.189 A 
ATOM     20  C   UNL     1       0.217   2.289  29.099  0.00  0.00    +0.054 A 
ATOM     24  C   UNL     1       1.129   2.664  30.114  0.00  0.00    +0.042 A 
ATOM     25  C   UNL     1       2.327   2.898  29.482  0.00  0.00    +0.196 A 
ENDBRANCH  17  18
ENDBRANCH  13   7
TORSDOF 4
ENDMDL
MODEL 3
REMARK VINA RESULT:       1.9      2.925      5.245
REMARK  Name = 11913350
REMARK  4 active torsions:
REMARK  status: ('A' for Active; 'I' for Inactive)
REMARK    1  A    between atoms: N_6  and  C_12
REMARK    2  A    between atoms: N_7  and  C_13
REMARK    3  A    between atoms: C_17  and  C_18
REMARK    4  A    between atoms: C_19  and  C_23
REMARK                            x       y       z     vdW  Elec       q    Type
REMARK                         _______ _______ _______ _____ _____    ______ ____
ROOT
ATOM      2  O   UNL     1      -1.306   1.212  23.295  0.00  0.00    -0.370 OA
ATOM      3  O   UNL     1       1.793   0.807  23.276  0.00  0.00    -0.370 OA
ATOM     10  C   UNL     1       0.703   0.056  23.837  0.00  0.00    +0.171 C 
ATOM     11  C   UNL     1      -0.324   1.055  24.333  0.00  0.00    +0.171 C 
ATOM     12  C   UNL     1      -0.018  -0.709  22.752  0.00  0.00    +0.130 C 
ATOM     13  C   UNL     1       0.458   2.333  24.508  0.00  0.00    +0.130 C 
ATOM     14  C   UNL     1      -0.995   0.319  22.214  0.00  0.00    +0.185 C 
ATOM     15  C   UNL     1       1.545   2.208  23.458  0.00  0.00    +0.185 C 
ENDROOT
BRANCH  12   6
ATOM      6  N   UNL     1      -0.734  -1.827  23.327  0.00  0.00    -0.306 N 
ATOM      8  N   UNL     1      -2.426  -0.446  24.184  0.00  0.00    -0.214 NA
ATOM      9  N   UNL     1      -2.490  -2.831  24.517  0.00  0.00    -0.223 NA
ATOM     16  C   UNL     1      -1.919  -1.697  24.030  0.00  0.00    +0.216 A 
ATOM     19  C   UNL     1      -3.581  -0.355  24.875  0.00  0.00    +0.076 A 
ATOM     21  C   UNL     1      -3.644  -2.668  25.197  0.00  0.00    +0.116 A 
ATOM     22  C   UNL     1      -4.242  -1.443  25.409  0.00  0.00    +0.048 A 
ATOM     31  H   UNL     1      -0.393  -2.769  23.173  0.00  0.00    +0.149 HD
BRANCH  19  23
ATOM      1  F   UNL     1      -2.976   4.435  24.769  0.00  0.00    -0.205 F 
ATOM     23  C   UNL     1      -4.103   0.982  25.026  0.00  0.00    +0.003 A 
ATOM     26  C   UNL     1      -3.272   2.085  24.822  0.00  0.00    +0.048 A 
ATOM     27  C   UNL     1      -5.440   1.177  25.379  0.00  0.00    +0.010 A 
ATOM     28  C   UNL     1      -3.775   3.378  24.967  0.00  0.00    +0.124 A 
ATOM     29  C   UNL     1      -5.943   2.470  25.526  0.00  0.00    +0.003 A 
ATOM     30  C   UNL     1      -5.111   3.570  25.319  0.00  0.00    +0.038 A 
ENDBRANCH  19  23
ENDBRANCH  12   6
BRANCH  13   7
ATOM      4  O   UNL     1      -0.885   2.730  27.043  0.00  0.00    -0.267 OA
ATOM      7  N   UNL     1       1.074   2.360  25.858  0.00  0.00    -0.301 N 
ATOM     17  C   UNL     1       0.330   2.559  27.013  0.00  0.00    +0.280 C 
ATOM     32  H   UNL     1       2.084   2.275  25.928  0.00  0.00    +0.150 HD
BRANCH  17  18
ATOM      5  O   UNL     1       2.385   2.910  28.170  0.00  0.00    -0.458 OA
ATOM     18  C   UNL     1       1.099   2.585  28.284  0.00  0.00    +0.189 A 
ATOM     20  C   UNL     1       0.692   2.330  29.529  0.00  0.00    +0.054 A 
ATOM     24  C   UNL     1       1.853   2.512  30.317  0.00  0.00    +0.042 A 
ATOM     25  C   UNL     1       2.855   2.864  29.444  0.00  0.00    +0.196 A 
ENDBRANCH  17  18
ENDBRANCH  13   7
TORSDOF 4
ENDMDL
MODEL 4
REMARK VINA RESULT:       2.9      1.862      2.695
REMARK  Name = 11913350
REMARK  4 active torsions:
REMARK  status: ('A' for Active; 'I' for Inactive)
REMARK    1  A    between atoms: N_6  and  C_12
REMARK    2  A    between atoms: N_7  and  C_13
REMARK    3  A    between atoms: C_17  and  C_18
REMARK    4  A    between atoms: C_19  and  C_23
REMARK                            x       y       z     vdW  Elec       q    Type
REMARK                         _______ _______ _______ _____ _____    ______ ____
ROOT
ATOM      2  O   UNL     1      -2.719   3.335  26.798  0.00  0.00    -0.370 OA
ATOM      3  O   UNL     1      -1.685   4.844  24.264  0.00  0.00    -0.370 OA
ATOM     10  C   UNL     1      -2.785   3.949  24.500  0.00  0.00    +0.171 C 
ATOM     11  C   UNL     1      -2.311   2.903  25.489  0.00  0.00    +0.171 C 
ATOM     12  C   UNL     1      -3.898   4.667  25.225  0.00  0.00    +0.130 C 
ATOM     13  C   UNL     1      -0.807   2.940  25.374  0.00  0.00    +0.130 C 
ATOM     14  C   UNL     1      -3.481   4.546  26.679  0.00  0.00    +0.185 C 
ATOM     15  C   UNL     1      -0.535   4.380  24.987  0.00  0.00    +0.185 C 
ENDROOT
BRANCH  12   6
ATOM      6  N   UNL     1      -5.154   3.983  25.006  0.00  0.00    -0.306 N 
ATOM      8  N   UNL     1      -4.138   1.869  25.053  0.00  0.00    -0.214 NA
ATOM      9  N   UNL     1      -6.513   2.092  24.716  0.00  0.00    -0.223 NA
ATOM     16  C   UNL     1      -5.271   2.606  24.923  0.00  0.00    +0.216 A 
ATOM     19  C   UNL     1      -4.288   0.531  24.966  0.00  0.00    +0.076 A 
ATOM     21  C   UNL     1      -6.591   0.747  24.640  0.00  0.00    +0.116 A 
ATOM     22  C   UNL     1      -5.502  -0.092  24.759  0.00  0.00    +0.048 A 
ATOM     31  H   UNL     1      -6.013   4.520  24.960  0.00  0.00    +0.149 HD
BRANCH  19  23
ATOM      1  F   UNL     1      -1.351  -3.012  23.502  0.00  0.00    -0.205 F 
ATOM     23  C   UNL     1      -3.072  -0.234  25.108  0.00  0.00    +0.003 A 
ATOM     26  C   UNL     1      -2.793  -1.276  24.220  0.00  0.00    +0.048 A 
ATOM     27  C   UNL     1      -2.172   0.064  26.133  0.00  0.00    +0.010 A 
ATOM     28  C   UNL     1      -1.618  -2.015  24.356  0.00  0.00    +0.124 A 
ATOM     29  C   UNL     1      -0.997  -0.676  26.269  0.00  0.00    +0.003 A 
ATOM     30  C   UNL     1      -0.720  -1.715  25.380  0.00  0.00    +0.038 A 
ENDBRANCH  19  23
ENDBRANCH  12   6
BRANCH  13   7
ATOM      4  O   UNL     1       1.769   1.648  25.088  0.00  0.00    -0.267 OA
ATOM      7  N   UNL     1      -0.369   2.040  24.279  0.00  0.00    -0.301 N 
ATOM     17  C   UNL     1       0.898   1.473  24.241  0.00  0.00    +0.280 C 
ATOM     32  H   UNL     1      -1.008   1.875  23.506  0.00  0.00    +0.150 HD
BRANCH  17  18
ATOM      5  O   UNL     1       2.464   0.587  22.679  0.00  0.00    -0.458 OA
ATOM     18  C   UNL     1       1.191   0.616  23.064  0.00  0.00    +0.189 A 
ATOM     20  C   UNL     1       0.365  -0.133  22.331  0.00  0.00    +0.054 A 
ATOM     24  C   UNL     1       1.204  -0.718  21.353  0.00  0.00    +0.042 A 
ATOM     25  C   UNL     1       2.471  -0.249  21.608  0.00  0.00    +0.196 A 
ENDBRANCH  17  18
ENDBRANCH  13   7
TORSDOF 4
ENDMDL
MODEL 5
REMARK VINA RESULT:       3.0      2.609      5.274
REMARK  Name = 11913350
REMARK  4 active torsions:
REMARK  status: ('A' for Active; 'I' for Inactive)
REMARK    1  A    between atoms: N_6  and  C_12
REMARK    2  A    between atoms: N_7  and  C_13
REMARK    3  A    between atoms: C_17  and  C_18
REMARK    4  A    between atoms: C_19  and  C_23
REMARK                            x       y       z     vdW  Elec       q    Type
REMARK                         _______ _______ _______ _____ _____    ______ ____
ROOT
ATOM      2  O   UNL     1      -2.808  -2.751  24.093  0.00  0.00    -0.370 OA
ATOM      3  O   UNL     1      -1.289  -1.270  26.389  0.00  0.00    -0.370 OA
ATOM     10  C   UNL     1      -2.298  -0.863  25.449  0.00  0.00    +0.171 C 
ATOM     11  C   UNL     1      -2.001  -1.562  24.137  0.00  0.00    +0.171 C 
ATOM     12  C   UNL     1      -3.646  -1.405  25.861  0.00  0.00    +0.130 C 
ATOM     13  C   UNL     1      -0.540  -1.927  24.236  0.00  0.00    +0.130 C 
ATOM     14  C   UNL     1      -3.642  -2.798  25.261  0.00  0.00    +0.185 C 
ATOM     15  C   UNL     1      -0.342  -2.120  25.726  0.00  0.00    +0.185 C 
ENDROOT
BRANCH  12   6
ATOM      6  N   UNL     1      -4.701  -0.609  25.271  0.00  0.00    -0.306 N 
ATOM      8  N   UNL     1      -3.359   1.314  25.194  0.00  0.00    -0.214 NA
ATOM      9  N   UNL     1      -5.630   1.358  24.391  0.00  0.00    -0.223 NA
ATOM     16  C   UNL     1      -4.559   0.728  24.942  0.00  0.00    +0.216 A 
ATOM     19  C   UNL     1      -3.255   2.617  24.863  0.00  0.00    +0.076 A 
ATOM     21  C   UNL     1      -5.457   2.660  24.084  0.00  0.00    +0.116 A 
ATOM     22  C   UNL     1      -4.281   3.348  24.298  0.00  0.00    +0.048 A 
ATOM     31  H   UNL     1      -5.582  -1.049  25.030  0.00  0.00    +0.149 HD
BRANCH  19  23
ATOM      1  F   UNL     1       1.125   2.452  26.889  0.00  0.00    -0.205 F 
ATOM     23  C   UNL     1      -1.973   3.221  25.138  0.00  0.00    +0.003 A 
ATOM     26  C   UNL     1      -1.024   2.532  25.897  0.00  0.00    +0.048 A 
ATOM     27  C   UNL     1      -1.678   4.494  24.648  0.00  0.00    +0.010 A 
ATOM     28  C   UNL     1       0.216   3.114  26.163  0.00  0.00    +0.124 A 
ATOM     29  C   UNL     1      -0.439   5.077  24.915  0.00  0.00    +0.003 A 
ATOM     30  C   UNL     1       0.508   4.387  25.671  0.00  0.00    +0.038 A 
ENDBRANCH  19  23
ENDBRANCH  12   6
BRANCH  13   7
ATOM      4  O   UNL     1       2.340  -1.863  23.937  0.00  0.00    -0.267 OA
ATOM      7  N   UNL     1       0.290  -0.790  23.768  0.00  0.00    -0.301 N 
ATOM     17  C   UNL     1       1.672  -0.870  23.662  0.00  0.00    +0.280 C 
ATOM     32  H   UNL     1      -0.172   0.091  23.563  0.00  0.00    +0.150 HD
BRANCH  17  18
ATOM      5  O   UNL     1       3.590   0.190  22.726  0.00  0.00    -0.458 OA
ATOM     18  C   UNL     1       2.361   0.364  23.203  0.00  0.00    +0.189 A 
ATOM     20  C   UNL     1       1.929   1.627  23.199  0.00  0.00    +0.054 A 
ATOM     24  C   UNL     1       3.008   2.359  22.651  0.00  0.00    +0.042 A 
ATOM     25  C   UNL     1       3.994   1.440  22.380  0.00  0.00    +0.196 A 
ENDBRANCH  17  18
ENDBRANCH  13   7
TORSDOF 4
ENDMDL
MODEL 6
REMARK VINA RESULT:       3.0      2.972      5.423
REMARK  Name = 11913350
REMARK  4 active torsions:
REMARK  status: ('A' for Active; 'I' for Inactive)
REMARK    1  A    between atoms: N_6  and  C_12
REMARK    2  A    between atoms: N_7  and  C_13
REMARK    3  A    between atoms: C_17  and  C_18
REMARK    4  A    between atoms: C_19  and  C_23
REMARK                            x       y       z     vdW  Elec       q    Type
REMARK                         _______ _______ _______ _____ _____    ______ ____
ROOT
ATOM      2  O   UNL     1      -2.999  -1.135  23.152  0.00  0.00    -0.370 OA
ATOM      3  O   UNL     1      -1.687  -1.318  25.983  0.00  0.00    -0.370 OA
ATOM     10  C   UNL     1      -2.044  -0.217  25.129  0.00  0.00    +0.171 C 
ATOM     11  C   UNL     1      -1.765  -0.644  23.701  0.00  0.00    +0.171 C 
ATOM     12  C   UNL     1      -3.538   0.007  25.163  0.00  0.00    +0.130 C 
ATOM     13  C   UNL     1      -0.771  -1.771  23.841  0.00  0.00    +0.130 C 
ATOM     14  C   UNL     1      -4.045  -0.973  24.122  0.00  0.00    +0.185 C 
ATOM     15  C   UNL     1      -1.133  -2.374  25.184  0.00  0.00    +0.185 C 
ENDROOT
BRANCH  12   6
ATOM      6  N   UNL     1      -3.844   1.364  24.765  0.00  0.00    -0.306 N 
ATOM      8  N   UNL     1      -2.033   2.243  25.969  0.00  0.00    -0.214 NA
ATOM      9  N   UNL     1      -3.499   3.685  24.712  0.00  0.00    -0.223 NA
ATOM     16  C   UNL     1      -3.103   2.463  25.161  0.00  0.00    +0.216 A 
ATOM     19  C   UNL     1      -1.334   3.337  26.337  0.00  0.00    +0.076 A 
ATOM     21  C   UNL     1      -2.755   4.734  25.118  0.00  0.00    +0.116 A 
ATOM     22  C   UNL     1      -1.651   4.620  25.937  0.00  0.00    +0.048 A 
ATOM     31  H   UNL     1      -4.607   1.534  24.120  0.00  0.00    +0.149 HD
BRANCH  19  23
ATOM      1  F   UNL     1       0.537   2.603  30.728  0.00  0.00    -0.205 F 
ATOM     23  C   UNL     1      -0.201   3.082  27.195  0.00  0.00    +0.003 A 
ATOM     26  C   UNL     1      -0.381   2.964  28.575  0.00  0.00    +0.048 A 
ATOM     27  C   UNL     1       1.077   2.953  26.649  0.00  0.00    +0.010 A 
ATOM     28  C   UNL     1       0.712   2.718  29.405  0.00  0.00    +0.124 A 
ATOM     29  C   UNL     1       2.171   2.707  27.479  0.00  0.00    +0.003 A 
ATOM     30  C   UNL     1       1.988   2.589  28.857  0.00  0.00    +0.038 A 
ENDBRANCH  19  23
ENDBRANCH  12   6
BRANCH  13   7
ATOM      4  O   UNL     1       0.730  -0.563  21.679  0.00  0.00    -0.267 OA
ATOM      7  N   UNL     1       0.605  -1.219  23.900  0.00  0.00    -0.301 N 
ATOM     17  C   UNL     1       1.232  -0.660  22.795  0.00  0.00    +0.280 C 
ATOM     32  H   UNL     1       1.118  -1.298  24.773  0.00  0.00    +0.150 HD
BRANCH  17  18
ATOM      5  O   UNL     1       3.473  -1.077  23.489  0.00  0.00    -0.458 OA
ATOM     18  C   UNL     1       2.619  -0.175  23.012  0.00  0.00    +0.189 A 
ATOM     20  C   UNL     1       3.139   1.035  22.799  0.00  0.00    +0.054 A 
ATOM     24  C   UNL     1       4.494   0.902  23.184  0.00  0.00    +0.042 A 
ATOM     25  C   UNL     1       4.647  -0.401  23.596  0.00  0.00    +0.196 A 
ENDBRANCH  17  18
ENDBRANCH  13   7
TORSDOF 4
ENDMDL
MODEL 7
REMARK VINA RESULT:       3.0      3.075      5.476
REMARK  Name = 11913350
REMARK  4 active torsions:
REMARK  status: ('A' for Active; 'I' for Inactive)
REMARK    1  A    between atoms: N_6  and  C_12
REMARK    2  A    between atoms: N_7  and  C_13
REMARK    3  A    between atoms: C_17  and  C_18
REMARK    4  A    between atoms: C_19  and  C_23
REMARK                            x       y       z     vdW  Elec       q    Type
REMARK                         _______ _______ _______ _____ _____    ______ ____
ROOT
ATOM      2  O   UNL     1      -4.318   3.080  25.343  0.00  0.00    -0.370 OA
ATOM      3  O   UNL     1      -1.566   3.532  23.933  0.00  0.00    -0.370 OA
ATOM     10  C   UNL     1      -2.194   2.383  24.529  0.00  0.00    +0.171 C 
ATOM     11  C   UNL     1      -2.955   2.867  25.747  0.00  0.00    +0.171 C 
ATOM     12  C   UNL     1      -3.265   1.839  23.614  0.00  0.00    +0.130 C 
ATOM     13  C   UNL     1      -2.302   4.182  26.093  0.00  0.00    +0.130 C 
ATOM     14  C   UNL     1      -4.470   2.690  23.970  0.00  0.00    +0.185 C 
ATOM     15  C   UNL     1      -1.827   4.686  24.744  0.00  0.00    +0.185 C 
ENDROOT
BRANCH  12   6
ATOM      6  N   UNL     1      -3.523   0.450  23.925  0.00  0.00    -0.306 N 
ATOM      8  N   UNL     1      -1.251  -0.116  23.794  0.00  0.00    -0.214 NA
ATOM      9  N   UNL     1      -2.912  -1.782  24.316  0.00  0.00    -0.223 NA
ATOM     16  C   UNL     1      -2.532  -0.511  24.014  0.00  0.00    +0.216 A 
ATOM     19  C   UNL     1      -0.310  -1.079  23.889  0.00  0.00    +0.076 A 
ATOM     21  C   UNL     1      -1.921  -2.693  24.395  0.00  0.00    +0.116 A 
ATOM     22  C   UNL     1      -0.589  -2.397  24.190  0.00  0.00    +0.048 A 
ATOM     31  H   UNL     1      -4.469   0.156  24.142  0.00  0.00    +0.149 HD
BRANCH  19  23
ATOM      1  F   UNL     1       4.448  -1.908  23.907  0.00  0.00    -0.205 F 
ATOM     23  C   UNL     1       1.045  -0.639  23.653  0.00  0.00    +0.003 A 
ATOM     26  C   UNL     1       2.114  -1.502  23.900  0.00  0.00    +0.048 A 
ATOM     27  C   UNL     1       1.290   0.651  23.177  0.00  0.00    +0.010 A 
ATOM     28  C   UNL     1       3.423  -1.078  23.671  0.00  0.00    +0.124 A 
ATOM     29  C   UNL     1       2.599   1.075  22.949  0.00  0.00    +0.003 A 
ATOM     30  C   UNL     1       3.665   0.211  23.195  0.00  0.00    +0.038 A 
ENDBRANCH  19  23
ENDBRANCH  12   6
BRANCH  13   7
ATOM      4  O   UNL     1      -0.713   1.769  26.280  0.00  0.00    -0.267 OA
ATOM      7  N   UNL     1      -1.132   3.942  26.973  0.00  0.00    -0.301 N 
ATOM     17  C   UNL     1      -0.440   2.739  26.981  0.00  0.00    +0.280 C 
ATOM     32  H   UNL     1      -0.861   4.674  27.624  0.00  0.00    +0.150 HD
BRANCH  17  18
ATOM      5  O   UNL     1       1.881   3.002  27.455  0.00  0.00    -0.458 OA
ATOM     18  C   UNL     1       0.693   2.648  27.938  0.00  0.00    +0.189 A 
ATOM     20  C   UNL     1       0.697   2.263  29.216  0.00  0.00    +0.054 A 
ATOM     24  C   UNL     1       2.051   2.382  29.608  0.00  0.00    +0.042 A 
ATOM     25  C   UNL     1       2.731   2.835  28.502  0.00  0.00    +0.196 A 
ENDBRANCH  17  18
ENDBRANCH  13   7
TORSDOF 4
ENDMDL
MODEL 8
REMARK VINA RESULT:       3.1      2.266      5.580
REMARK  Name = 11913350
REMARK  4 active torsions:
REMARK  status: ('A' for Active; 'I' for Inactive)
REMARK    1  A    between atoms: N_6  and  C_12
REMARK    2  A    between atoms: N_7  and  C_13
REMARK    3  A    between atoms: C_17  and  C_18
REMARK    4  A    between atoms: C_19  and  C_23
REMARK                            x       y       z     vdW  Elec       q    Type
REMARK                         _______ _______ _______ _____ _____    ______ ____
ROOT
ATOM      2  O   UNL     1       0.963  -0.548  23.563  0.00  0.00    -0.370 OA
ATOM      3  O   UNL     1      -0.264   0.819  26.092  0.00  0.00    -0.370 OA
ATOM     10  C   UNL     1      -0.794  -0.072  25.096  0.00  0.00    +0.171 C 
ATOM     11  C   UNL     1      -0.170   0.311  23.769  0.00  0.00    +0.171 C 
ATOM     12  C   UNL     1      -0.305  -1.480  25.341  0.00  0.00    +0.130 C 
ATOM     13  C   UNL     1       0.285   1.735  23.973  0.00  0.00    +0.130 C 
ATOM     14  C   UNL     1       1.042  -1.492  24.643  0.00  0.00    +0.185 C 
ATOM     15  C   UNL     1       0.593   1.780  25.457  0.00  0.00    +0.185 C 
ENDROOT
BRANCH  12   6
ATOM      6  N   UNL     1      -1.200  -2.431  24.718  0.00  0.00    -0.306 N 
ATOM      8  N   UNL     1      -3.016  -0.948  24.809  0.00  0.00    -0.214 NA
ATOM      9  N   UNL     1      -3.264  -3.151  23.863  0.00  0.00    -0.223 NA
ATOM     16  C   UNL     1      -2.534  -2.168  24.456  0.00  0.00    +0.216 A 
ATOM     19  C   UNL     1      -4.319  -0.726  24.540  0.00  0.00    +0.076 A 
ATOM     21  C   UNL     1      -4.560  -2.861  23.622  0.00  0.00    +0.116 A 
ATOM     22  C   UNL     1      -5.147  -1.655  23.941  0.00  0.00    +0.048 A 
ATOM     31  H   UNL     1      -0.838  -3.324  24.403  0.00  0.00    +0.149 HD
BRANCH  19  23
ATOM      1  F   UNL     1      -3.637   3.602  26.570  0.00  0.00    -0.205 F 
ATOM     23  C   UNL     1      -4.812   0.576  24.922  0.00  0.00    +0.003 A 
ATOM     26  C   UNL     1      -3.971   1.479  25.576  0.00  0.00    +0.048 A 
ATOM     27  C   UNL     1      -6.132   0.936  24.642  0.00  0.00    +0.010 A 
ATOM     28  C   UNL     1      -4.446   2.737  25.945  0.00  0.00    +0.124 A 
ATOM     29  C   UNL     1      -6.608   2.194  25.013  0.00  0.00    +0.003 A 
ATOM     30  C   UNL     1      -5.765   3.094  25.663  0.00  0.00    +0.038 A 
ENDBRANCH  19  23
ENDBRANCH  12   6
BRANCH  13   7
ATOM      4  O   UNL     1      -0.586   4.006  25.546  0.00  0.00    -0.267 OA
ATOM      7  N   UNL     1      -0.830   2.665  23.669  0.00  0.00    -0.301 N 
ATOM     17  C   UNL     1      -1.163   3.727  24.499  0.00  0.00    +0.280 C 
ATOM     32  H   UNL     1      -1.397   2.483  22.846  0.00  0.00    +0.150 HD
BRANCH  17  18
ATOM      5  O   UNL     1      -3.249   3.907  23.360  0.00  0.00    -0.458 OA
ATOM     18  C   UNL     1      -2.323   4.549  24.067  0.00  0.00    +0.189 A 
ATOM     20  C   UNL     1      -2.575   5.842  24.283  0.00  0.00    +0.054 A 
ATOM     24  C   UNL     1      -3.815   6.064  23.640  0.00  0.00    +0.042 A 
ATOM     25  C   UNL     1      -4.184   4.857  23.094  0.00  0.00    +0.196 A 
ENDBRANCH  17  18
ENDBRANCH  13   7
TORSDOF 4
ENDMDL
MODEL 9
REMARK VINA RESULT:       3.3      1.828      4.371
REMARK  Name = 11913350
REMARK  4 active torsions:
REMARK  status: ('A' for Active; 'I' for Inactive)
REMARK    1  A    between atoms: N_6  and  C_12
REMARK    2  A    between atoms: N_7  and  C_13
REMARK    3  A    between atoms: C_17  and  C_18
REMARK    4  A    between atoms: C_19  and  C_23
REMARK                            x       y       z     vdW  Elec       q    Type
REMARK                         _______ _______ _______ _____ _____    ______ ____
ROOT
ATOM      2  O   UNL     1      -3.121   4.799  23.997  0.00  0.00    -0.370 OA
ATOM      3  O   UNL     1      -3.130   3.234  26.703  0.00  0.00    -0.370 OA
ATOM     10  C   UNL     1      -2.277   3.201  25.546  0.00  0.00    +0.171 C 
ATOM     11  C   UNL     1      -3.159   3.401  24.329  0.00  0.00    +0.171 C 
ATOM     12  C   UNL     1      -1.359   4.400  25.538  0.00  0.00    +0.130 C 
ATOM     13  C   UNL     1      -4.538   3.015  24.806  0.00  0.00    +0.130 C 
ATOM     14  C   UNL     1      -2.214   5.470  24.885  0.00  0.00    +0.185 C 
ATOM     15  C   UNL     1      -4.495   3.368  26.280  0.00  0.00    +0.185 C 
ENDROOT
BRANCH  12   6
ATOM      6  N   UNL     1      -0.193   4.127  24.726  0.00  0.00    -0.306 N 
ATOM      8  N   UNL     1      -0.518   1.806  24.847  0.00  0.00    -0.214 NA
ATOM      9  N   UNL     1       1.334   2.734  23.614  0.00  0.00    -0.223 NA
ATOM     16  C   UNL     1       0.220   2.850  24.386  0.00  0.00    +0.216 A 
ATOM     19  C   UNL     1      -0.087   0.576  24.496  0.00  0.00    +0.076 A 
ATOM     21  C   UNL     1       1.708   1.476  23.302  0.00  0.00    +0.116 A 
ATOM     22  C   UNL     1       1.030   0.349  23.717  0.00  0.00    +0.048 A 
ATOM     31  H   UNL     1       0.334   4.899  24.334  0.00  0.00    +0.149 HD
BRANCH  19  23
ATOM      1  F   UNL     1      -3.658  -1.102  27.280  0.00  0.00    -0.205 F 
ATOM     23  C   UNL     1      -0.884  -0.519  24.995  0.00  0.00    +0.003 A 
ATOM     26  C   UNL     1      -1.906  -0.278  25.916  0.00  0.00    +0.048 A 
ATOM     27  C   UNL     1      -0.636  -1.822  24.560  0.00  0.00    +0.010 A 
ATOM     28  C   UNL     1      -2.677  -1.335  26.398  0.00  0.00    +0.124 A 
ATOM     29  C   UNL     1      -1.407  -2.880  25.043  0.00  0.00    +0.003 A 
ATOM     30  C   UNL     1      -2.428  -2.636  25.961  0.00  0.00    +0.038 A 
ENDBRANCH  19  23
ENDBRANCH  12   6
BRANCH  13   7
ATOM      4  O   UNL     1      -3.206   1.261  22.925  0.00  0.00    -0.267 OA
ATOM      7  N   UNL     1      -4.728   1.552  24.651  0.00  0.00    -0.301 N 
ATOM     17  C   UNL     1      -4.033   0.805  23.710  0.00  0.00    +0.280 C 
ATOM     32  H   UNL     1      -5.429   1.094  25.226  0.00  0.00    +0.150 HD
BRANCH  17  18
ATOM      5  O   UNL     1      -3.588  -1.377  22.860  0.00  0.00    -0.458 OA
ATOM     18  C   UNL     1      -4.356  -0.644  23.663  0.00  0.00    +0.189 A 
ATOM     20  C   UNL     1      -5.306  -1.324  24.308  0.00  0.00    +0.054 A 
ATOM     24  C   UNL     1      -5.132  -2.659  23.872  0.00  0.00    +0.042 A 
ATOM     25  C   UNL     1      -4.075  -2.638  22.993  0.00  0.00    +0.196 A 
ENDBRANCH  17  18
ENDBRANCH  13   7
TORSDOF 4
ENDMDL
MODEL 10
REMARK VINA RESULT:       3.9      2.767      6.929
REMARK  Name = 11913350
REMARK  4 active torsions:
REMARK  status: ('A' for Active; 'I' for Inactive)
REMARK    1  A    between atoms: N_6  and  C_12
REMARK    2  A    between atoms: N_7  and  C_13
REMARK    3  A    between atoms: C_17  and  C_18
REMARK    4  A    between atoms: C_19  and  C_23
REMARK                            x       y       z     vdW  Elec       q    Type
REMARK                         _______ _______ _______ _____ _____    ______ ____
ROOT
ATOM      2  O   UNL     1      -1.114  -1.628  25.885  0.00  0.00    -0.370 OA
ATOM      3  O   UNL     1      -3.444  -1.409  23.814  0.00  0.00    -0.370 OA
ATOM     10  C   UNL     1      -2.057  -1.031  23.784  0.00  0.00    +0.171 C 
ATOM     11  C   UNL     1      -1.696  -0.528  25.167  0.00  0.00    +0.171 C 
ATOM     12  C   UNL     1      -1.187  -2.251  23.595  0.00  0.00    +0.130 C 
ATOM     13  C   UNL     1      -3.023  -0.149  25.780  0.00  0.00    +0.130 C 
ATOM     14  C   UNL     1      -1.022  -2.765  25.013  0.00  0.00    +0.185 C 
ATOM     15  C   UNL     1      -3.988  -1.104  25.106  0.00  0.00    +0.185 C 
ENDROOT
BRANCH  12   6
ATOM      6  N   UNL     1       0.097  -1.864  23.050  0.00  0.00    -0.306 N 
ATOM      8  N   UNL     1      -0.055   0.302  23.939  0.00  0.00    -0.214 NA
ATOM      9  N   UNL     1       1.869  -0.377  22.657  0.00  0.00    -0.223 NA
ATOM     16  C   UNL     1       0.653  -0.609  23.221  0.00  0.00    +0.216 A 
ATOM     19  C   UNL     1       0.517   1.515  24.085  0.00  0.00    +0.076 A 
ATOM     21  C   UNL     1       2.382   0.857  22.842  0.00  0.00    +0.116 A 
ATOM     22  C   UNL     1       1.746   1.852  23.555  0.00  0.00    +0.048 A 
ATOM     31  H   UNL     1       0.657  -2.551  22.558  0.00  0.00    +0.149 HD
BRANCH  19  23
ATOM      1  F   UNL     1      -1.719   5.778  24.475  0.00  0.00    -0.205 F 
ATOM     23  C   UNL     1      -0.251   2.467  24.852  0.00  0.00    +0.003 A 
ATOM     26  C   UNL     1      -0.621   3.688  24.283  0.00  0.00    +0.048 A 
ATOM     27  C   UNL     1      -0.625   2.172  26.164  0.00  0.00    +0.010 A 
ATOM     28  C   UNL     1      -1.364   4.608  25.023  0.00  0.00    +0.124 A 
ATOM     29  C   UNL     1      -1.367   3.093  26.905  0.00  0.00    +0.003 A 
ATOM     30  C   UNL     1      -1.737   4.310  26.334  0.00  0.00    +0.038 A 
ENDBRANCH  19  23
ENDBRANCH  12   6
BRANCH  13   7
ATOM      4  O   UNL     1      -5.653   1.062  25.731  0.00  0.00    -0.267 OA
ATOM      7  N   UNL     1      -3.364   1.246  25.407  0.00  0.00    -0.301 N 
ATOM     17  C   UNL     1      -4.667   1.723  25.419  0.00  0.00    +0.280 C 
ATOM     32  H   UNL     1      -2.616   1.856  25.088  0.00  0.00    +0.150 HD
BRANCH  17  18
ATOM      5  O   UNL     1      -5.649   3.868  25.763  0.00  0.00    -0.458 OA
ATOM     18  C   UNL     1      -4.845   3.136  24.995  0.00  0.00    +0.189 A 
ATOM     20  C   UNL     1      -4.318   3.784  23.954  0.00  0.00    +0.054 A 
ATOM     24  C   UNL     1      -4.842   5.094  24.060  0.00  0.00    +0.042 A 
ATOM     25  C   UNL     1      -5.645   5.094  25.177  0.00  0.00    +0.196 A 
ENDBRANCH  17  18
ENDBRANCH  13   7
TORSDOF 4
ENDMDL
