MODEL 1
REMARK VINA RESULT:      -4.8      0.000      0.000
REMARK  Name = 51137074
REMARK  2 active torsions:
REMARK  status: ('A' for Active; 'I' for Inactive)
REMARK    1  A    between atoms: N_2  and  C_4
REMARK    2  A    between atoms: C_9  and  C_12
REMARK                            x       y       z     vdW  Elec       q    Type
REMARK                         _______ _______ _______ _____ _____    ______ ____
ROOT
ATOM      2  N   UNL     1      -4.775 -10.053  10.807  0.00  0.00    -0.299 NA
ATOM      7  C   UNL     1      -4.919 -10.781  12.070  0.00  0.00    +0.095 C 
ATOM      9  C   UNL     1      -6.243 -10.242  12.625  0.00  0.00    +0.060 C 
ATOM     10  C   UNL     1      -5.152  -8.674  11.124  0.00  0.00    +0.085 C 
ATOM     11  C   UNL     1      -6.399  -8.852  11.981  0.00  0.00    +0.027 C 
ENDROOT
BRANCH   9  12
ATOM      1  S   UNL     1      -7.808 -10.056  14.916  0.00  0.00    -0.072 S 
ATOM      3  N   UNL     1      -5.251 -10.397  14.913  0.00  0.00    -0.244 NA
ATOM     12  C   UNL     1      -6.297 -10.250  14.136  0.00  0.00    +0.084 A 
ATOM     13  C   UNL     1      -7.021 -10.176  16.445  0.00  0.00    +0.039 A 
ATOM     14  C   UNL     1      -5.650 -10.357  16.242  0.00  0.00    +0.078 A 
ATOM     15  C   UNL     1      -7.578 -10.115  17.733  0.00  0.00    +0.017 A 
ATOM     16  C   UNL     1      -4.807 -10.480  17.369  0.00  0.00    +0.029 A 
ATOM     17  C   UNL     1      -6.723 -10.239  18.831  0.00  0.00    +0.001 A 
ATOM     18  C   UNL     1      -5.356 -10.420  18.654  0.00  0.00    +0.002 A 
ENDBRANCH   9  12
BRANCH   2   4
ATOM      4  C   UNL     1      -3.391 -10.115  10.323  0.00  0.00    +0.057 C 
ATOM      5  C   UNL     1      -2.773  -8.701  10.342  0.00  0.00    +0.019 C 
ATOM      6  C   UNL     1      -2.448 -10.460  11.495  0.00  0.00    +0.019 C 
ATOM      8  C   UNL     1      -1.521  -9.341  10.976  0.00  0.00    +0.003 C 
ENDBRANCH   2   4
TORSDOF 2
ENDMDL
MODEL 2
REMARK VINA RESULT:      -3.7     14.966     17.405
REMARK  Name = 51137074
REMARK  2 active torsions:
REMARK  status: ('A' for Active; 'I' for Inactive)
REMARK    1  A    between atoms: N_2  and  C_4
REMARK    2  A    between atoms: C_9  and  C_12
REMARK                            x       y       z     vdW  Elec       q    Type
REMARK                         _______ _______ _______ _____ _____    ______ ____
ROOT
ATOM      2  N   UNL     1      -3.475   3.520  25.781  0.00  0.00    -0.299 NA
ATOM      7  C   UNL     1      -2.740   2.301  25.437  0.00  0.00    +0.095 C 
ATOM      9  C   UNL     1      -1.276   2.725  25.611  0.00  0.00    +0.060 C 
ATOM     10  C   UNL     1      -2.741   4.600  25.119  0.00  0.00    +0.085 C 
ATOM     11  C   UNL     1      -1.287   4.252  25.415  0.00  0.00    +0.027 C 
ENDROOT
BRANCH   9  12
ATOM      1  S   UNL     1      -0.930   0.663  23.779  0.00  0.00    -0.072 S 
ATOM      3  N   UNL     1       0.941   2.261  24.553  0.00  0.00    -0.244 NA
ATOM     12  C   UNL     1      -0.332   1.976  24.698  0.00  0.00    +0.084 A 
ATOM     13  C   UNL     1       0.641   0.429  23.110  0.00  0.00    +0.039 A 
ATOM     14  C   UNL     1       1.513   1.382  23.645  0.00  0.00    +0.078 A 
ATOM     15  C   UNL     1       1.072  -0.528  22.177  0.00  0.00    +0.017 A 
ATOM     16  C   UNL     1       2.864   1.374  23.231  0.00  0.00    +0.029 A 
ATOM     17  C   UNL     1       2.413  -0.514  21.785  0.00  0.00    +0.001 A 
ATOM     18  C   UNL     1       3.299   0.423  22.303  0.00  0.00    +0.002 A 
ENDBRANCH   9  12
BRANCH   2   4
ATOM      4  C   UNL     1      -4.856   3.453  25.288  0.00  0.00    +0.057 C 
ATOM      5  C   UNL     1      -4.969   2.347  24.217  0.00  0.00    +0.019 C 
ATOM      6  C   UNL     1      -5.691   2.540  26.210  0.00  0.00    +0.019 C 
ATOM      8  C   UNL     1      -6.263   1.900  24.928  0.00  0.00    +0.003 C 
ENDBRANCH   2   4
TORSDOF 2
ENDMDL
MODEL 3
REMARK VINA RESULT:      -3.6      1.988      2.855
REMARK  Name = 51137074
REMARK  2 active torsions:
REMARK  status: ('A' for Active; 'I' for Inactive)
REMARK    1  A    between atoms: N_2  and  C_4
REMARK    2  A    between atoms: C_9  and  C_12
REMARK                            x       y       z     vdW  Elec       q    Type
REMARK                         _______ _______ _______ _____ _____    ______ ____
ROOT
ATOM      2  N   UNL     1      -1.195  -9.584  11.459  0.00  0.00    -0.299 NA
ATOM      7  C   UNL     1      -1.526  -9.728  12.878  0.00  0.00    +0.095 C 
ATOM      9  C   UNL     1      -2.641 -10.781  12.863  0.00  0.00    +0.060 C 
ATOM     10  C   UNL     1      -2.489  -9.550  10.774  0.00  0.00    +0.085 C 
ATOM     11  C   UNL     1      -3.264 -10.668  11.459  0.00  0.00    +0.027 C 
ENDROOT
BRANCH   9  12
ATOM      1  S   UNL     1      -5.247 -10.224  13.657  0.00  0.00    -0.072 S 
ATOM      3  N   UNL     1      -3.310 -10.769  15.271  0.00  0.00    -0.244 NA
ATOM     12  C   UNL     1      -3.619 -10.622  14.005  0.00  0.00    +0.084 A 
ATOM     13  C   UNL     1      -5.600 -10.241  15.344  0.00  0.00    +0.039 A 
ATOM     14  C   UNL     1      -4.436 -10.554  16.053  0.00  0.00    +0.078 A 
ATOM     15  C   UNL     1      -6.820  -9.997  15.995  0.00  0.00    +0.017 A 
ATOM     16  C   UNL     1      -4.497 -10.622  17.462  0.00  0.00    +0.029 A 
ATOM     17  C   UNL     1      -6.854 -10.071  17.389  0.00  0.00    +0.001 A 
ATOM     18  C   UNL     1      -5.709 -10.380  18.115  0.00  0.00    +0.002 A 
ENDBRANCH   9  12
BRANCH   2   4
ATOM      4  C   UNL     1      -0.449  -8.343  11.221  0.00  0.00    +0.057 C 
ATOM      5  C   UNL     1       0.085  -7.795  12.561  0.00  0.00    +0.019 C 
ATOM      6  C   UNL     1       1.014  -8.678  10.862  0.00  0.00    +0.019 C 
ATOM      8  C   UNL     1       1.429  -7.560  11.840  0.00  0.00    +0.003 C 
ENDBRANCH   2   4
TORSDOF 2
ENDMDL
MODEL 4
REMARK VINA RESULT:      -3.6     21.662     24.579
REMARK  Name = 51137074
REMARK  2 active torsions:
REMARK  status: ('A' for Active; 'I' for Inactive)
REMARK    1  A    between atoms: N_2  and  C_4
REMARK    2  A    between atoms: C_9  and  C_12
REMARK                            x       y       z     vdW  Elec       q    Type
REMARK                         _______ _______ _______ _____ _____    ______ ____
ROOT
ATOM      2  N   UNL     1       8.870  -9.252  32.831  0.00  0.00    -0.299 NA
ATOM      7  C   UNL     1      10.117  -9.674  32.188  0.00  0.00    +0.095 C 
ATOM      9  C   UNL     1      11.101  -8.569  32.595  0.00  0.00    +0.060 C 
ATOM     10  C   UNL     1       8.793  -7.810  32.588  0.00  0.00    +0.085 C 
ATOM     11  C   UNL     1      10.214  -7.342  32.873  0.00  0.00    +0.027 C 
ENDROOT
BRANCH   9  12
ATOM      1  S   UNL     1      12.520  -6.750  31.043  0.00  0.00    -0.072 S 
ATOM      3  N   UNL     1      12.921  -9.299  31.046  0.00  0.00    -0.244 NA
ATOM     12  C   UNL     1      12.191  -8.345  31.572  0.00  0.00    +0.084 A 
ATOM     13  C   UNL     1      13.756  -7.361  30.008  0.00  0.00    +0.039 A 
ATOM     14  C   UNL     1      13.825  -8.750  30.146  0.00  0.00    +0.078 A 
ATOM     15  C   UNL     1      14.605  -6.660  29.136  0.00  0.00    +0.017 A 
ATOM     16  C   UNL     1      14.776  -9.462  29.382  0.00  0.00    +0.029 A 
ATOM     17  C   UNL     1      15.538  -7.387  28.393  0.00  0.00    +0.001 A 
ATOM     18  C   UNL     1      15.624  -8.770  28.513  0.00  0.00    +0.002 A 
ENDBRANCH   9  12
BRANCH   2   4
ATOM      4  C   UNL     1       7.718  -9.941  32.237  0.00  0.00    +0.057 C 
ATOM      5  C   UNL     1       7.020  -9.005  31.228  0.00  0.00    +0.019 C 
ATOM      6  C   UNL     1       8.182 -10.776  31.026  0.00  0.00    +0.019 C 
ATOM      8  C   UNL     1       6.963 -10.211  30.267  0.00  0.00    +0.003 C 
ENDBRANCH   2   4
TORSDOF 2
ENDMDL
MODEL 5
REMARK VINA RESULT:      -3.2     14.283     16.003
REMARK  Name = 51137074
REMARK  2 active torsions:
REMARK  status: ('A' for Active; 'I' for Inactive)
REMARK    1  A    between atoms: N_2  and  C_4
REMARK    2  A    between atoms: C_9  and  C_12
REMARK                            x       y       z     vdW  Elec       q    Type
REMARK                         _______ _______ _______ _____ _____    ______ ____
ROOT
ATOM      2  N   UNL     1       1.007  -0.435  23.734  0.00  0.00    -0.299 NA
ATOM      7  C   UNL     1       0.229   0.657  24.324  0.00  0.00    +0.095 C 
ATOM      9  C   UNL     1      -0.903  -0.084  25.047  0.00  0.00    +0.060 C 
ATOM     10  C   UNL     1       0.008  -1.355  23.188  0.00  0.00    +0.085 C 
ATOM     11  C   UNL     1      -1.032  -1.423  24.299  0.00  0.00    +0.027 C 
ENDROOT
BRANCH   9  12
ATOM      1  S   UNL     1      -3.683  -0.087  25.027  0.00  0.00    -0.072 S 
ATOM      3  N   UNL     1      -2.224   2.026  25.273  0.00  0.00    -0.244 NA
ATOM     12  C   UNL     1      -2.179   0.723  25.128  0.00  0.00    +0.084 A 
ATOM     13  C   UNL     1      -4.496   1.425  25.189  0.00  0.00    +0.039 A 
ATOM     14  C   UNL     1      -3.546   2.445  25.310  0.00  0.00    +0.078 A 
ATOM     15  C   UNL     1      -5.874   1.691  25.209  0.00  0.00    +0.017 A 
ATOM     16  C   UNL     1      -3.995   3.776  25.454  0.00  0.00    +0.029 A 
ATOM     17  C   UNL     1      -6.292   3.016  25.353  0.00  0.00    +0.001 A 
ATOM     18  C   UNL     1      -5.367   4.046  25.474  0.00  0.00    +0.002 A 
ENDBRANCH   9  12
BRANCH   2   4
ATOM      4  C   UNL     1       1.887   0.066  22.672  0.00  0.00    +0.057 C 
ATOM      5  C   UNL     1       2.508   1.411  23.106  0.00  0.00    +0.019 C 
ATOM      6  C   UNL     1       3.294  -0.548  22.831  0.00  0.00    +0.019 C 
ATOM      8  C   UNL     1       3.855   0.868  22.585  0.00  0.00    +0.003 C 
ENDBRANCH   2   4
TORSDOF 2
ENDMDL
MODEL 6
REMARK VINA RESULT:      -3.2     24.053     25.606
REMARK  Name = 51137074
REMARK  2 active torsions:
REMARK  status: ('A' for Active; 'I' for Inactive)
REMARK    1  A    between atoms: N_2  and  C_4
REMARK    2  A    between atoms: C_9  and  C_12
REMARK                            x       y       z     vdW  Elec       q    Type
REMARK                         _______ _______ _______ _____ _____    ______ ____
ROOT
ATOM      2  N   UNL     1      12.459  -7.919  32.251  0.00  0.00    -0.299 NA
ATOM      7  C   UNL     1      13.604  -8.445  31.504  0.00  0.00    +0.095 C 
ATOM      9  C   UNL     1      14.114  -7.210  30.749  0.00  0.00    +0.060 C 
ATOM     10  C   UNL     1      11.752  -7.061  31.299  0.00  0.00    +0.085 C 
ATOM     11  C   UNL     1      12.884  -6.291  30.632  0.00  0.00    +0.027 C 
ENDROOT
BRANCH   9  12
ATOM      1  S   UNL     1      15.139  -9.191  29.089  0.00  0.00    -0.072 S 
ATOM      3  N   UNL     1      15.103  -6.675  28.517  0.00  0.00    -0.244 NA
ATOM     12  C   UNL     1      14.776  -7.554  29.435  0.00  0.00    +0.084 A 
ATOM     13  C   UNL     1      15.799  -8.712  27.570  0.00  0.00    +0.039 A 
ATOM     14  C   UNL     1      15.690  -7.324  27.440  0.00  0.00    +0.078 A 
ATOM     15  C   UNL     1      16.370  -9.507  26.564  0.00  0.00    +0.017 A 
ATOM     16  C   UNL     1      16.173  -6.713  26.262  0.00  0.00    +0.029 A 
ATOM     17  C   UNL     1      16.840  -8.878  25.408  0.00  0.00    +0.001 A 
ATOM     18  C   UNL     1      16.743  -7.500  25.257  0.00  0.00    +0.002 A 
ENDBRANCH   9  12
BRANCH   2   4
ATOM      4  C   UNL     1      11.591  -9.010  32.711  0.00  0.00    +0.057 C 
ATOM      5  C   UNL     1      10.161  -8.794  32.172  0.00  0.00    +0.019 C 
ATOM      6  C   UNL     1      11.696 -10.202  31.736  0.00  0.00    +0.019 C 
ATOM      8  C   UNL     1      10.157 -10.292  31.803  0.00  0.00    +0.003 C 
ENDBRANCH   2   4
TORSDOF 2
ENDMDL
MODEL 7
REMARK VINA RESULT:      -2.8     14.725     16.328
REMARK  Name = 51137074
REMARK  2 active torsions:
REMARK  status: ('A' for Active; 'I' for Inactive)
REMARK    1  A    between atoms: N_2  and  C_4
REMARK    2  A    between atoms: C_9  and  C_12
REMARK                            x       y       z     vdW  Elec       q    Type
REMARK                         _______ _______ _______ _____ _____    ______ ____
ROOT
ATOM      2  N   UNL     1       2.392  -0.635  22.647  0.00  0.00    -0.299 NA
ATOM      7  C   UNL     1       1.764   0.051  23.778  0.00  0.00    +0.095 C 
ATOM      9  C   UNL     1       0.275  -0.263  23.582  0.00  0.00    +0.060 C 
ATOM     10  C   UNL     1       1.529  -0.339  21.502  0.00  0.00    +0.085 C 
ATOM     11  C   UNL     1       0.131  -0.536  22.073  0.00  0.00    +0.027 C 
ENDROOT
BRANCH   9  12
ATOM      1  S   UNL     1       0.064   2.195  24.863  0.00  0.00    -0.072 S 
ATOM      3  N   UNL     1      -1.942   0.787  24.059  0.00  0.00    -0.244 NA
ATOM     12  C   UNL     1      -0.632   0.820  24.119  0.00  0.00    +0.084 A 
ATOM     13  C   UNL     1      -1.514   2.829  25.144  0.00  0.00    +0.039 A 
ATOM     14  C   UNL     1      -2.464   1.934  24.642  0.00  0.00    +0.078 A 
ATOM     15  C   UNL     1      -1.886   4.033  25.763  0.00  0.00    +0.017 A 
ATOM     16  C   UNL     1      -3.833   2.256  24.767  0.00  0.00    +0.029 A 
ATOM     17  C   UNL     1      -3.247   4.329  25.873  0.00  0.00    +0.001 A 
ATOM     18  C   UNL     1      -4.209   3.454  25.382  0.00  0.00    +0.002 A 
ENDBRANCH   9  12
BRANCH   2   4
ATOM      4  C   UNL     1       3.750  -0.127  22.418  0.00  0.00    +0.057 C 
ATOM      5  C   UNL     1       3.905   1.254  23.090  0.00  0.00    +0.019 C 
ATOM      6  C   UNL     1       4.699  -0.677  23.504  0.00  0.00    +0.019 C 
ATOM      8  C   UNL     1       5.263   0.754  23.626  0.00  0.00    +0.003 C 
ENDBRANCH   2   4
TORSDOF 2
ENDMDL
MODEL 8
REMARK VINA RESULT:      -2.6     14.227     16.476
REMARK  Name = 51137074
REMARK  2 active torsions:
REMARK  status: ('A' for Active; 'I' for Inactive)
REMARK    1  A    between atoms: N_2  and  C_4
REMARK    2  A    between atoms: C_9  and  C_12
REMARK                            x       y       z     vdW  Elec       q    Type
REMARK                         _______ _______ _______ _____ _____    ______ ____
ROOT
ATOM      2  N   UNL     1      -3.529   4.449  25.061  0.00  0.00    -0.299 NA
ATOM      7  C   UNL     1      -3.060   3.278  24.317  0.00  0.00    +0.095 C 
ATOM      9  C   UNL     1      -4.254   2.319  24.404  0.00  0.00    +0.060 C 
ATOM     10  C   UNL     1      -4.189   3.900  26.247  0.00  0.00    +0.085 C 
ATOM     11  C   UNL     1      -5.006   2.748  25.677  0.00  0.00    +0.027 C 
ENDROOT
BRANCH   9  12
ATOM      1  S   UNL     1      -2.231   0.443  24.749  0.00  0.00    -0.072 S 
ATOM      3  N   UNL     1      -4.652  -0.124  24.062  0.00  0.00    -0.244 NA
ATOM     12  C   UNL     1      -3.846   0.864  24.369  0.00  0.00    +0.084 A 
ATOM     13  C   UNL     1      -2.614  -1.217  24.487  0.00  0.00    +0.039 A 
ATOM     14  C   UNL     1      -3.960  -1.326  24.125  0.00  0.00    +0.078 A 
ATOM     15  C   UNL     1      -1.783  -2.344  24.594  0.00  0.00    +0.017 A 
ATOM     16  C   UNL     1      -4.491  -2.608  23.861  0.00  0.00    +0.029 A 
ATOM     17  C   UNL     1      -2.332  -3.600  24.328  0.00  0.00    +0.001 A 
ATOM     18  C   UNL     1      -3.668  -3.733  23.966  0.00  0.00    +0.002 A 
ENDBRANCH   9  12
BRANCH   2   4
ATOM      4  C   UNL     1      -2.402   5.308  25.445  0.00  0.00    +0.057 C 
ATOM      5  C   UNL     1      -1.100   4.480  25.454  0.00  0.00    +0.019 C 
ATOM      6  C   UNL     1      -1.848   6.025  24.197  0.00  0.00    +0.019 C 
ATOM      8  C   UNL     1      -0.439   5.656  24.705  0.00  0.00    +0.003 C 
ENDBRANCH   2   4
TORSDOF 2
ENDMDL
MODEL 9
REMARK VINA RESULT:      -2.5     14.295     16.558
REMARK  Name = 51137074
REMARK  2 active torsions:
REMARK  status: ('A' for Active; 'I' for Inactive)
REMARK    1  A    between atoms: N_2  and  C_4
REMARK    2  A    between atoms: C_9  and  C_12
REMARK                            x       y       z     vdW  Elec       q    Type
REMARK                         _______ _______ _______ _____ _____    ______ ____
ROOT
ATOM      2  N   UNL     1      -0.264   3.742  25.439  0.00  0.00    -0.299 NA
ATOM      7  C   UNL     1      -1.113   2.627  25.865  0.00  0.00    +0.095 C 
ATOM      9  C   UNL     1      -0.338   1.400  25.369  0.00  0.00    +0.060 C 
ATOM     10  C   UNL     1       0.150   3.398  24.077  0.00  0.00    +0.085 C 
ATOM     11  C   UNL     1       0.509   1.923  24.194  0.00  0.00    +0.027 C 
ENDROOT
BRANCH   9  12
ATOM      1  S   UNL     1      -0.629  -1.360  25.198  0.00  0.00    -0.072 S 
ATOM      3  N   UNL     1      -2.474   0.345  24.613  0.00  0.00    -0.244 NA
ATOM     12  C   UNL     1      -1.236   0.231  25.032  0.00  0.00    +0.084 A 
ATOM     13  C   UNL     1      -2.145  -1.983  24.663  0.00  0.00    +0.039 A 
ATOM     14  C   UNL     1      -3.010  -0.917  24.397  0.00  0.00    +0.078 A 
ATOM     15  C   UNL     1      -2.542  -3.319  24.493  0.00  0.00    +0.017 A 
ATOM     16  C   UNL     1      -4.316  -1.200  23.942  0.00  0.00    +0.029 A 
ATOM     17  C   UNL     1      -3.840  -3.572  24.043  0.00  0.00    +0.001 A 
ATOM     18  C   UNL     1      -4.717  -2.529  23.771  0.00  0.00    +0.002 A 
ENDBRANCH   9  12
BRANCH   2   4
ATOM      4  C   UNL     1      -1.014   5.003  25.451  0.00  0.00    +0.057 C 
ATOM      5  C   UNL     1      -1.484   5.339  24.019  0.00  0.00    +0.019 C 
ATOM      6  C   UNL     1      -2.493   4.724  25.789  0.00  0.00    +0.019 C 
ATOM      8  C   UNL     1      -2.858   5.679  24.634  0.00  0.00    +0.003 C 
ENDBRANCH   2   4
TORSDOF 2
ENDMDL
MODEL 10
REMARK VINA RESULT:      -2.4     24.341     26.418
REMARK  Name = 51137074
REMARK  2 active torsions:
REMARK  status: ('A' for Active; 'I' for Inactive)
REMARK    1  A    between atoms: N_2  and  C_4
REMARK    2  A    between atoms: C_9  and  C_12
REMARK                            x       y       z     vdW  Elec       q    Type
REMARK                         _______ _______ _______ _____ _____    ______ ____
ROOT
ATOM      2  N   UNL     1      13.677  -7.115  32.650  0.00  0.00    -0.299 NA
ATOM      7  C   UNL     1      14.154  -7.864  31.485  0.00  0.00    +0.095 C 
ATOM      9  C   UNL     1      15.478  -7.165  31.149  0.00  0.00    +0.060 C 
ATOM     10  C   UNL     1      13.922  -5.710  32.317  0.00  0.00    +0.085 C 
ATOM     11  C   UNL     1      15.322  -5.743  31.718  0.00  0.00    +0.027 C 
ENDROOT
BRANCH   9  12
ATOM      1  S   UNL     1      16.588  -5.882  28.947  0.00  0.00    -0.072 S 
ATOM      3  N   UNL     1      15.567  -8.250  28.899  0.00  0.00    -0.244 NA
ATOM     12  C   UNL     1      15.820  -7.225  29.678  0.00  0.00    +0.084 A 
ATOM     13  C   UNL     1      16.598  -6.721  27.441  0.00  0.00    +0.039 A 
ATOM     14  C   UNL     1      16.008  -7.977  27.612  0.00  0.00    +0.078 A 
ATOM     15  C   UNL     1      17.094  -6.299  26.196  0.00  0.00    +0.017 A 
ATOM     16  C   UNL     1      15.910  -8.839  26.497  0.00  0.00    +0.029 A 
ATOM     17  C   UNL     1      16.985  -7.170  25.110  0.00  0.00    +0.001 A 
ATOM     18  C   UNL     1      16.401  -8.424  25.256  0.00  0.00    +0.002 A 
ENDBRANCH   9  12
BRANCH   2   4
ATOM      4  C   UNL     1      12.247  -7.354  32.873  0.00  0.00    +0.057 C 
ATOM      5  C   UNL     1      11.449  -6.924  31.623  0.00  0.00    +0.019 C 
ATOM      6  C   UNL     1      11.900  -8.810  32.501  0.00  0.00    +0.019 C 
ATOM      8  C   UNL     1      10.667  -8.247  31.764  0.00  0.00    +0.003 C 
ENDBRANCH   2   4
TORSDOF 2
ENDMDL
