MODEL 1
REMARK VINA RESULT:      -3.6      0.000      0.000
REMARK  Name = 75536073
REMARK  6 active torsions:
REMARK  status: ('A' for Active; 'I' for Inactive)
REMARK    1  A    between atoms: O_1  and  C_8
REMARK    2  A    between atoms: O_2  and  C_10
REMARK    3  A    between atoms: N_4  and  C_7
REMARK    4  A    between atoms: C_6  and  C_11
REMARK    5  A    between atoms: C_14  and  C_15
REMARK    6  A    between atoms: C_18  and  C_21
REMARK                            x       y       z     vdW  Elec       q    Type
REMARK                         _______ _______ _______ _____ _____    ______ ____
ROOT
ATOM      6  C   UNL     1      14.536  -6.710  29.427  0.00  0.00    +0.046 C 
ATOM      7  C   UNL     1      14.342  -8.025  30.216  0.00  0.00    +0.112 C 
ATOM      8  C   UNL     1      14.809  -9.100  29.236  0.00  0.00    +0.164 C 
ATOM      9  C   UNL     1      15.604  -7.018  28.346  0.00  0.00    +0.044 C 
ATOM     10  C   UNL     1      16.032  -8.465  28.583  0.00  0.00    +0.145 C 
ENDROOT
BRANCH   6  11
ATOM      5  N   UNL     1      16.389  -3.738  30.884  0.00  0.00    -0.263 NA
ATOM     11  C   UNL     1      14.869  -5.529  30.315  0.00  0.00    -0.024 A 
ATOM     12  C   UNL     1      14.018  -5.144  31.345  0.00  0.00    +0.007 A 
ATOM     13  C   UNL     1      16.032  -4.800  30.127  0.00  0.00    +0.114 A 
ATOM     16  C   UNL     1      14.351  -4.056  32.144  0.00  0.00    +0.020 A 
ATOM     17  C   UNL     1      15.536  -3.393  31.875  0.00  0.00    +0.111 A 
ENDBRANCH   6  11
BRANCH   7   4
ATOM      3  O   UNL     1      13.414  -8.913  32.784  0.00  0.00    -0.270 OA
ATOM      4  N   UNL     1      12.972  -8.219  30.615  0.00  0.00    -0.305 N 
ATOM     14  C   UNL     1      12.617  -8.654  31.885  0.00  0.00    +0.245 C 
ATOM     24  H   UNL     1      12.238  -7.987  29.951  0.00  0.00    +0.149 HD
BRANCH  14  15
ATOM     15  C   UNL     1      11.163  -8.830  32.131  0.00  0.00    +0.040 A 
ATOM     18  C   UNL     1      10.378  -7.776  32.601  0.00  0.00    -0.038 A 
ATOM     19  C   UNL     1      10.585 -10.074  31.884  0.00  0.00    +0.013 A 
ATOM     20  C   UNL     1       9.015  -7.968  32.824  0.00  0.00    +0.004 A 
ATOM     21  C   UNL     1      10.972  -6.433  32.873  0.00  0.00    +0.044 C 
ATOM     22  C   UNL     1       9.221 -10.266  32.107  0.00  0.00    +0.001 A 
ATOM     23  C   UNL     1       8.436  -9.213  32.576  0.00  0.00    +0.000 A 
ENDBRANCH  14  15
ENDBRANCH   7   4
BRANCH   8   1
ATOM      1  O   UNL     1      15.147 -10.309  29.887  0.00  0.00    -0.387 OA
ATOM     25  H   UNL     1      14.863 -10.229  30.814  0.00  0.00    +0.210 HD
ENDBRANCH   8   1
BRANCH  10   2
ATOM      2  O   UNL     1      17.145  -8.473  29.471  0.00  0.00    -0.389 OA
ATOM     26  H   UNL     1      17.837  -9.025  29.067  0.00  0.00    +0.210 HD
ENDBRANCH  10   2
TORSDOF 5
ENDMDL
MODEL 2
REMARK VINA RESULT:      -3.1     18.537     20.355
REMARK  Name = 75536073
REMARK  6 active torsions:
REMARK  status: ('A' for Active; 'I' for Inactive)
REMARK    1  A    between atoms: O_1  and  C_8
REMARK    2  A    between atoms: O_2  and  C_10
REMARK    3  A    between atoms: N_4  and  C_7
REMARK    4  A    between atoms: C_6  and  C_11
REMARK    5  A    between atoms: C_14  and  C_15
REMARK    6  A    between atoms: C_18  and  C_21
REMARK                            x       y       z     vdW  Elec       q    Type
REMARK                         _______ _______ _______ _____ _____    ______ ____
ROOT
ATOM      6  C   UNL     1      -3.353   3.260  26.107  0.00  0.00    +0.046 C 
ATOM      7  C   UNL     1      -4.320   2.473  25.194  0.00  0.00    +0.112 C 
ATOM      8  C   UNL     1      -5.689   2.717  25.830  0.00  0.00    +0.164 C 
ATOM      9  C   UNL     1      -4.217   4.342  26.806  0.00  0.00    +0.044 C 
ATOM     10  C   UNL     1      -5.625   4.186  26.234  0.00  0.00    +0.145 C 
ENDROOT
BRANCH   6  11
ATOM      5  N   UNL     1      -0.152   3.376  24.075  0.00  0.00    -0.263 NA
ATOM     11  C   UNL     1      -2.150   3.805  25.366  0.00  0.00    -0.024 A 
ATOM     12  C   UNL     1      -1.919   5.173  25.284  0.00  0.00    +0.007 A 
ATOM     13  C   UNL     1      -1.245   2.955  24.750  0.00  0.00    +0.114 A 
ATOM     16  C   UNL     1      -0.805   5.644  24.597  0.00  0.00    +0.020 A 
ATOM     17  C   UNL     1       0.040   4.714  24.016  0.00  0.00    +0.111 A 
ENDBRANCH   6  11
BRANCH   7   4
ATOM      3  O   UNL     1      -3.198   1.058  22.962  0.00  0.00    -0.270 OA
ATOM      4  N   UNL     1      -3.994   1.071  25.141  0.00  0.00    -0.305 N 
ATOM     14  C   UNL     1      -3.452   0.472  24.012  0.00  0.00    +0.245 C 
ATOM     24  H   UNL     1      -4.128   0.512  25.979  0.00  0.00    +0.149 HD
BRANCH  14  15
ATOM     15  C   UNL     1      -3.196  -0.988  24.108  0.00  0.00    +0.040 A 
ATOM     18  C   UNL     1      -1.934  -1.479  24.445  0.00  0.00    -0.038 A 
ATOM     19  C   UNL     1      -4.244  -1.872  23.856  0.00  0.00    +0.013 A 
ATOM     20  C   UNL     1      -1.721  -2.854  24.529  0.00  0.00    +0.004 A 
ATOM     21  C   UNL     1      -0.794  -0.553  24.720  0.00  0.00    +0.044 C 
ATOM     22  C   UNL     1      -4.031  -3.249  23.940  0.00  0.00    +0.001 A 
ATOM     23  C   UNL     1      -2.770  -3.739  24.276  0.00  0.00    +0.000 A 
ENDBRANCH  14  15
ENDBRANCH   7   4
BRANCH   8   1
ATOM      1  O   UNL     1      -6.750   2.481  24.925  0.00  0.00    -0.387 OA
ATOM     25  H   UNL     1      -7.236   3.318  24.822  0.00  0.00    +0.210 HD
ENDBRANCH   8   1
BRANCH  10   2
ATOM      2  O   UNL     1      -5.752   5.034  25.097  0.00  0.00    -0.389 OA
ATOM     26  H   UNL     1      -5.364   5.895  25.330  0.00  0.00    +0.210 HD
ENDBRANCH  10   2
TORSDOF 5
ENDMDL
MODEL 3
REMARK VINA RESULT:      -3.0     15.980     17.753
REMARK  Name = 75536073
REMARK  6 active torsions:
REMARK  status: ('A' for Active; 'I' for Inactive)
REMARK    1  A    between atoms: O_1  and  C_8
REMARK    2  A    between atoms: O_2  and  C_10
REMARK    3  A    between atoms: N_4  and  C_7
REMARK    4  A    between atoms: C_6  and  C_11
REMARK    5  A    between atoms: C_14  and  C_15
REMARK    6  A    between atoms: C_18  and  C_21
REMARK                            x       y       z     vdW  Elec       q    Type
REMARK                         _______ _______ _______ _____ _____    ______ ____
ROOT
ATOM      6  C   UNL     1      -1.475   0.104  25.572  0.00  0.00    +0.046 C 
ATOM      7  C   UNL     1      -0.869  -0.666  24.377  0.00  0.00    +0.112 C 
ATOM      8  C   UNL     1      -1.368  -2.096  24.584  0.00  0.00    +0.164 C 
ATOM      9  C   UNL     1      -2.705  -0.723  26.027  0.00  0.00    +0.044 C 
ATOM     10  C   UNL     1      -2.805  -1.895  25.053  0.00  0.00    +0.145 C 
ENDROOT
BRANCH   6  11
ATOM      5  N   UNL     1      -3.263   3.176  24.246  0.00  0.00    -0.263 NA
ATOM     11  C   UNL     1      -1.780   1.552  25.250  0.00  0.00    -0.024 A 
ATOM     12  C   UNL     1      -0.913   2.569  25.633  0.00  0.00    +0.007 A 
ATOM     13  C   UNL     1      -2.932   1.904  24.565  0.00  0.00    +0.114 A 
ATOM     16  C   UNL     1      -1.220   3.890  25.323  0.00  0.00    +0.020 A 
ATOM     17  C   UNL     1      -2.395   4.138  24.635  0.00  0.00    +0.111 A 
ENDBRANCH   6  11
BRANCH   7   4
ATOM      3  O   UNL     1       0.807  -0.322  22.070  0.00  0.00    -0.270 OA
ATOM      4  N   UNL     1       0.570  -0.595  24.362  0.00  0.00    -0.305 N 
ATOM     14  C   UNL     1       1.298  -0.427  23.192  0.00  0.00    +0.245 C 
ATOM     24  H   UNL     1       1.064  -0.629  25.249  0.00  0.00    +0.149 HD
BRANCH  14  15
ATOM     15  C   UNL     1       2.775  -0.400  23.342  0.00  0.00    +0.040 A 
ATOM     18  C   UNL     1       3.504   0.767  23.110  0.00  0.00    -0.038 A 
ATOM     19  C   UNL     1       3.434  -1.569  23.721  0.00  0.00    +0.013 A 
ATOM     20  C   UNL     1       4.890   0.765  23.259  0.00  0.00    +0.004 A 
ATOM     21  C   UNL     1       2.823   2.033  22.703  0.00  0.00    +0.044 C 
ATOM     22  C   UNL     1       4.821  -1.571  23.869  0.00  0.00    +0.001 A 
ATOM     23  C   UNL     1       5.549  -0.404  23.638  0.00  0.00    +0.000 A 
ENDBRANCH  14  15
ENDBRANCH   7   4
BRANCH   8   1
ATOM      1  O   UNL     1      -1.321  -2.858  23.393  0.00  0.00    -0.387 OA
ATOM     25  H   UNL     1      -1.929  -2.444  22.758  0.00  0.00    +0.210 HD
ENDBRANCH   8   1
BRANCH  10   2
ATOM      2  O   UNL     1      -3.648  -1.519  23.969  0.00  0.00    -0.389 OA
ATOM     26  H   UNL     1      -3.348  -2.009  23.184  0.00  0.00    +0.210 HD
ENDBRANCH  10   2
TORSDOF 5
ENDMDL
MODEL 4
REMARK VINA RESULT:      -2.5     17.208     19.369
REMARK  Name = 75536073
REMARK  6 active torsions:
REMARK  status: ('A' for Active; 'I' for Inactive)
REMARK    1  A    between atoms: O_1  and  C_8
REMARK    2  A    between atoms: O_2  and  C_10
REMARK    3  A    between atoms: N_4  and  C_7
REMARK    4  A    between atoms: C_6  and  C_11
REMARK    5  A    between atoms: C_14  and  C_15
REMARK    6  A    between atoms: C_18  and  C_21
REMARK                            x       y       z     vdW  Elec       q    Type
REMARK                         _______ _______ _______ _____ _____    ______ ____
ROOT
ATOM      6  C   UNL     1      -3.063   1.528  23.755  0.00  0.00    +0.046 C 
ATOM      7  C   UNL     1      -1.869   2.199  24.471  0.00  0.00    +0.112 C 
ATOM      8  C   UNL     1      -2.227   3.685  24.443  0.00  0.00    +0.164 C 
ATOM      9  C   UNL     1      -4.250   2.517  23.894  0.00  0.00    +0.044 C 
ATOM     10  C   UNL     1      -3.725   3.684  24.727  0.00  0.00    +0.145 C 
ENDROOT
BRANCH   6  11
ATOM      5  N   UNL     1      -3.410  -1.416  26.123  0.00  0.00    -0.263 NA
ATOM     11  C   UNL     1      -3.352   0.132  24.267  0.00  0.00    -0.024 A 
ATOM     12  C   UNL     1      -3.803  -0.866  23.411  0.00  0.00    +0.007 A 
ATOM     13  C   UNL     1      -3.173  -0.191  25.603  0.00  0.00    +0.114 A 
ATOM     16  C   UNL     1      -4.059  -2.139  23.910  0.00  0.00    +0.020 A 
ATOM     17  C   UNL     1      -3.849  -2.360  25.260  0.00  0.00    +0.111 A 
ENDBRANCH   6  11
BRANCH   7   4
ATOM      3  O   UNL     1      -0.156  -0.070  24.875  0.00  0.00    -0.270 OA
ATOM      4  N   UNL     1      -0.621   1.934  23.803  0.00  0.00    -0.305 N 
ATOM     14  C   UNL     1       0.143   0.805  24.066  0.00  0.00    +0.245 C 
ATOM     24  H   UNL     1      -0.312   2.581  23.082  0.00  0.00    +0.149 HD
BRANCH  14  15
ATOM     15  C   UNL     1       1.418   0.691  23.312  0.00  0.00    +0.040 A 
ATOM     18  C   UNL     1       1.519  -0.122  22.182  0.00  0.00    -0.038 A 
ATOM     19  C   UNL     1       2.526   1.413  23.753  0.00  0.00    +0.013 A 
ATOM     20  C   UNL     1       2.727  -0.211  21.493  0.00  0.00    +0.004 A 
ATOM     21  C   UNL     1       0.347  -0.906  21.689  0.00  0.00    +0.044 C 
ATOM     22  C   UNL     1       3.736   1.324  23.063  0.00  0.00    +0.001 A 
ATOM     23  C   UNL     1       3.836   0.512  21.934  0.00  0.00    +0.000 A 
ENDBRANCH  14  15
ENDBRANCH   7   4
BRANCH   8   1
ATOM      1  O   UNL     1      -1.521   4.425  25.421  0.00  0.00    -0.387 OA
ATOM     25  H   UNL     1      -1.591   3.939  26.260  0.00  0.00    +0.210 HD
ENDBRANCH   8   1
BRANCH  10   2
ATOM      2  O   UNL     1      -3.983   3.417  26.102  0.00  0.00    -0.389 OA
ATOM     26  H   UNL     1      -4.016   2.451  26.210  0.00  0.00    +0.210 HD
ENDBRANCH  10   2
TORSDOF 5
ENDMDL
MODEL 5
REMARK VINA RESULT:      -1.2     16.192     18.179
REMARK  Name = 75536073
REMARK  6 active torsions:
REMARK  status: ('A' for Active; 'I' for Inactive)
REMARK    1  A    between atoms: O_1  and  C_8
REMARK    2  A    between atoms: O_2  and  C_10
REMARK    3  A    between atoms: N_4  and  C_7
REMARK    4  A    between atoms: C_6  and  C_11
REMARK    5  A    between atoms: C_14  and  C_15
REMARK    6  A    between atoms: C_18  and  C_21
REMARK                            x       y       z     vdW  Elec       q    Type
REMARK                         _______ _______ _______ _____ _____    ______ ____
ROOT
ATOM      6  C   UNL     1      -1.481   0.807  23.438  0.00  0.00    +0.046 C 
ATOM      7  C   UNL     1      -0.576   1.487  24.491  0.00  0.00    +0.112 C 
ATOM      8  C   UNL     1      -0.696   2.973  24.158  0.00  0.00    +0.164 C 
ATOM      9  C   UNL     1      -2.487   1.895  22.981  0.00  0.00    +0.044 C 
ATOM     10  C   UNL     1      -2.174   3.133  23.819  0.00  0.00    +0.145 C 
ENDROOT
BRANCH   6  11
ATOM      5  N   UNL     1      -1.868  -2.673  24.896  0.00  0.00    -0.263 NA
ATOM     11  C   UNL     1      -2.125  -0.466  23.944  0.00  0.00    -0.024 A 
ATOM     12  C   UNL     1      -3.506  -0.623  23.933  0.00  0.00    +0.007 A 
ATOM     13  C   UNL     1      -1.357  -1.511  24.431  0.00  0.00    +0.114 A 
ATOM     16  C   UNL     1      -4.070  -1.805  24.403  0.00  0.00    +0.020 A 
ATOM     17  C   UNL     1      -3.216  -2.790  24.870  0.00  0.00    +0.111 A 
ENDBRANCH   6  11
BRANCH   7   4
ATOM      3  O   UNL     1       0.679   0.233  22.233  0.00  0.00    -0.270 OA
ATOM      4  N   UNL     1       0.787   1.026  24.410  0.00  0.00    -0.305 N 
ATOM     14  C   UNL     1       1.307   0.428  23.270  0.00  0.00    +0.245 C 
ATOM     24  H   UNL     1       1.398   1.185  25.207  0.00  0.00    +0.149 HD
BRANCH  14  15
ATOM     15  C   UNL     1       2.722  -0.016  23.356  0.00  0.00    +0.040 A 
ATOM     18  C   UNL     1       3.769   0.834  22.995  0.00  0.00    -0.038 A 
ATOM     19  C   UNL     1       2.996  -1.307  23.807  0.00  0.00    +0.013 A 
ATOM     20  C   UNL     1       5.088   0.392  23.086  0.00  0.00    +0.004 A 
ATOM     21  C   UNL     1       3.504   2.221  22.510  0.00  0.00    +0.044 C 
ATOM     22  C   UNL     1       4.316  -1.749  23.897  0.00  0.00    +0.001 A 
ATOM     23  C   UNL     1       5.362  -0.900  23.537  0.00  0.00    +0.000 A 
ENDBRANCH  14  15
ENDBRANCH   7   4
BRANCH   8   1
ATOM      1  O   UNL     1      -0.329   3.798  25.247  0.00  0.00    -0.387 OA
ATOM     25  H   UNL     1       0.619   3.656  25.413  0.00  0.00    +0.210 HD
ENDBRANCH   8   1
BRANCH  10   2
ATOM      2  O   UNL     1      -2.973   3.102  24.997  0.00  0.00    -0.389 OA
ATOM     26  H   UNL     1      -3.217   2.174  25.159  0.00  0.00    +0.210 HD
ENDBRANCH  10   2
TORSDOF 5
ENDMDL
MODEL 6
REMARK VINA RESULT:      -0.6     16.819     18.848
REMARK  Name = 75536073
REMARK  6 active torsions:
REMARK  status: ('A' for Active; 'I' for Inactive)
REMARK    1  A    between atoms: O_1  and  C_8
REMARK    2  A    between atoms: O_2  and  C_10
REMARK    3  A    between atoms: N_4  and  C_7
REMARK    4  A    between atoms: C_6  and  C_11
REMARK    5  A    between atoms: C_14  and  C_15
REMARK    6  A    between atoms: C_18  and  C_21
REMARK                            x       y       z     vdW  Elec       q    Type
REMARK                         _______ _______ _______ _____ _____    ______ ____
ROOT
ATOM      6  C   UNL     1      -2.777  -0.213  25.341  0.00  0.00    +0.046 C 
ATOM      7  C   UNL     1      -2.294  -0.879  24.033  0.00  0.00    +0.112 C 
ATOM      8  C   UNL     1      -2.196  -2.359  24.401  0.00  0.00    +0.164 C 
ATOM      9  C   UNL     1      -3.476  -1.335  26.153  0.00  0.00    +0.044 C 
ATOM     10  C   UNL     1      -3.428  -2.581  25.271  0.00  0.00    +0.145 C 
ENDROOT
BRANCH   6  11
ATOM      5  N   UNL     1      -3.773   3.364  24.565  0.00  0.00    -0.263 NA
ATOM     11  C   UNL     1      -3.636   1.011  25.101  0.00  0.00    -0.024 A 
ATOM     12  C   UNL     1      -5.022   0.942  25.187  0.00  0.00    +0.007 A 
ATOM     13  C   UNL     1      -3.065   2.234  24.789  0.00  0.00    +0.114 A 
ATOM     16  C   UNL     1      -5.784   2.083  24.962  0.00  0.00    +0.020 A 
ATOM     17  C   UNL     1      -5.118   3.258  24.657  0.00  0.00    +0.111 A 
ENDBRANCH   6  11
BRANCH   7   4
ATOM      3  O   UNL     1       0.300  -1.551  25.067  0.00  0.00    -0.270 OA
ATOM      4  N   UNL     1      -1.029  -0.349  23.592  0.00  0.00    -0.305 N 
ATOM     14  C   UNL     1       0.180  -0.735  24.155  0.00  0.00    +0.245 C 
ATOM     24  H   UNL     1      -1.023   0.300  22.810  0.00  0.00    +0.149 HD
BRANCH  14  15
ATOM     15  C   UNL     1       1.393  -0.077  23.607  0.00  0.00    +0.040 A 
ATOM     18  C   UNL     1       1.556   1.307  23.672  0.00  0.00    -0.038 A 
ATOM     19  C   UNL     1       2.380  -0.868  23.019  0.00  0.00    +0.013 A 
ATOM     20  C   UNL     1       2.705   1.900  23.150  0.00  0.00    +0.004 A 
ATOM     21  C   UNL     1       0.514   2.178  24.297  0.00  0.00    +0.044 C 
ATOM     22  C   UNL     1       3.530  -0.274  22.497  0.00  0.00    +0.001 A 
ATOM     23  C   UNL     1       3.692   1.109  22.563  0.00  0.00    +0.000 A 
ENDBRANCH  14  15
ENDBRANCH   7   4
BRANCH   8   1
ATOM      1  O   UNL     1      -2.216  -3.198  23.262  0.00  0.00    -0.387 OA
ATOM     25  H   UNL     1      -2.283  -2.624  22.480  0.00  0.00    +0.210 HD
ENDBRANCH   8   1
BRANCH  10   2
ATOM      2  O   UNL     1      -4.610  -2.625  24.478  0.00  0.00    -0.389 OA
ATOM     26  H   UNL     1      -5.338  -2.276  25.021  0.00  0.00    +0.210 HD
ENDBRANCH  10   2
TORSDOF 5
ENDMDL
MODEL 7
REMARK VINA RESULT:       0.0     17.977     19.821
REMARK  Name = 75536073
REMARK  6 active torsions:
REMARK  status: ('A' for Active; 'I' for Inactive)
REMARK    1  A    between atoms: O_1  and  C_8
REMARK    2  A    between atoms: O_2  and  C_10
REMARK    3  A    between atoms: N_4  and  C_7
REMARK    4  A    between atoms: C_6  and  C_11
REMARK    5  A    between atoms: C_14  and  C_15
REMARK    6  A    between atoms: C_18  and  C_21
REMARK                            x       y       z     vdW  Elec       q    Type
REMARK                         _______ _______ _______ _____ _____    ______ ____
ROOT
ATOM      6  C   UNL     1      -2.617   2.970  23.994  0.00  0.00    +0.046 C 
ATOM      7  C   UNL     1      -1.757   1.959  24.786  0.00  0.00    +0.112 C 
ATOM      8  C   UNL     1      -0.325   2.417  24.510  0.00  0.00    +0.164 C 
ATOM      9  C   UNL     1      -1.734   4.233  23.822  0.00  0.00    +0.044 C 
ATOM     10  C   UNL     1      -0.432   3.937  24.564  0.00  0.00    +0.145 C 
ENDROOT
BRANCH   6  11
ATOM      5  N   UNL     1      -5.397   4.721  25.891  0.00  0.00    -0.263 NA
ATOM     11  C   UNL     1      -3.963   3.233  24.636  0.00  0.00    -0.024 A 
ATOM     12  C   UNL     1      -4.980   2.287  24.580  0.00  0.00    +0.007 A 
ATOM     13  C   UNL     1      -4.220   4.424  25.297  0.00  0.00    +0.114 A 
ATOM     16  C   UNL     1      -6.206   2.557  25.179  0.00  0.00    +0.020 A 
ATOM     17  C   UNL     1      -6.363   3.776  25.816  0.00  0.00    +0.111 A 
ENDBRANCH   6  11
BRANCH   7   4
ATOM      3  O   UNL     1      -3.482   0.027  26.026  0.00  0.00    -0.270 OA
ATOM      4  N   UNL     1      -1.981   0.604  24.353  0.00  0.00    -0.305 N 
ATOM     14  C   UNL     1      -2.838  -0.262  25.020  0.00  0.00    +0.245 C 
ATOM     24  H   UNL     1      -1.525   0.287  23.502  0.00  0.00    +0.149 HD
BRANCH  14  15
ATOM     15  C   UNL     1      -2.940  -1.635  24.463  0.00  0.00    +0.040 A 
ATOM     18  C   UNL     1      -1.838  -2.490  24.444  0.00  0.00    -0.038 A 
ATOM     19  C   UNL     1      -4.164  -2.065  23.953  0.00  0.00    +0.013 A 
ATOM     20  C   UNL     1      -1.960  -3.775  23.916  0.00  0.00    +0.004 A 
ATOM     21  C   UNL     1      -0.514  -2.056  24.985  0.00  0.00    +0.044 C 
ATOM     22  C   UNL     1      -4.287  -3.350  23.424  0.00  0.00    +0.001 A 
ATOM     23  C   UNL     1      -3.186  -4.205  23.405  0.00  0.00    +0.000 A 
ENDBRANCH  14  15
ENDBRANCH   7   4
BRANCH   8   1
ATOM      1  O   UNL     1       0.588   1.933  25.477  0.00  0.00    -0.387 OA
ATOM     25  H   UNL     1       1.091   1.210  25.065  0.00  0.00    +0.210 HD
ENDBRANCH   8   1
BRANCH  10   2
ATOM      2  O   UNL     1      -0.558   4.392  25.907  0.00  0.00    -0.389 OA
ATOM     26  H   UNL     1      -0.336   5.339  25.916  0.00  0.00    +0.210 HD
ENDBRANCH  10   2
TORSDOF 5
ENDMDL
MODEL 8
REMARK VINA RESULT:       0.3     17.399     19.079
REMARK  Name = 75536073
REMARK  6 active torsions:
REMARK  status: ('A' for Active; 'I' for Inactive)
REMARK    1  A    between atoms: O_1  and  C_8
REMARK    2  A    between atoms: O_2  and  C_10
REMARK    3  A    between atoms: N_4  and  C_7
REMARK    4  A    between atoms: C_6  and  C_11
REMARK    5  A    between atoms: C_14  and  C_15
REMARK    6  A    between atoms: C_18  and  C_21
REMARK                            x       y       z     vdW  Elec       q    Type
REMARK                         _______ _______ _______ _____ _____    ______ ____
ROOT
ATOM      6  C   UNL     1      -1.404  -0.652  23.808  0.00  0.00    +0.046 C 
ATOM      7  C   UNL     1      -1.902  -0.587  25.270  0.00  0.00    +0.112 C 
ATOM      8  C   UNL     1      -2.700  -1.881  25.433  0.00  0.00    +0.164 C 
ATOM      9  C   UNL     1      -1.417  -2.155  23.424  0.00  0.00    +0.044 C 
ATOM     10  C   UNL     1      -1.857  -2.904  24.680  0.00  0.00    +0.145 C 
ENDROOT
BRANCH   6  11
ATOM      5  N   UNL     1       1.359   1.937  24.026  0.00  0.00    -0.263 NA
ATOM     11  C   UNL     1      -0.069   0.032  23.606  0.00  0.00    -0.024 A 
ATOM     12  C   UNL     1       0.934  -0.563  22.850  0.00  0.00    +0.007 A 
ATOM     13  C   UNL     1       0.191   1.272  24.168  0.00  0.00    +0.114 A 
ATOM     16  C   UNL     1       2.150   0.091  22.681  0.00  0.00    +0.020 A 
ATOM     17  C   UNL     1       2.311   1.327  23.283  0.00  0.00    +0.111 A 
ENDBRANCH   6  11
BRANCH   7   4
ATOM      3  O   UNL     1      -3.973   0.448  23.572  0.00  0.00    -0.270 OA
ATOM      4  N   UNL     1      -2.712   0.579  25.514  0.00  0.00    -0.305 N 
ATOM     14  C   UNL     1      -3.694   1.005  24.631  0.00  0.00    +0.245 C 
ATOM     24  H   UNL     1      -2.584   1.081  26.388  0.00  0.00    +0.149 HD
BRANCH  14  15
ATOM     15  C   UNL     1      -4.424   2.241  25.014  0.00  0.00    +0.040 A 
ATOM     18  C   UNL     1      -3.790   3.484  25.010  0.00  0.00    -0.038 A 
ATOM     19  C   UNL     1      -5.765   2.143  25.383  0.00  0.00    +0.013 A 
ATOM     20  C   UNL     1      -4.498   4.629  25.374  0.00  0.00    +0.004 A 
ATOM     21  C   UNL     1      -2.354   3.617  24.618  0.00  0.00    +0.044 C 
ATOM     22  C   UNL     1      -6.473   3.289  25.748  0.00  0.00    +0.001 A 
ATOM     23  C   UNL     1      -5.840   4.531  25.743  0.00  0.00    +0.000 A 
ENDBRANCH  14  15
ENDBRANCH   7   4
BRANCH   8   1
ATOM      1  O   UNL     1      -2.858  -2.246  26.790  0.00  0.00    -0.387 OA
ATOM     25  H   UNL     1      -3.768  -2.572  26.900  0.00  0.00    +0.210 HD
ENDBRANCH   8   1
BRANCH  10   2
ATOM      2  O   UNL     1      -0.699  -3.260  25.429  0.00  0.00    -0.389 OA
ATOM     26  H   UNL     1      -0.634  -2.641  26.177  0.00  0.00    +0.210 HD
ENDBRANCH  10   2
TORSDOF 5
ENDMDL
MODEL 9
REMARK VINA RESULT:       0.4     18.379     20.232
REMARK  Name = 75536073
REMARK  6 active torsions:
REMARK  status: ('A' for Active; 'I' for Inactive)
REMARK    1  A    between atoms: O_1  and  C_8
REMARK    2  A    between atoms: O_2  and  C_10
REMARK    3  A    between atoms: N_4  and  C_7
REMARK    4  A    between atoms: C_6  and  C_11
REMARK    5  A    between atoms: C_14  and  C_15
REMARK    6  A    between atoms: C_18  and  C_21
REMARK                            x       y       z     vdW  Elec       q    Type
REMARK                         _______ _______ _______ _____ _____    ______ ____
ROOT
ATOM      6  C   UNL     1      -3.399   2.844  25.928  0.00  0.00    +0.046 C 
ATOM      7  C   UNL     1      -4.144   2.115  24.787  0.00  0.00    +0.112 C 
ATOM      8  C   UNL     1      -5.544   1.897  25.358  0.00  0.00    +0.164 C 
ATOM      9  C   UNL     1      -4.500   3.510  26.793  0.00  0.00    +0.044 C 
ATOM     10  C   UNL     1      -5.823   3.200  26.097  0.00  0.00    +0.145 C 
ENDROOT
BRANCH   6  11
ATOM      5  N   UNL     1      -1.634   6.074  25.010  0.00  0.00    -0.263 NA
ATOM     11  C   UNL     1      -2.335   3.798  25.428  0.00  0.00    -0.024 A 
ATOM     12  C   UNL     1      -1.123   3.327  24.937  0.00  0.00    +0.007 A 
ATOM     13  C   UNL     1      -2.541   5.169  25.443  0.00  0.00    +0.114 A 
ATOM     16  C   UNL     1      -0.165   4.228  24.483  0.00  0.00    +0.020 A 
ATOM     17  C   UNL     1      -0.467   5.578  24.540  0.00  0.00    +0.111 A 
ENDBRANCH   6  11
BRANCH   7   4
ATOM      3  O   UNL     1      -4.083  -0.288  26.357  0.00  0.00    -0.270 OA
ATOM      4  N   UNL     1      -3.507   0.872  24.433  0.00  0.00    -0.305 N 
ATOM     14  C   UNL     1      -3.530  -0.242  25.261  0.00  0.00    +0.245 C 
ATOM     24  H   UNL     1      -3.060   0.801  23.523  0.00  0.00    +0.149 HD
BRANCH  14  15
ATOM     15  C   UNL     1      -2.804  -1.438  24.764  0.00  0.00    +0.040 A 
ATOM     18  C   UNL     1      -3.461  -2.429  24.033  0.00  0.00    -0.038 A 
ATOM     19  C   UNL     1      -1.443  -1.562  25.039  0.00  0.00    +0.013 A 
ATOM     20  C   UNL     1      -2.755  -3.543  23.577  0.00  0.00    +0.004 A 
ATOM     21  C   UNL     1      -4.919  -2.322  23.724  0.00  0.00    +0.044 C 
ATOM     22  C   UNL     1      -0.737  -2.676  24.583  0.00  0.00    +0.001 A 
ATOM     23  C   UNL     1      -1.393  -3.666  23.853  0.00  0.00    +0.000 A 
ENDBRANCH  14  15
ENDBRANCH   7   4
BRANCH   8   1
ATOM      1  O   UNL     1      -6.506   1.666  24.347  0.00  0.00    -0.387 OA
ATOM     25  H   UNL     1      -6.601   0.703  24.250  0.00  0.00    +0.210 HD
ENDBRANCH   8   1
BRANCH  10   2
ATOM      2  O   UNL     1      -6.116   4.252  25.183  0.00  0.00    -0.389 OA
ATOM     26  H   UNL     1      -6.353   3.842  24.333  0.00  0.00    +0.210 HD
ENDBRANCH  10   2
TORSDOF 5
ENDMDL
