MODEL 1
REMARK VINA RESULT:      -2.5      0.000      0.000
REMARK  Name = 45783785
REMARK  7 active torsions:
REMARK  status: ('A' for Active; 'I' for Inactive)
REMARK    1  A    between atoms: N_5  and  C_14
REMARK    2  A    between atoms: N_9  and  C_28
REMARK    3  A    between atoms: N_9  and  C_29
REMARK    4  A    between atoms: C_10  and  C_15
REMARK    5  A    between atoms: C_14  and  C_16
REMARK    6  A    between atoms: C_19  and  C_23
REMARK    7  A    between atoms: C_22  and  C_24
REMARK                            x       y       z     vdW  Elec       q    Type
REMARK                         _______ _______ _______ _____ _____    ______ ____
ROOT
ATOM      5  N   UNL     1      -5.338   2.433  25.446  0.00  0.00    -0.287 NA
ATOM     10  C   UNL     1      -4.478   3.070  24.429  0.00  0.00    +0.146 C 
ATOM     11  C   UNL     1      -4.727   4.580  24.597  0.00  0.00    +0.030 C 
ATOM     12  C   UNL     1      -5.783   4.691  25.686  0.00  0.00    +0.017 C 
ATOM     13  C   UNL     1      -6.467   3.339  25.659  0.00  0.00    +0.085 C 
ENDROOT
BRANCH  10  15
ATOM      4  O   UNL     1      -2.426   3.044  25.757  0.00  0.00    -0.336 OA
ATOM      6  N   UNL     1      -2.225   2.082  23.744  0.00  0.00    -0.190 NA
ATOM      7  N   UNL     1      -1.100   2.603  25.666  0.00  0.00    -0.056 NA
ATOM     15  C   UNL     1      -3.019   2.697  24.584  0.00  0.00    +0.245 A 
ATOM     19  C   UNL     1      -1.059   2.047  24.452  0.00  0.00    +0.204 A 
BRANCH  19  23
ATOM      8  N   UNL     1       2.514   1.567  23.542  0.00  0.00    -0.240 NA
ATOM     23  C   UNL     1       0.128   1.446  23.917  0.00  0.00    +0.041 A 
ATOM     25  C   UNL     1       0.082   0.215  23.273  0.00  0.00    +0.016 A 
ATOM     26  C   UNL     1       1.358   2.077  24.024  0.00  0.00    +0.124 A 
ATOM     27  C   UNL     1       1.250  -0.341  22.764  0.00  0.00    +0.044 A 
ATOM     28  C   UNL     1       2.430   0.369  22.923  0.00  0.00    +0.118 A 
BRANCH  28   9
ATOM      9  N   UNL     1       3.612  -0.212  22.400  0.00  0.00    -0.332 N 
ATOM     29  C   UNL     1       4.905   0.053  22.940  0.00  0.00    +0.127 C 
ATOM     30  H   UNL     1       3.548  -0.645  21.484  0.00  0.00    +0.147 HD
ENDBRANCH  28   9
ENDBRANCH  19  23
ENDBRANCH  10  15
BRANCH   5  14
ATOM     14  C   UNL     1      -5.773   1.093  25.074  0.00  0.00    +0.120 C 
BRANCH  14  16
ATOM     16  C   UNL     1      -4.620   0.127  25.008  0.00  0.00    -0.033 A 
ATOM     17  C   UNL     1      -4.387  -0.601  23.841  0.00  0.00    +0.005 A 
ATOM     18  C   UNL     1      -3.786  -0.040  26.112  0.00  0.00    +0.005 A 
ATOM     20  C   UNL     1      -3.318  -1.495  23.779  0.00  0.00    +0.012 A 
ATOM     21  C   UNL     1      -2.717  -0.935  26.051  0.00  0.00    +0.012 A 
ATOM     22  C   UNL     1      -2.483  -1.662  24.884  0.00  0.00    +0.055 A 
BRANCH  22  24
ATOM      1  F   UNL     1      -0.186  -2.128  25.362  0.00  0.00    -0.166 F 
ATOM      2  F   UNL     1      -1.019  -2.963  23.535  0.00  0.00    -0.166 F 
ATOM      3  F   UNL     1      -1.569  -3.794  25.468  0.00  0.00    -0.166 F 
ATOM     24  C   UNL     1      -1.339  -2.616  24.817  0.00  0.00    +0.417 C 
ENDBRANCH  22  24
ENDBRANCH  14  16
ENDBRANCH   5  14
TORSDOF 6
ENDMDL
MODEL 2
REMARK VINA RESULT:      -0.6      1.659      2.194
REMARK  Name = 45783785
REMARK  7 active torsions:
REMARK  status: ('A' for Active; 'I' for Inactive)
REMARK    1  A    between atoms: N_5  and  C_14
REMARK    2  A    between atoms: N_9  and  C_28
REMARK    3  A    between atoms: N_9  and  C_29
REMARK    4  A    between atoms: C_10  and  C_15
REMARK    5  A    between atoms: C_14  and  C_16
REMARK    6  A    between atoms: C_19  and  C_23
REMARK    7  A    between atoms: C_22  and  C_24
REMARK                            x       y       z     vdW  Elec       q    Type
REMARK                         _______ _______ _______ _____ _____    ______ ____
ROOT
ATOM      5  N   UNL     1      -3.423   3.281  25.598  0.00  0.00    -0.287 NA
ATOM     10  C   UNL     1      -2.788   3.702  24.333  0.00  0.00    +0.146 C 
ATOM     11  C   UNL     1      -2.105   5.041  24.667  0.00  0.00    +0.030 C 
ATOM     12  C   UNL     1      -2.460   5.320  26.120  0.00  0.00    +0.017 C 
ATOM     13  C   UNL     1      -3.720   4.507  26.340  0.00  0.00    +0.085 C 
ENDROOT
BRANCH  10  15
ATOM      4  O   UNL     1      -2.295   1.843  22.827  0.00  0.00    -0.336 OA
ATOM      6  N   UNL     1      -0.575   2.446  24.128  0.00  0.00    -0.190 NA
ATOM      7  N   UNL     1      -1.236   0.988  22.494  0.00  0.00    -0.056 NA
ATOM     15  C   UNL     1      -1.821   2.670  23.795  0.00  0.00    +0.245 A 
ATOM     19  C   UNL     1      -0.259   1.406  23.303  0.00  0.00    +0.204 A 
BRANCH  19  23
ATOM      8  N   UNL     1       2.407  -1.174  23.562  0.00  0.00    -0.240 NA
ATOM     23  C   UNL     1       1.045   0.809  23.312  0.00  0.00    +0.041 A 
ATOM     25  C   UNL     1       2.187   1.573  23.093  0.00  0.00    +0.016 A 
ATOM     26  C   UNL     1       1.207  -0.549  23.540  0.00  0.00    +0.124 A 
ATOM     27  C   UNL     1       3.437   0.965  23.108  0.00  0.00    +0.044 A 
ATOM     28  C   UNL     1       3.492  -0.399  23.345  0.00  0.00    +0.118 A 
BRANCH  28   9
ATOM      9  N   UNL     1       4.773  -1.005  23.356  0.00  0.00    -0.332 N 
ATOM     29  C   UNL     1       5.937  -0.336  23.837  0.00  0.00    +0.127 C 
ATOM     30  H   UNL     1       4.892  -1.846  22.802  0.00  0.00    +0.147 HD
ENDBRANCH  28   9
ENDBRANCH  19  23
ENDBRANCH  10  15
BRANCH   5  14
ATOM     14  C   UNL     1      -4.610   2.459  25.399  0.00  0.00    +0.120 C 
BRANCH  14  16
ATOM     16  C   UNL     1      -4.259   1.014  25.165  0.00  0.00    -0.033 A 
ATOM     17  C   UNL     1      -4.992   0.258  24.250  0.00  0.00    +0.005 A 
ATOM     18  C   UNL     1      -3.201   0.432  25.862  0.00  0.00    +0.005 A 
ATOM     20  C   UNL     1      -4.666  -1.080  24.031  0.00  0.00    +0.012 A 
ATOM     21  C   UNL     1      -2.875  -0.908  25.644  0.00  0.00    +0.012 A 
ATOM     22  C   UNL     1      -3.608  -1.663  24.728  0.00  0.00    +0.055 A 
BRANCH  22  24
ATOM      1  F   UNL     1      -3.323  -3.866  25.618  0.00  0.00    -0.166 F 
ATOM      2  F   UNL     1      -1.989  -3.252  24.014  0.00  0.00    -0.166 F 
ATOM      3  F   UNL     1      -4.071  -3.715  23.588  0.00  0.00    -0.166 F 
ATOM     24  C   UNL     1      -3.258  -3.093  24.493  0.00  0.00    +0.417 C 
ENDBRANCH  22  24
ENDBRANCH  14  16
ENDBRANCH   5  14
TORSDOF 6
ENDMDL
MODEL 3
REMARK VINA RESULT:      -0.0      3.031      4.664
REMARK  Name = 45783785
REMARK  7 active torsions:
REMARK  status: ('A' for Active; 'I' for Inactive)
REMARK    1  A    between atoms: N_5  and  C_14
REMARK    2  A    between atoms: N_9  and  C_28
REMARK    3  A    between atoms: N_9  and  C_29
REMARK    4  A    between atoms: C_10  and  C_15
REMARK    5  A    between atoms: C_14  and  C_16
REMARK    6  A    between atoms: C_19  and  C_23
REMARK    7  A    between atoms: C_22  and  C_24
REMARK                            x       y       z     vdW  Elec       q    Type
REMARK                         _______ _______ _______ _____ _____    ______ ____
ROOT
ATOM      5  N   UNL     1      -4.372  -1.016  23.969  0.00  0.00    -0.287 NA
ATOM     10  C   UNL     1      -3.462  -1.429  25.055  0.00  0.00    +0.146 C 
ATOM     11  C   UNL     1      -3.339  -2.956  24.902  0.00  0.00    +0.030 C 
ATOM     12  C   UNL     1      -4.260  -3.316  23.745  0.00  0.00    +0.017 C 
ATOM     13  C   UNL     1      -5.241  -2.162  23.698  0.00  0.00    +0.085 C 
ENDROOT
BRANCH  10  15
ATOM      4  O   UNL     1      -1.910   0.253  25.910  0.00  0.00    -0.336 OA
ATOM      6  N   UNL     1      -1.122  -0.917  24.170  0.00  0.00    -0.190 NA
ATOM      7  N   UNL     1      -0.624   0.750  25.656  0.00  0.00    -0.056 NA
ATOM     15  C   UNL     1      -2.123  -0.725  24.992  0.00  0.00    +0.245 A 
ATOM     19  C   UNL     1      -0.226   0.010  24.617  0.00  0.00    +0.204 A 
BRANCH  19  23
ATOM      8  N   UNL     1       3.076  -0.846  23.136  0.00  0.00    -0.240 NA
ATOM     23  C   UNL     1       1.060   0.171  24.003  0.00  0.00    +0.041 A 
ATOM     25  C   UNL     1       1.550   1.432  23.681  0.00  0.00    +0.016 A 
ATOM     26  C   UNL     1       1.855  -0.927  23.713  0.00  0.00    +0.124 A 
ATOM     27  C   UNL     1       2.800   1.555  23.087  0.00  0.00    +0.044 A 
ATOM     28  C   UNL     1       3.517   0.396  22.837  0.00  0.00    +0.118 A 
BRANCH  28   9
ATOM      9  N   UNL     1       4.789   0.538  22.230  0.00  0.00    -0.332 N 
ATOM     29  C   UNL     1       5.989   0.056  22.833  0.00  0.00    +0.127 C 
ATOM     30  H   UNL     1       4.863   1.194  21.459  0.00  0.00    +0.147 HD
ENDBRANCH  28   9
ENDBRANCH  19  23
ENDBRANCH  10  15
BRANCH   5  14
ATOM     14  C   UNL     1      -5.133   0.186  24.283  0.00  0.00    +0.120 C 
BRANCH  14  16
ATOM     16  C   UNL     1      -4.247   1.398  24.395  0.00  0.00    -0.033 A 
ATOM     17  C   UNL     1      -3.336   1.692  23.381  0.00  0.00    +0.005 A 
ATOM     18  C   UNL     1      -4.338   2.227  25.513  0.00  0.00    +0.005 A 
ATOM     20  C   UNL     1      -2.516   2.816  23.484  0.00  0.00    +0.012 A 
ATOM     21  C   UNL     1      -3.517   3.350  25.618  0.00  0.00    +0.012 A 
ATOM     22  C   UNL     1      -2.606   3.645  24.602  0.00  0.00    +0.055 A 
BRANCH  22  24
ATOM      1  F   UNL     1      -0.418   4.596  24.435  0.00  0.00    -0.166 F 
ATOM      2  F   UNL     1      -1.743   5.393  25.963  0.00  0.00    -0.166 F 
ATOM      3  F   UNL     1      -2.085   5.861  23.867  0.00  0.00    -0.166 F 
ATOM     24  C   UNL     1      -1.731   4.847  24.712  0.00  0.00    +0.417 C 
ENDBRANCH  22  24
ENDBRANCH  14  16
ENDBRANCH   5  14
TORSDOF 6
ENDMDL
MODEL 4
REMARK VINA RESULT:       0.3      3.378      5.193
REMARK  Name = 45783785
REMARK  7 active torsions:
REMARK  status: ('A' for Active; 'I' for Inactive)
REMARK    1  A    between atoms: N_5  and  C_14
REMARK    2  A    between atoms: N_9  and  C_28
REMARK    3  A    between atoms: N_9  and  C_29
REMARK    4  A    between atoms: C_10  and  C_15
REMARK    5  A    between atoms: C_14  and  C_16
REMARK    6  A    between atoms: C_19  and  C_23
REMARK    7  A    between atoms: C_22  and  C_24
REMARK                            x       y       z     vdW  Elec       q    Type
REMARK                         _______ _______ _______ _____ _____    ______ ____
ROOT
ATOM      5  N   UNL     1      -3.364  -0.856  24.606  0.00  0.00    -0.287 NA
ATOM     10  C   UNL     1      -2.153  -1.699  24.635  0.00  0.00    +0.146 C 
ATOM     11  C   UNL     1      -2.533  -2.956  23.831  0.00  0.00    +0.030 C 
ATOM     12  C   UNL     1      -3.991  -2.756  23.443  0.00  0.00    +0.017 C 
ATOM     13  C   UNL     1      -4.501  -1.768  24.472  0.00  0.00    +0.085 C 
ENDROOT
BRANCH  10  15
ATOM      4  O   UNL     1      -1.175   0.062  23.252  0.00  0.00    -0.336 OA
ATOM      6  N   UNL     1       0.332  -1.248  24.266  0.00  0.00    -0.190 NA
ATOM      7  N   UNL     1       0.083   0.544  22.867  0.00  0.00    -0.056 NA
ATOM     15  C   UNL     1      -0.937  -0.992  24.076  0.00  0.00    +0.245 A 
ATOM     19  C   UNL     1       0.919  -0.280  23.505  0.00  0.00    +0.204 A 
BRANCH  19  23
ATOM      8  N   UNL     1       4.527  -1.153  23.730  0.00  0.00    -0.240 NA
ATOM     23  C   UNL     1       2.345  -0.162  23.404  0.00  0.00    +0.041 A 
ATOM     25  C   UNL     1       2.937   0.996  22.911  0.00  0.00    +0.016 A 
ATOM     26  C   UNL     1       3.176  -1.199  23.798  0.00  0.00    +0.124 A 
ATOM     27  C   UNL     1       4.322   1.080  22.826  0.00  0.00    +0.044 A 
ATOM     28  C   UNL     1       5.065  -0.012  23.245  0.00  0.00    +0.118 A 
BRANCH  28   9
ATOM      9  N   UNL     1       6.475   0.088  23.151  0.00  0.00    -0.332 N 
ATOM     29  C   UNL     1       7.295  -0.983  22.687  0.00  0.00    +0.127 C 
ATOM     30  H   UNL     1       6.917   0.861  23.638  0.00  0.00    +0.147 HD
ENDBRANCH  28   9
ENDBRANCH  19  23
ENDBRANCH  10  15
BRANCH   5  14
ATOM     14  C   UNL     1      -3.490   0.011  25.771  0.00  0.00    +0.120 C 
BRANCH  14  16
ATOM     16  C   UNL     1      -2.985   1.401  25.494  0.00  0.00    -0.033 A 
ATOM     17  C   UNL     1      -1.679   1.750  25.838  0.00  0.00    +0.005 A 
ATOM     18  C   UNL     1      -3.821   2.341  24.892  0.00  0.00    +0.005 A 
ATOM     20  C   UNL     1      -1.210   3.038  25.580  0.00  0.00    +0.012 A 
ATOM     21  C   UNL     1      -3.353   3.629  24.635  0.00  0.00    +0.012 A 
ATOM     22  C   UNL     1      -2.047   3.977  24.978  0.00  0.00    +0.055 A 
BRANCH  22  24
ATOM      1  F   UNL     1      -0.206   5.405  24.433  0.00  0.00    -0.166 F 
ATOM      2  F   UNL     1      -1.740   6.206  25.749  0.00  0.00    -0.166 F 
ATOM      3  F   UNL     1      -2.144   5.949  23.628  0.00  0.00    -0.166 F 
ATOM     24  C   UNL     1      -1.544   5.353  24.700  0.00  0.00    +0.417 C 
ENDBRANCH  22  24
ENDBRANCH  14  16
ENDBRANCH   5  14
TORSDOF 6
ENDMDL
