MODEL 1
REMARK VINA RESULT:       4.9      0.000      0.000
REMARK  Name = 7663767
REMARK  5 active torsions:
REMARK  status: ('A' for Active; 'I' for Inactive)
REMARK    1  A    between atoms: O_4  and  C_23
REMARK    2  A    between atoms: O_4  and  C_31
REMARK    3  A    between atoms: N_7  and  C_21
REMARK    4  A    between atoms: C_18  and  C_20
REMARK    5  A    between atoms: C_22  and  C_25
REMARK                            x       y       z     vdW  Elec       q    Type
REMARK                         _______ _______ _______ _____ _____    ______ ____
ROOT
ATOM      2  O   UNL     1      -0.384   2.819  26.280  0.00  0.00    -0.267 OA
ATOM      3  O   UNL     1      -4.759  -0.061  26.654  0.00  0.00    -0.252 OA
ATOM      5  N   UNL     1      -5.186   1.772  25.308  0.00  0.00    -0.284 N 
ATOM      6  N   UNL     1      -2.364   3.262  25.132  0.00  0.00    -0.311 N 
ATOM      7  N   UNL     1      -4.796  -0.351  24.353  0.00  0.00    -0.266 N 
ATOM      8  C   UNL     1      -4.519   3.955  26.329  0.00  0.00    +0.027 C 
ATOM      9  C   UNL     1      -4.509   3.702  23.885  0.00  0.00    +0.054 C 
ATOM     10  C   UNL     1      -4.855   4.660  25.022  0.00  0.00    +0.018 C 
ATOM     11  C   UNL     1      -5.336   2.659  26.464  0.00  0.00    +0.114 C 
ATOM     12  C   UNL     1      -3.010   3.693  26.381  0.00  0.00    +0.130 C 
ATOM     13  C   UNL     1      -5.365   2.424  23.997  0.00  0.00    +0.119 C 
ATOM     14  C   UNL     1      -3.036   3.335  23.910  0.00  0.00    +0.027 A 
ATOM     15  C   UNL     1      -2.390   3.048  22.770  0.00  0.00    +0.022 A 
ATOM     16  C   UNL     1      -1.011   2.876  25.220  0.00  0.00    +0.259 A 
ATOM     17  C   UNL     1      -4.894   0.406  25.519  0.00  0.00    +0.307 C 
ATOM     18  C   UNL     1      -0.321   2.533  23.927  0.00  0.00    +0.040 A 
ATOM     19  C   UNL     1      -1.013   2.642  22.784  0.00  0.00    +0.015 A 
ATOM     35  H   UNL     1      -5.327  -0.056  23.542  0.00  0.00    +0.156 HD
ENDROOT
BRANCH   7  21
ATOM     21  C   UNL     1      -4.067  -1.552  24.171  0.00  0.00    +0.077 A 
ATOM     23  C   UNL     1      -2.696  -1.592  24.414  0.00  0.00    +0.141 A 
ATOM     24  C   UNL     1      -4.739  -2.696  23.746  0.00  0.00    +0.027 A 
ATOM     26  C   UNL     1      -1.993  -2.783  24.231  0.00  0.00    +0.047 A 
ATOM     27  C   UNL     1      -4.036  -3.887  23.563  0.00  0.00    +0.002 A 
ATOM     28  C   UNL     1      -2.663  -3.930  23.805  0.00  0.00    +0.004 A 
BRANCH  23   4
ATOM      4  O   UNL     1      -2.024  -0.482  24.829  0.00  0.00    -0.493 OA
ATOM     31  C   UNL     1      -1.066  -0.657  25.871  0.00  0.00    +0.277 C 
ENDBRANCH  23   4
ENDBRANCH   7  21
BRANCH  18  20
ATOM     20  C   UNL     1       1.058   2.113  23.936  0.00  0.00    +0.014 C 
ATOM     22  C   UNL     1       1.482   0.998  23.328  0.00  0.00    +0.008 C 
BRANCH  22  25
ATOM      1 CL   UNL     1       7.130  -0.922  23.287  0.00  0.00    -0.084 Cl
ATOM     25  C   UNL     1       2.877   0.524  23.318  0.00  0.00    -0.025 A 
ATOM     29  C   UNL     1       3.145  -0.804  23.610  0.00  0.00    +0.009 A 
ATOM     30  C   UNL     1       3.895   1.415  23.016  0.00  0.00    +0.009 A 
ATOM     32  C   UNL     1       4.465  -1.252  23.601  0.00  0.00    +0.020 A 
ATOM     33  C   UNL     1       5.215   0.966  23.007  0.00  0.00    +0.020 A 
ATOM     34  C   UNL     1       5.500  -0.368  23.299  0.00  0.00    +0.041 A 
ENDBRANCH  22  25
ENDBRANCH  18  20
TORSDOF 4
ENDMDL
