MODEL 1
REMARK VINA RESULT:      -3.0      0.000      0.000
REMARK  Name = 38028744
REMARK  12 active torsions:
REMARK  status: ('A' for Active; 'I' for Inactive)
REMARK    1  A    between atoms: S_1  and  N_7
REMARK    2  A    between atoms: S_1  and  C_25
REMARK    3  A    between atoms: O_5  and  C_30
REMARK    4  A    between atoms: O_5  and  C_31
REMARK    5  A    between atoms: N_7  and  C_16
REMARK    6  A    between atoms: C_8  and  C_12
REMARK    7  A    between atoms: C_9  and  C_16
REMARK    8  A    between atoms: C_11  and  C_15
REMARK    9  A    between atoms: C_12  and  C_17
REMARK   10  A    between atoms: C_12  and  C_18
REMARK   11  A    between atoms: C_13  and  C_19
REMARK   12  A    between atoms: C_15  and  C_20
REMARK                            x       y       z     vdW  Elec       q    Type
REMARK                         _______ _______ _______ _____ _____    ______ ____
ROOT
ATOM      8  C   UNL     1      -2.064  -1.415  24.319  0.00  0.00    +0.000 C 
ATOM      9  C   UNL     1      -2.761  -0.260  25.081  0.00  0.00    +0.030 C 
ATOM     10  C   UNL     1      -0.624  -1.598  24.823  0.00  0.00    +0.012 C 
ATOM     11  C   UNL     1       0.220  -0.321  24.651  0.00  0.00    +0.023 C 
ATOM     13  C   UNL     1      -0.516   0.911  25.138  0.00  0.00    -0.073 C 
ATOM     14  C   UNL     1      -1.846   0.915  25.337  0.00  0.00    -0.023 C 
ATOM     19  C   UNL     1       0.319   2.125  25.434  0.00  0.00    +0.039 C 
ENDROOT
BRANCH   8  12
ATOM     12  C   UNL     1      -2.833  -2.732  24.458  0.00  0.00    -0.013 C 
ATOM     17  C   UNL     1      -3.206  -2.979  25.917  0.00  0.00    +0.007 C 
ATOM     18  C   UNL     1      -4.078  -2.719  23.576  0.00  0.00    +0.007 C 
ENDBRANCH   8  12
BRANCH  11  15
ATOM     15  C   UNL     1       0.673  -0.151  23.196  0.00  0.00    +0.103 C 
BRANCH  15  20
ATOM      2  O   UNL     1       1.836   1.907  22.903  0.00  0.00    -0.276 OA
ATOM      6  N   UNL     1       3.106   0.033  23.367  0.00  0.00    -0.301 N 
ATOM     20  C   UNL     1       1.916   0.700  23.142  0.00  0.00    +0.216 C 
ATOM     21  C   UNL     1       4.394   0.711  23.341  0.00  0.00    +0.108 C 
ATOM     22  C   UNL     1       3.268  -1.388  23.658  0.00  0.00    +0.108 C 
ATOM     23  C   UNL     1       5.364  -0.292  23.947  0.00  0.00    +0.020 C 
ATOM     24  C   UNL     1       4.765  -1.632  23.537  0.00  0.00    +0.020 C 
ENDBRANCH  15  20
ENDBRANCH  11  15
BRANCH   9  16
ATOM     16  C   UNL     1      -4.011   0.219  24.336  0.00  0.00    +0.113 C 
BRANCH  16   7
ATOM      7  N   UNL     1      -5.125   0.339  25.291  0.00  0.00    -0.189 NA
ATOM     32  H   UNL     1      -5.670  -0.512  25.477  0.00  0.00    +0.148 HD
BRANCH   7   1
ATOM      1  S   UNL     1      -5.896   1.840  25.524  0.00  0.00    +0.058 S 
ATOM      3  O   UNL     1      -6.400   1.912  26.882  0.00  0.00    -0.153 OA
ATOM      4  O   UNL     1      -6.778   2.101  24.403  0.00  0.00    -0.153 OA
BRANCH   1  25
ATOM     25  C   UNL     1      -4.539   2.966  25.385  0.00  0.00    +0.105 A 
ATOM     26  C   UNL     1      -3.928   3.465  26.536  0.00  0.00    +0.032 A 
ATOM     27  C   UNL     1      -4.081   3.355  24.127  0.00  0.00    +0.032 A 
ATOM     28  C   UNL     1      -2.858   4.353  26.427  0.00  0.00    +0.047 A 
ATOM     29  C   UNL     1      -3.012   4.244  24.019  0.00  0.00    +0.047 A 
ATOM     30  C   UNL     1      -2.399   4.743  25.169  0.00  0.00    +0.120 A 
BRANCH  30   5
ATOM      5  O   UNL     1      -1.355   5.609  25.062  0.00  0.00    -0.495 OA
ATOM     31  C   UNL     1      -0.242   5.189  24.274  0.00  0.00    +0.277 C 
ENDBRANCH  30   5
ENDBRANCH   1  25
ENDBRANCH   7   1
ENDBRANCH  16   7
ENDBRANCH   9  16
TORSDOF 8
ENDMDL
MODEL 2
REMARK VINA RESULT:      -0.1      2.385      7.325
REMARK  Name = 38028744
REMARK  12 active torsions:
REMARK  status: ('A' for Active; 'I' for Inactive)
REMARK    1  A    between atoms: S_1  and  N_7
REMARK    2  A    between atoms: S_1  and  C_25
REMARK    3  A    between atoms: O_5  and  C_30
REMARK    4  A    between atoms: O_5  and  C_31
REMARK    5  A    between atoms: N_7  and  C_16
REMARK    6  A    between atoms: C_8  and  C_12
REMARK    7  A    between atoms: C_9  and  C_16
REMARK    8  A    between atoms: C_11  and  C_15
REMARK    9  A    between atoms: C_12  and  C_17
REMARK   10  A    between atoms: C_12  and  C_18
REMARK   11  A    between atoms: C_13  and  C_19
REMARK   12  A    between atoms: C_15  and  C_20
REMARK                            x       y       z     vdW  Elec       q    Type
REMARK                         _______ _______ _______ _____ _____    ______ ____
ROOT
ATOM      8  C   UNL     1      -2.397   2.144  23.666  0.00  0.00    +0.000 C 
ATOM      9  C   UNL     1      -1.194   2.958  24.206  0.00  0.00    +0.030 C 
ATOM     10  C   UNL     1      -3.688   2.972  23.762  0.00  0.00    +0.012 C 
ATOM     11  C   UNL     1      -4.000   3.402  25.208  0.00  0.00    +0.023 C 
ATOM     13  C   UNL     1      -2.778   3.971  25.901  0.00  0.00    -0.073 C 
ATOM     14  C   UNL     1      -1.534   3.773  25.432  0.00  0.00    -0.023 C 
ATOM     19  C   UNL     1      -3.025   4.813  27.122  0.00  0.00    +0.039 C 
ENDROOT
BRANCH   8  12
ATOM     12  C   UNL     1      -2.175   1.694  22.219  0.00  0.00    -0.013 C 
ATOM     17  C   UNL     1      -2.736   0.291  22.006  0.00  0.00    +0.007 C 
ATOM     18  C   UNL     1      -2.813   2.684  21.250  0.00  0.00    +0.007 C 
ENDBRANCH   8  12
BRANCH  11  15
ATOM     15  C   UNL     1      -4.596   2.242  26.013  0.00  0.00    +0.103 C 
BRANCH  15  20
ATOM      2  O   UNL     1      -6.176   1.448  24.417  0.00  0.00    -0.276 OA
ATOM      6  N   UNL     1      -4.480   0.005  25.030  0.00  0.00    -0.301 N 
ATOM     20  C   UNL     1      -5.163   1.205  25.076  0.00  0.00    +0.216 C 
ATOM     21  C   UNL     1      -4.904  -1.100  24.182  0.00  0.00    +0.108 C 
ATOM     22  C   UNL     1      -3.277  -0.343  25.780  0.00  0.00    +0.108 C 
ATOM     23  C   UNL     1      -3.725  -2.060  24.189  0.00  0.00    +0.020 C 
ATOM     24  C   UNL     1      -3.120  -1.843  25.570  0.00  0.00    +0.020 C 
ENDBRANCH  15  20
ENDBRANCH  11  15
BRANCH   9  16
ATOM     16  C   UNL     1      -0.003   2.043  24.516  0.00  0.00    +0.113 C 
BRANCH  16   7
ATOM      7  N   UNL     1       0.620   1.619  23.252  0.00  0.00    -0.189 NA
ATOM     32  H   UNL     1       0.479   2.229  22.438  0.00  0.00    +0.148 HD
BRANCH   7   1
ATOM      1  S   UNL     1       0.932  -0.030  22.961  0.00  0.00    +0.058 S 
ATOM      3  O   UNL     1       0.673  -0.327  21.566  0.00  0.00    -0.153 OA
ATOM      4  O   UNL     1       0.309  -0.823  24.004  0.00  0.00    -0.153 OA
BRANCH   1  25
ATOM     25  C   UNL     1       2.678  -0.117  23.223  0.00  0.00    +0.105 A 
ATOM     26  C   UNL     1       3.249  -1.284  23.732  0.00  0.00    +0.032 A 
ATOM     27  C   UNL     1       3.485   0.980  22.921  0.00  0.00    +0.032 A 
ATOM     28  C   UNL     1       4.627  -1.353  23.938  0.00  0.00    +0.047 A 
ATOM     29  C   UNL     1       4.862   0.911  23.129  0.00  0.00    +0.047 A 
ATOM     30  C   UNL     1       5.434  -0.256  23.637  0.00  0.00    +0.120 A 
BRANCH  30   5
ATOM      5  O   UNL     1       6.778  -0.324  23.837  0.00  0.00    -0.495 OA
ATOM     31  C   UNL     1       7.588  -0.641  22.706  0.00  0.00    +0.277 C 
ENDBRANCH  30   5
ENDBRANCH   1  25
ENDBRANCH   7   1
ENDBRANCH  16   7
ENDBRANCH   9  16
TORSDOF 8
ENDMDL
MODEL 3
REMARK VINA RESULT:      -0.1      1.915      4.955
REMARK  Name = 38028744
REMARK  12 active torsions:
REMARK  status: ('A' for Active; 'I' for Inactive)
REMARK    1  A    between atoms: S_1  and  N_7
REMARK    2  A    between atoms: S_1  and  C_25
REMARK    3  A    between atoms: O_5  and  C_30
REMARK    4  A    between atoms: O_5  and  C_31
REMARK    5  A    between atoms: N_7  and  C_16
REMARK    6  A    between atoms: C_8  and  C_12
REMARK    7  A    between atoms: C_9  and  C_16
REMARK    8  A    between atoms: C_11  and  C_15
REMARK    9  A    between atoms: C_12  and  C_17
REMARK   10  A    between atoms: C_12  and  C_18
REMARK   11  A    between atoms: C_13  and  C_19
REMARK   12  A    between atoms: C_15  and  C_20
REMARK                            x       y       z     vdW  Elec       q    Type
REMARK                         _______ _______ _______ _____ _____    ______ ____
ROOT
ATOM      8  C   UNL     1      -2.127   4.066  24.664  0.00  0.00    +0.000 C 
ATOM      9  C   UNL     1      -3.563   4.010  24.086  0.00  0.00    +0.030 C 
ATOM     10  C   UNL     1      -1.106   3.621  23.606  0.00  0.00    +0.012 C 
ATOM     11  C   UNL     1      -1.374   2.190  23.103  0.00  0.00    +0.023 C 
ATOM     13  C   UNL     1      -2.836   1.976  22.765  0.00  0.00    -0.073 C 
ATOM     14  C   UNL     1      -3.798   2.807  23.202  0.00  0.00    -0.023 C 
ATOM     19  C   UNL     1      -3.161   0.810  21.874  0.00  0.00    +0.039 C 
ENDROOT
BRANCH   8  12
ATOM     12  C   UNL     1      -1.772   5.467  25.170  0.00  0.00    -0.013 C 
ATOM     17  C   UNL     1      -0.284   5.742  24.975  0.00  0.00    +0.007 C 
ATOM     18  C   UNL     1      -2.614   6.521  24.457  0.00  0.00    +0.007 C 
ENDBRANCH   8  12
BRANCH  11  15
ATOM     15  C   UNL     1      -0.888   1.148  24.116  0.00  0.00    +0.103 C 
BRANCH  15  20
ATOM      2  O   UNL     1       0.936   2.028  25.370  0.00  0.00    -0.276 OA
ATOM      6  N   UNL     1       1.449   0.753  23.513  0.00  0.00    -0.301 N 
ATOM     20  C   UNL     1       0.578   1.354  24.402  0.00  0.00    +0.216 C 
ATOM     21  C   UNL     1       2.895   0.865  23.645  0.00  0.00    +0.108 C 
ATOM     22  C   UNL     1       1.091  -0.057  22.352  0.00  0.00    +0.108 C 
ATOM     23  C   UNL     1       3.446  -0.183  22.691  0.00  0.00    +0.020 C 
ATOM     24  C   UNL     1       2.397  -0.223  21.588  0.00  0.00    +0.020 C 
ENDBRANCH  15  20
ENDBRANCH  11  15
BRANCH   9  16
ATOM     16  C   UNL     1      -4.611   4.034  25.205  0.00  0.00    +0.113 C 
BRANCH  16   7
ATOM      7  N   UNL     1      -4.541   2.769  25.956  0.00  0.00    -0.189 NA
ATOM     32  H   UNL     1      -3.615   2.479  26.290  0.00  0.00    +0.148 HD
BRANCH   7   1
ATOM      1  S   UNL     1      -5.707   1.554  25.697  0.00  0.00    +0.058 S 
ATOM      3  O   UNL     1      -6.500   1.894  24.532  0.00  0.00    -0.153 OA
ATOM      4  O   UNL     1      -6.355   1.241  26.956  0.00  0.00    -0.153 OA
BRANCH   1  25
ATOM     25  C   UNL     1      -4.693   0.167  25.280  0.00  0.00    +0.105 A 
ATOM     26  C   UNL     1      -3.539  -0.099  26.018  0.00  0.00    +0.032 A 
ATOM     27  C   UNL     1      -5.045  -0.660  24.214  0.00  0.00    +0.032 A 
ATOM     28  C   UNL     1      -2.739  -1.194  25.690  0.00  0.00    +0.047 A 
ATOM     29  C   UNL     1      -4.244  -1.753  23.885  0.00  0.00    +0.047 A 
ATOM     30  C   UNL     1      -3.090  -2.021  24.624  0.00  0.00    +0.120 A 
BRANCH  30   5
ATOM      5  O   UNL     1      -2.310  -3.088  24.304  0.00  0.00    -0.495 OA
ATOM     31  C   UNL     1      -0.899  -2.876  24.282  0.00  0.00    +0.277 C 
ENDBRANCH  30   5
ENDBRANCH   1  25
ENDBRANCH   7   1
ENDBRANCH  16   7
ENDBRANCH   9  16
TORSDOF 8
ENDMDL
MODEL 4
REMARK VINA RESULT:       0.3      2.414      6.760
REMARK  Name = 38028744
REMARK  12 active torsions:
REMARK  status: ('A' for Active; 'I' for Inactive)
REMARK    1  A    between atoms: S_1  and  N_7
REMARK    2  A    between atoms: S_1  and  C_25
REMARK    3  A    between atoms: O_5  and  C_30
REMARK    4  A    between atoms: O_5  and  C_31
REMARK    5  A    between atoms: N_7  and  C_16
REMARK    6  A    between atoms: C_8  and  C_12
REMARK    7  A    between atoms: C_9  and  C_16
REMARK    8  A    between atoms: C_11  and  C_15
REMARK    9  A    between atoms: C_12  and  C_17
REMARK   10  A    between atoms: C_12  and  C_18
REMARK   11  A    between atoms: C_13  and  C_19
REMARK   12  A    between atoms: C_15  and  C_20
REMARK                            x       y       z     vdW  Elec       q    Type
REMARK                         _______ _______ _______ _____ _____    ______ ____
ROOT
ATOM      8  C   UNL     1      -3.317  -0.367  25.289  0.00  0.00    +0.000 C 
ATOM      9  C   UNL     1      -2.180  -0.417  24.238  0.00  0.00    +0.030 C 
ATOM     10  C   UNL     1      -4.627   0.107  24.640  0.00  0.00    +0.012 C 
ATOM     11  C   UNL     1      -4.490   1.503  24.003  0.00  0.00    +0.023 C 
ATOM     13  C   UNL     1      -3.236   1.616  23.159  0.00  0.00    -0.073 C 
ATOM     14  C   UNL     1      -2.221   0.742  23.268  0.00  0.00    -0.023 C 
ATOM     19  C   UNL     1      -3.197   2.732  22.152  0.00  0.00    +0.039 C 
ENDROOT
BRANCH   8  12
ATOM     12  C   UNL     1      -3.533  -1.728  25.958  0.00  0.00    -0.013 C 
ATOM     17  C   UNL     1      -3.178  -2.856  24.995  0.00  0.00    +0.007 C 
ATOM     18  C   UNL     1      -2.709  -1.830  27.238  0.00  0.00    +0.007 C 
ENDBRANCH   8  12
BRANCH  11  15
ATOM     15  C   UNL     1      -4.535   2.603  25.069  0.00  0.00    +0.103 C 
BRANCH  15  20
ATOM      2  O   UNL     1      -4.461   4.661  23.873  0.00  0.00    -0.276 OA
ATOM      6  N   UNL     1      -2.512   3.968  24.901  0.00  0.00    -0.301 N 
ATOM     20  C   UNL     1      -3.845   3.842  24.557  0.00  0.00    +0.216 C 
ATOM     21  C   UNL     1      -1.704   5.102  24.478  0.00  0.00    +0.108 C 
ATOM     22  C   UNL     1      -1.728   3.038  25.708  0.00  0.00    +0.108 C 
ATOM     23  C   UNL     1      -0.444   5.010  25.325  0.00  0.00    +0.020 C 
ATOM     24  C   UNL     1      -0.290   3.509  25.539  0.00  0.00    +0.020 C 
ENDBRANCH  15  20
ENDBRANCH  11  15
BRANCH   9  16
ATOM     16  C   UNL     1      -0.805  -0.470  24.913  0.00  0.00    +0.113 C 
BRANCH  16   7
ATOM      7  N   UNL     1       0.188  -0.959  23.943  0.00  0.00    -0.189 NA
ATOM     32  H   UNL     1       0.744  -1.777  24.221  0.00  0.00    +0.148 HD
BRANCH   7   1
ATOM      1  S   UNL     1       0.865   0.106  22.799  0.00  0.00    +0.058 S 
ATOM      3  O   UNL     1       0.482   1.466  23.127  0.00  0.00    -0.153 OA
ATOM      4  O   UNL     1       0.633  -0.417  21.466  0.00  0.00    -0.153 OA
BRANCH   1  25
ATOM     25  C   UNL     1       2.594  -0.067  23.126  0.00  0.00    +0.105 A 
ATOM     26  C   UNL     1       3.460   0.998  22.876  0.00  0.00    +0.032 A 
ATOM     27  C   UNL     1       3.093  -1.267  23.631  0.00  0.00    +0.032 A 
ATOM     28  C   UNL     1       4.825   0.862  23.133  0.00  0.00    +0.047 A 
ATOM     29  C   UNL     1       4.456  -1.403  23.888  0.00  0.00    +0.047 A 
ATOM     30  C   UNL     1       5.323  -0.338  23.639  0.00  0.00    +0.120 A 
BRANCH  30   5
ATOM      5  O   UNL     1       6.653  -0.471  23.891  0.00  0.00    -0.495 OA
ATOM     31  C   UNL     1       7.511  -0.654  22.765  0.00  0.00    +0.277 C 
ENDBRANCH  30   5
ENDBRANCH   1  25
ENDBRANCH   7   1
ENDBRANCH  16   7
ENDBRANCH   9  16
TORSDOF 8
ENDMDL
MODEL 5
REMARK VINA RESULT:       0.4      2.256      7.324
REMARK  Name = 38028744
REMARK  12 active torsions:
REMARK  status: ('A' for Active; 'I' for Inactive)
REMARK    1  A    between atoms: S_1  and  N_7
REMARK    2  A    between atoms: S_1  and  C_25
REMARK    3  A    between atoms: O_5  and  C_30
REMARK    4  A    between atoms: O_5  and  C_31
REMARK    5  A    between atoms: N_7  and  C_16
REMARK    6  A    between atoms: C_8  and  C_12
REMARK    7  A    between atoms: C_9  and  C_16
REMARK    8  A    between atoms: C_11  and  C_15
REMARK    9  A    between atoms: C_12  and  C_17
REMARK   10  A    between atoms: C_12  and  C_18
REMARK   11  A    between atoms: C_13  and  C_19
REMARK   12  A    between atoms: C_15  and  C_20
REMARK                            x       y       z     vdW  Elec       q    Type
REMARK                         _______ _______ _______ _____ _____    ______ ____
ROOT
ATOM      8  C   UNL     1      -1.821  -0.632  25.205  0.00  0.00    +0.000 C 
ATOM      9  C   UNL     1      -1.619  -2.041  24.594  0.00  0.00    +0.030 C 
ATOM     10  C   UNL     1      -3.182  -0.546  25.914  0.00  0.00    +0.012 C 
ATOM     11  C   UNL     1      -4.355  -0.836  24.960  0.00  0.00    +0.023 C 
ATOM     13  C   UNL     1      -4.106  -2.074  24.121  0.00  0.00    -0.073 C 
ATOM     14  C   UNL     1      -2.879  -2.605  23.980  0.00  0.00    -0.023 C 
ATOM     19  C   UNL     1      -5.309  -2.713  23.485  0.00  0.00    +0.039 C 
ENDROOT
BRANCH   8  12
ATOM     12  C   UNL     1      -0.702  -0.273  26.187  0.00  0.00    -0.013 C 
ATOM     17  C   UNL     1      -0.578   1.242  26.322  0.00  0.00    +0.007 C 
ATOM     18  C   UNL     1      -0.957  -0.918  27.546  0.00  0.00    +0.007 C 
ENDBRANCH   8  12
BRANCH  11  15
ATOM     15  C   UNL     1      -4.658   0.376  24.072  0.00  0.00    +0.103 C 
BRANCH  15  20
ATOM      2  O   UNL     1      -6.018   1.657  25.549  0.00  0.00    -0.276 OA
ATOM      6  N   UNL     1      -3.974   2.553  24.953  0.00  0.00    -0.301 N 
ATOM     20  C   UNL     1      -4.955   1.580  24.930  0.00  0.00    +0.216 C 
ATOM     21  C   UNL     1      -4.112   3.778  25.726  0.00  0.00    +0.108 C 
ATOM     22  C   UNL     1      -2.696   2.521  24.247  0.00  0.00    +0.108 C 
ATOM     23  C   UNL     1      -2.718   4.384  25.733  0.00  0.00    +0.020 C 
ATOM     24  C   UNL     1      -2.146   3.933  24.394  0.00  0.00    +0.020 C 
ENDBRANCH  15  20
ENDBRANCH  11  15
BRANCH   9  16
ATOM     16  C   UNL     1      -0.500  -2.034  23.547  0.00  0.00    +0.113 C 
BRANCH  16   7
ATOM      7  N   UNL     1       0.534  -1.068  23.953  0.00  0.00    -0.189 NA
ATOM     32  H   UNL     1       0.563  -0.811  24.947  0.00  0.00    +0.148 HD
BRANCH   7   1
ATOM      1  S   UNL     1       1.150   0.052  22.827  0.00  0.00    +0.058 S 
ATOM      3  O   UNL     1       0.704   1.384  23.186  0.00  0.00    -0.153 OA
ATOM      4  O   UNL     1       0.933  -0.454  21.486  0.00  0.00    -0.153 OA
BRANCH   1  25
ATOM     25  C   UNL     1       2.887  -0.044  23.139  0.00  0.00    +0.105 A 
ATOM     26  C   UNL     1       3.441  -1.223  23.639  0.00  0.00    +0.032 A 
ATOM     27  C   UNL     1       3.705   1.058  22.886  0.00  0.00    +0.032 A 
ATOM     28  C   UNL     1       4.812  -1.299  23.885  0.00  0.00    +0.047 A 
ATOM     29  C   UNL     1       5.075   0.981  23.133  0.00  0.00    +0.047 A 
ATOM     30  C   UNL     1       5.629  -0.198  23.632  0.00  0.00    +0.120 A 
BRANCH  30   5
ATOM      5  O   UNL     1       6.966  -0.272  23.872  0.00  0.00    -0.495 OA
ATOM     31  C   UNL     1       7.804  -0.623  22.771  0.00  0.00    +0.277 C 
ENDBRANCH  30   5
ENDBRANCH   1  25
ENDBRANCH   7   1
ENDBRANCH  16   7
ENDBRANCH   9  16
TORSDOF 8
ENDMDL
MODEL 6
REMARK VINA RESULT:       0.5      2.526      7.443
REMARK  Name = 38028744
REMARK  12 active torsions:
REMARK  status: ('A' for Active; 'I' for Inactive)
REMARK    1  A    between atoms: S_1  and  N_7
REMARK    2  A    between atoms: S_1  and  C_25
REMARK    3  A    between atoms: O_5  and  C_30
REMARK    4  A    between atoms: O_5  and  C_31
REMARK    5  A    between atoms: N_7  and  C_16
REMARK    6  A    between atoms: C_8  and  C_12
REMARK    7  A    between atoms: C_9  and  C_16
REMARK    8  A    between atoms: C_11  and  C_15
REMARK    9  A    between atoms: C_12  and  C_17
REMARK   10  A    between atoms: C_12  and  C_18
REMARK   11  A    between atoms: C_13  and  C_19
REMARK   12  A    between atoms: C_15  and  C_20
REMARK                            x       y       z     vdW  Elec       q    Type
REMARK                         _______ _______ _______ _____ _____    ______ ____
ROOT
ATOM      8  C   UNL     1      -1.445   0.541  25.321  0.00  0.00    +0.000 C 
ATOM      9  C   UNL     1      -0.916  -0.891  25.586  0.00  0.00    +0.030 C 
ATOM     10  C   UNL     1      -2.957   0.610  25.584  0.00  0.00    +0.012 C 
ATOM     11  C   UNL     1      -3.749  -0.372  24.701  0.00  0.00    +0.023 C 
ATOM     13  C   UNL     1      -3.125  -1.754  24.698  0.00  0.00    -0.073 C 
ATOM     14  C   UNL     1      -1.862  -1.968  25.109  0.00  0.00    -0.023 C 
ATOM     19  C   UNL     1      -4.002  -2.891  24.253  0.00  0.00    +0.039 C 
ENDROOT
BRANCH   8  12
ATOM     12  C   UNL     1      -0.721   1.582  26.180  0.00  0.00    -0.013 C 
ATOM     17  C   UNL     1       0.527   2.089  25.464  0.00  0.00    +0.007 C 
ATOM     18  C   UNL     1      -1.657   2.738  26.519  0.00  0.00    +0.007 C 
ENDBRANCH   8  12
BRANCH  11  15
ATOM     15  C   UNL     1      -3.898   0.165  23.273  0.00  0.00    +0.103 C 
BRANCH  15  20
ATOM      2  O   UNL     1      -2.605   2.012  22.504  0.00  0.00    -0.276 OA
ATOM      6  N   UNL     1      -4.256   2.454  24.058  0.00  0.00    -0.301 N 
ATOM     20  C   UNL     1      -3.520   1.624  23.233  0.00  0.00    +0.216 C 
ATOM     21  C   UNL     1      -4.009   3.886  24.140  0.00  0.00    +0.108 C 
ATOM     22  C   UNL     1      -5.350   2.060  24.940  0.00  0.00    +0.108 C 
ATOM     23  C   UNL     1      -5.216   4.439  24.882  0.00  0.00    +0.020 C 
ATOM     24  C   UNL     1      -5.602   3.289  25.803  0.00  0.00    +0.020 C 
ENDBRANCH  15  20
ENDBRANCH  11  15
BRANCH   9  16
ATOM     16  C   UNL     1       0.460  -1.099  24.942  0.00  0.00    +0.113 C 
BRANCH  16   7
ATOM      7  N   UNL     1       0.295  -1.236  23.486  0.00  0.00    -0.189 NA
ATOM     32  H   UNL     1       0.133  -2.184  23.125  0.00  0.00    +0.148 HD
BRANCH   7   1
ATOM      1  S   UNL     1       0.998  -0.097  22.433  0.00  0.00    +0.058 S 
ATOM      3  O   UNL     1       0.494   1.225  22.754  0.00  0.00    -0.153 OA
ATOM      4  O   UNL     1       0.924  -0.597  21.074  0.00  0.00    -0.153 OA
BRANCH   1  25
ATOM     25  C   UNL     1       2.698  -0.164  22.915  0.00  0.00    +0.105 A 
ATOM     26  C   UNL     1       3.219  -1.333  23.470  0.00  0.00    +0.032 A 
ATOM     27  C   UNL     1       3.518   0.951  22.743  0.00  0.00    +0.032 A 
ATOM     28  C   UNL     1       4.560  -1.387  23.850  0.00  0.00    +0.047 A 
ATOM     29  C   UNL     1       4.858   0.897  23.124  0.00  0.00    +0.047 A 
ATOM     30  C   UNL     1       5.380  -0.272  23.678  0.00  0.00    +0.120 A 
BRANCH  30   5
ATOM      5  O   UNL     1       6.688  -0.325  24.048  0.00  0.00    -0.495 OA
ATOM     31  C   UNL     1       7.655  -0.409  23.003  0.00  0.00    +0.277 C 
ENDBRANCH  30   5
ENDBRANCH   1  25
ENDBRANCH   7   1
ENDBRANCH  16   7
ENDBRANCH   9  16
TORSDOF 8
ENDMDL
MODEL 7
REMARK VINA RESULT:       0.9      2.482      6.006
REMARK  Name = 38028744
REMARK  12 active torsions:
REMARK  status: ('A' for Active; 'I' for Inactive)
REMARK    1  A    between atoms: S_1  and  N_7
REMARK    2  A    between atoms: S_1  and  C_25
REMARK    3  A    between atoms: O_5  and  C_30
REMARK    4  A    between atoms: O_5  and  C_31
REMARK    5  A    between atoms: N_7  and  C_16
REMARK    6  A    between atoms: C_8  and  C_12
REMARK    7  A    between atoms: C_9  and  C_16
REMARK    8  A    between atoms: C_11  and  C_15
REMARK    9  A    between atoms: C_12  and  C_17
REMARK   10  A    between atoms: C_12  and  C_18
REMARK   11  A    between atoms: C_13  and  C_19
REMARK   12  A    between atoms: C_15  and  C_20
REMARK                            x       y       z     vdW  Elec       q    Type
REMARK                         _______ _______ _______ _____ _____    ______ ____
ROOT
ATOM      8  C   UNL     1      -3.469   2.466  23.759  0.00  0.00    +0.000 C 
ATOM      9  C   UNL     1      -3.944   3.734  24.511  0.00  0.00    +0.030 C 
ATOM     10  C   UNL     1      -4.642   1.494  23.553  0.00  0.00    +0.012 C 
ATOM     11  C   UNL     1      -5.281   1.061  24.886  0.00  0.00    +0.023 C 
ATOM     13  C   UNL     1      -5.534   2.243  25.800  0.00  0.00    -0.073 C 
ATOM     14  C   UNL     1      -4.938   3.433  25.609  0.00  0.00    -0.023 C 
ATOM     19  C   UNL     1      -6.524   2.039  26.912  0.00  0.00    +0.039 C 
ENDROOT
BRANCH   8  12
ATOM     12  C   UNL     1      -2.837   2.809  22.407  0.00  0.00    -0.013 C 
ATOM     17  C   UNL     1      -2.422   1.537  21.675  0.00  0.00    +0.007 C 
ATOM     18  C   UNL     1      -3.804   3.630  21.560  0.00  0.00    +0.007 C 
ENDBRANCH   8  12
BRANCH  11  15
ATOM     15  C   UNL     1      -4.428  -0.002  25.588  0.00  0.00    +0.103 C 
BRANCH  15  20
ATOM      2  O   UNL     1      -5.032  -1.523  23.858  0.00  0.00    -0.276 OA
ATOM      6  N   UNL     1      -2.912  -1.730  24.752  0.00  0.00    -0.301 N 
ATOM     20  C   UNL     1      -4.163  -1.150  24.648  0.00  0.00    +0.216 C 
ATOM     21  C   UNL     1      -2.505  -2.854  23.921  0.00  0.00    +0.108 C 
ATOM     22  C   UNL     1      -1.840  -1.335  25.661  0.00  0.00    +0.108 C 
ATOM     23  C   UNL     1      -1.001  -2.952  24.124  0.00  0.00    +0.020 C 
ATOM     24  C   UNL     1      -0.820  -2.460  25.554  0.00  0.00    +0.020 C 
ENDBRANCH  15  20
ENDBRANCH  11  15
BRANCH   9  16
ATOM     16  C   UNL     1      -2.757   4.508  25.095  0.00  0.00    +0.113 C 
BRANCH  16   7
ATOM      7  N   UNL     1      -1.506   3.846  24.692  0.00  0.00    -0.189 NA
ATOM     32  H   UNL     1      -1.303   3.810  23.685  0.00  0.00    +0.148 HD
BRANCH   7   1
ATOM      1  S   UNL     1      -0.816   2.644  25.682  0.00  0.00    +0.058 S 
ATOM      3  O   UNL     1      -1.859   1.748  26.143  0.00  0.00    -0.153 OA
ATOM      4  O   UNL     1       0.083   3.269  26.633  0.00  0.00    -0.153 OA
BRANCH   1  25
ATOM     25  C   UNL     1       0.190   1.761  24.527  0.00  0.00    +0.105 A 
ATOM     26  C   UNL     1      -0.286   0.586  23.944  0.00  0.00    +0.032 A 
ATOM     27  C   UNL     1       1.460   2.236  24.200  0.00  0.00    +0.032 A 
ATOM     28  C   UNL     1       0.507  -0.111  23.032  0.00  0.00    +0.047 A 
ATOM     29  C   UNL     1       2.253   1.539  23.289  0.00  0.00    +0.047 A 
ATOM     30  C   UNL     1       1.777   0.365  22.705  0.00  0.00    +0.120 A 
BRANCH  30   5
ATOM      5  O   UNL     1       2.550  -0.315  21.816  0.00  0.00    -0.495 OA
ATOM     31  C   UNL     1       3.864   0.191  21.579  0.00  0.00    +0.277 C 
ENDBRANCH  30   5
ENDBRANCH   1  25
ENDBRANCH   7   1
ENDBRANCH  16   7
ENDBRANCH   9  16
TORSDOF 8
ENDMDL
