MODEL 1
REMARK VINA RESULT:       5.1      0.000      0.000
REMARK  Name = 45783299
REMARK  3 active torsions:
REMARK  status: ('A' for Active; 'I' for Inactive)
REMARK    1  A    between atoms: N_4  and  C_9
REMARK    2  A    between atoms: C_10  and  C_16
REMARK    3  A    between atoms: C_19  and  C_20
REMARK                            x       y       z     vdW  Elec       q    Type
REMARK                         _______ _______ _______ _____ _____    ______ ____
ROOT
ATOM      2  O   UNL     1      -2.171  -0.555  25.729  0.00  0.00    -0.336 OA
ATOM      5  N   UNL     1      -1.835   0.807  23.984  0.00  0.00    -0.190 NA
ATOM      6  N   UNL     1      -0.997  -0.999  25.111  0.00  0.00    -0.056 NA
ATOM     16  C   UNL     1      -2.600   0.511  25.003  0.00  0.00    +0.245 A 
ATOM     19  C   UNL     1      -0.865  -0.146  24.089  0.00  0.00    +0.202 A 
ENDROOT
BRANCH  19  20
ATOM      3  O   UNL     1       6.567  -0.508  23.903  0.00  0.00    -0.377 OA
ATOM      7  N   UNL     1       3.866  -0.315  23.154  0.00  0.00    -0.311 N 
ATOM      8  N   UNL     1       2.344  -0.368  21.342  0.00  0.00    -0.240 NA
ATOM     20  C   UNL     1       0.223  -0.220  23.158  0.00  0.00    +0.027 A 
ATOM     21  C   UNL     1       4.310  -1.384  24.055  0.00  0.00    +0.134 C 
ATOM     22  C   UNL     1       4.916   0.264  22.304  0.00  0.00    +0.134 C 
ATOM     23  C   UNL     1       2.551  -0.306  22.677  0.00  0.00    +0.122 A 
ATOM     24  C   UNL     1       1.535  -0.231  23.617  0.00  0.00    +0.055 A 
ATOM     25  C   UNL     1       5.554  -0.935  24.814  0.00  0.00    +0.178 C 
ATOM     26  C   UNL     1       6.127   0.626  23.156  0.00  0.00    +0.178 C 
ATOM     27  C   UNL     1      -0.030  -0.283  21.791  0.00  0.00    +0.031 A 
ATOM     28  C   UNL     1       1.055  -0.355  20.933  0.00  0.00    +0.113 A 
ENDBRANCH  19  20
BRANCH  16  10
ATOM      4  N   UNL     1      -4.365   2.199  24.526  0.00  0.00    -0.288 NA
ATOM     10  C   UNL     1      -3.872   1.183  25.477  0.00  0.00    +0.146 C 
ATOM     11  C   UNL     1      -5.819   2.241  24.683  0.00  0.00    +0.085 C 
ATOM     12  C   UNL     1      -5.043   0.194  25.635  0.00  0.00    +0.030 C 
ATOM     13  C   UNL     1      -6.167   0.770  24.786  0.00  0.00    +0.017 C 
BRANCH   4   9
ATOM      1  O   UNL     1      -1.505   5.079  25.595  0.00  0.00    -0.380 OA
ATOM      9  C   UNL     1      -3.753   3.511  24.717  0.00  0.00    +0.062 C 
ATOM     14  C   UNL     1      -2.473   3.649  23.887  0.00  0.00    +0.047 C 
ATOM     15  C   UNL     1      -3.444   3.745  26.198  0.00  0.00    +0.047 C 
ATOM     17  C   UNL     1      -1.778   4.969  24.199  0.00  0.00    +0.161 C 
ATOM     18  C   UNL     1      -2.696   5.060  26.383  0.00  0.00    +0.161 C 
ENDBRANCH   4   9
ENDBRANCH  16  10
TORSDOF 3
ENDMDL
MODEL 2
REMARK VINA RESULT:       7.1      1.588      3.410
REMARK  Name = 45783299
REMARK  3 active torsions:
REMARK  status: ('A' for Active; 'I' for Inactive)
REMARK    1  A    between atoms: N_4  and  C_9
REMARK    2  A    between atoms: C_10  and  C_16
REMARK    3  A    between atoms: C_19  and  C_20
REMARK                            x       y       z     vdW  Elec       q    Type
REMARK                         _______ _______ _______ _____ _____    ______ ____
ROOT
ATOM      2  O   UNL     1      -1.429   2.613  24.649  0.00  0.00    -0.336 OA
ATOM      5  N   UNL     1      -1.610   0.882  23.240  0.00  0.00    -0.190 NA
ATOM      6  N   UNL     1      -0.126   2.310  24.236  0.00  0.00    -0.056 NA
ATOM     16  C   UNL     1      -2.241   1.726  24.017  0.00  0.00    +0.245 A 
ATOM     19  C   UNL     1      -0.316   1.278  23.406  0.00  0.00    +0.202 A 
ENDROOT
BRANCH  19  20
ATOM      3  O   UNL     1       6.890  -0.368  24.279  0.00  0.00    -0.377 OA
ATOM      7  N   UNL     1       4.312  -0.074  23.202  0.00  0.00    -0.311 N 
ATOM      8  N   UNL     1       2.874  -0.659  21.415  0.00  0.00    -0.240 NA
ATOM     20  C   UNL     1       0.766   0.623  22.731  0.00  0.00    +0.027 A 
ATOM     21  C   UNL     1       4.499  -0.697  24.516  0.00  0.00    +0.134 C 
ATOM     22  C   UNL     1       5.486  -0.111  22.319  0.00  0.00    +0.134 C 
ATOM     23  C   UNL     1       3.043  -0.054  22.613  0.00  0.00    +0.122 A 
ATOM     24  C   UNL     1       2.032   0.594  23.304  0.00  0.00    +0.055 A 
ATOM     25  C   UNL     1       5.781  -0.177  25.156  0.00  0.00    +0.178 C 
ATOM     26  C   UNL     1       6.715   0.379  23.076  0.00  0.00    +0.178 C 
ATOM     27  C   UNL     1       0.553   0.011  21.499  0.00  0.00    +0.031 A 
ATOM     28  C   UNL     1       1.630  -0.611  20.888  0.00  0.00    +0.113 A 
ENDBRANCH  19  20
BRANCH  16  10
ATOM      4  N   UNL     1      -4.121   1.174  25.550  0.00  0.00    -0.288 NA
ATOM     10  C   UNL     1      -3.724   1.847  24.299  0.00  0.00    +0.146 C 
ATOM     11  C   UNL     1      -5.280   1.904  26.064  0.00  0.00    +0.085 C 
ATOM     12  C   UNL     1      -4.175   3.309  24.481  0.00  0.00    +0.030 C 
ATOM     13  C   UNL     1      -4.869   3.345  25.835  0.00  0.00    +0.017 C 
BRANCH   4   9
ATOM      1  O   UNL     1      -3.632  -2.798  24.280  0.00  0.00    -0.380 OA
ATOM      9  C   UNL     1      -4.402  -0.249  25.374  0.00  0.00    +0.062 C 
ATOM     14  C   UNL     1      -3.298  -1.110  25.996  0.00  0.00    +0.047 C 
ATOM     15  C   UNL     1      -4.552  -0.583  23.888  0.00  0.00    +0.047 C 
ATOM     17  C   UNL     1      -3.538  -2.584  25.687  0.00  0.00    +0.161 C 
ATOM     18  C   UNL     1      -4.723  -2.085  23.695  0.00  0.00    +0.161 C 
ENDBRANCH   4   9
ENDBRANCH  16  10
TORSDOF 3
ENDMDL
MODEL 3
REMARK VINA RESULT:       8.8      1.487      1.855
REMARK  Name = 45783299
REMARK  3 active torsions:
REMARK  status: ('A' for Active; 'I' for Inactive)
REMARK    1  A    between atoms: N_4  and  C_9
REMARK    2  A    between atoms: C_10  and  C_16
REMARK    3  A    between atoms: C_19  and  C_20
REMARK                            x       y       z     vdW  Elec       q    Type
REMARK                         _______ _______ _______ _____ _____    ______ ____
ROOT
ATOM      2  O   UNL     1      -1.391   0.921  25.557  0.00  0.00    -0.336 OA
ATOM      5  N   UNL     1      -1.310  -0.423  23.768  0.00  0.00    -0.190 NA
ATOM      6  N   UNL     1      -0.111   1.076  25.012  0.00  0.00    -0.056 NA
ATOM     16  C   UNL     1      -2.032   0.022  24.766  0.00  0.00    +0.245 A 
ATOM     19  C   UNL     1      -0.140   0.251  23.960  0.00  0.00    +0.202 A 
ENDROOT
BRANCH  19  20
ATOM      3  O   UNL     1       7.249  -0.622  24.141  0.00  0.00    -0.377 OA
ATOM      7  N   UNL     1       4.606  -0.266  23.257  0.00  0.00    -0.311 N 
ATOM      8  N   UNL     1       3.169  -0.264  21.376  0.00  0.00    -0.240 NA
ATOM     20  C   UNL     1       0.982   0.077  23.084  0.00  0.00    +0.027 A 
ATOM     21  C   UNL     1       4.932  -1.338  24.204  0.00  0.00    +0.134 C 
ATOM     22  C   UNL     1       5.731   0.216  22.446  0.00  0.00    +0.134 C 
ATOM     23  C   UNL     1       3.318  -0.180  22.718  0.00  0.00    +0.122 A 
ATOM     24  C   UNL     1       2.268  -0.011  23.606  0.00  0.00    +0.055 A 
ATOM     25  C   UNL     1       6.168  -0.955  25.011  0.00  0.00    +0.178 C 
ATOM     26  C   UNL     1       6.924   0.518  23.346  0.00  0.00    +0.178 C 
ATOM     27  C   UNL     1       0.788  -0.005  21.709  0.00  0.00    +0.031 A 
ATOM     28  C   UNL     1       1.905  -0.174  20.905  0.00  0.00    +0.113 A 
ENDBRANCH  19  20
BRANCH  16  10
ATOM      4  N   UNL     1      -4.437   0.119  24.136  0.00  0.00    -0.288 NA
ATOM     10  C   UNL     1      -3.456  -0.320  25.148  0.00  0.00    +0.146 C 
ATOM     11  C   UNL     1      -5.562  -0.814  24.217  0.00  0.00    +0.085 C 
ATOM     12  C   UNL     1      -3.686  -1.838  25.283  0.00  0.00    +0.030 C 
ATOM     13  C   UNL     1      -4.854  -2.147  24.357  0.00  0.00    +0.017 C 
BRANCH   4   9
ATOM      1  O   UNL     1      -4.501   4.051  25.604  0.00  0.00    -0.380 OA
ATOM      9  C   UNL     1      -4.860   1.506  24.308  0.00  0.00    +0.062 C 
ATOM     14  C   UNL     1      -3.742   2.477  23.916  0.00  0.00    +0.047 C 
ATOM     15  C   UNL     1      -5.288   1.757  25.757  0.00  0.00    +0.047 C 
ATOM     17  C   UNL     1      -4.152   3.912  24.228  0.00  0.00    +0.161 C 
ATOM     18  C   UNL     1      -5.613   3.232  25.966  0.00  0.00    +0.161 C 
ENDBRANCH   4   9
ENDBRANCH  16  10
TORSDOF 3
ENDMDL
MODEL 4
REMARK VINA RESULT:       9.0      2.077      3.684
REMARK  Name = 45783299
REMARK  3 active torsions:
REMARK  status: ('A' for Active; 'I' for Inactive)
REMARK    1  A    between atoms: N_4  and  C_9
REMARK    2  A    between atoms: C_10  and  C_16
REMARK    3  A    between atoms: C_19  and  C_20
REMARK                            x       y       z     vdW  Elec       q    Type
REMARK                         _______ _______ _______ _____ _____    ______ ____
ROOT
ATOM      2  O   UNL     1      -2.038   2.220  25.834  0.00  0.00    -0.336 OA
ATOM      5  N   UNL     1      -1.571   1.872  23.672  0.00  0.00    -0.190 NA
ATOM      6  N   UNL     1      -0.649   2.347  25.711  0.00  0.00    -0.056 NA
ATOM     16  C   UNL     1      -2.503   1.940  24.588  0.00  0.00    +0.245 A 
ATOM     19  C   UNL     1      -0.451   2.128  24.407  0.00  0.00    +0.202 A 
ENDROOT
BRANCH  19  20
ATOM      3  O   UNL     1       5.689  -2.024  23.732  0.00  0.00    -0.377 OA
ATOM      7  N   UNL     1       3.850   0.095  23.595  0.00  0.00    -0.311 N 
ATOM      8  N   UNL     1       3.393   2.214  22.644  0.00  0.00    -0.240 NA
ATOM     20  C   UNL     1       0.853   2.157  23.810  0.00  0.00    +0.027 A 
ATOM     21  C   UNL     1       3.465  -1.250  23.153  0.00  0.00    +0.134 C 
ATOM     22  C   UNL     1       5.294   0.364  23.595  0.00  0.00    +0.134 C 
ATOM     23  C   UNL     1       2.977   1.171  23.397  0.00  0.00    +0.122 A 
ATOM     24  C   UNL     1       1.731   1.095  23.997  0.00  0.00    +0.055 A 
ATOM     25  C   UNL     1       4.297  -2.293  23.890  0.00  0.00    +0.178 C 
ATOM     26  C   UNL     1       6.028  -0.764  24.310  0.00  0.00    +0.178 C 
ATOM     27  C   UNL     1       1.245   3.249  23.041  0.00  0.00    +0.031 A 
ATOM     28  C   UNL     1       2.513   3.228  22.484  0.00  0.00    +0.113 A 
ENDBRANCH  19  20
BRANCH  16  10
ATOM      4  N   UNL     1      -4.576   0.950  25.545  0.00  0.00    -0.288 NA
ATOM     10  C   UNL     1      -3.999   1.756  24.451  0.00  0.00    +0.146 C 
ATOM     11  C   UNL     1      -5.952   1.413  25.719  0.00  0.00    +0.085 C 
ATOM     12  C   UNL     1      -4.768   3.090  24.501  0.00  0.00    +0.030 C 
ATOM     13  C   UNL     1      -5.794   2.917  25.611  0.00  0.00    +0.017 C 
BRANCH   4   9
ATOM      1  O   UNL     1      -3.050  -2.745  24.263  0.00  0.00    -0.380 OA
ATOM      9  C   UNL     1      -4.506  -0.488  25.299  0.00  0.00    +0.062 C 
ATOM     14  C   UNL     1      -3.327  -1.119  26.047  0.00  0.00    +0.047 C 
ATOM     15  C   UNL     1      -4.384  -0.767  23.799  0.00  0.00    +0.047 C 
ATOM     17  C   UNL     1      -3.190  -2.591  25.675  0.00  0.00    +0.161 C 
ATOM     18  C   UNL     1      -4.188  -2.258  23.550  0.00  0.00    +0.161 C 
ENDBRANCH   4   9
ENDBRANCH  16  10
TORSDOF 3
ENDMDL
