MODEL 1
REMARK VINA RESULT:       0.6      0.000      0.000
REMARK  Name = 44716920
REMARK  14 active torsions:
REMARK  status: ('A' for Active; 'I' for Inactive)
REMARK    1  A    between atoms: O_1  and  C_16
REMARK    2  A    between atoms: O_1  and  C_25
REMARK    3  A    between atoms: O_2  and  C_17
REMARK    4  A    between atoms: O_3  and  C_21
REMARK    5  A    between atoms: N_8  and  C_30
REMARK    6  A    between atoms: N_9  and  C_28
REMARK    7  A    between atoms: C_10  and  C_20
REMARK    8  A    between atoms: C_12  and  C_21
REMARK    9  A    between atoms: C_12  and  C_23
REMARK   10  A    between atoms: C_13  and  C_22
REMARK   11  A    between atoms: C_22  and  C_24
REMARK   12  A    between atoms: C_30  and  C_32
REMARK   13  A    between atoms: C_31  and  C_33
REMARK   14  A    between atoms: C_32  and  C_34
REMARK                            x       y       z     vdW  Elec       q    Type
REMARK                         _______ _______ _______ _____ _____    ______ ____
ROOT
ATOM     10  C   UNL     1      -2.905   0.481  24.214  0.00  0.00    -0.023 C 
ATOM     11  C   UNL     1      -2.584  -1.058  24.079  0.00  0.00    +0.007 C 
ATOM     12  C   UNL     1      -1.077  -1.485  24.269  0.00  0.00    +0.031 C 
ATOM     13  C   UNL     1      -4.380   0.694  23.674  0.00  0.00    +0.032 C 
ATOM     14  C   UNL     1      -1.915   1.270  23.318  0.00  0.00    +0.011 C 
ATOM     15  C   UNL     1      -3.598  -1.906  24.877  0.00  0.00    +0.007 C 
ATOM     16  C   UNL     1      -0.179  -0.570  23.383  0.00  0.00    +0.186 C 
ATOM     17  C   UNL     1      -5.428  -0.198  24.378  0.00  0.00    +0.119 C 
ATOM     18  C   UNL     1      -0.451   0.919  23.560  0.00  0.00    +0.046 C 
ATOM     19  C   UNL     1      -5.027  -1.671  24.382  0.00  0.00    +0.032 C 
ATOM     20  C   UNL     1      -2.774   1.017  25.660  0.00  0.00    +0.012 C 
ATOM     23  C   UNL     1      -0.895  -2.946  23.765  0.00  0.00    +0.017 C 
ENDROOT
BRANCH  17   2
ATOM      2  O   UNL     1      -5.656   0.241  25.713  0.00  0.00    -0.391 OA
ATOM     35  H   UNL     1      -5.909   1.180  25.677  0.00  0.00    +0.210 HD
ENDBRANCH  17   2
BRANCH  16   1
ATOM      1  O   UNL     1       1.209  -0.777  23.644  0.00  0.00    -0.446 OA
BRANCH   1  25
ATOM      5  O   UNL     1       1.868  -0.232  21.513  0.00  0.00    -0.226 OA
ATOM      8  N   UNL     1       3.208   0.213  23.353  0.00  0.00    -0.281 N 
ATOM     25  C   UNL     1       2.078  -0.261  22.721  0.00  0.00    +0.401 C 
ATOM     37  H   UNL     1       3.257   0.133  24.365  0.00  0.00    +0.152 HD
BRANCH   8  30
ATOM     30  C   UNL     1       4.320   0.822  22.660  0.00  0.00    +0.107 C 
BRANCH  30  32
ATOM     32  C   UNL     1       5.666   0.334  23.181  0.00  0.00    +0.015 C 
ATOM     34  C   UNL     1       5.529  -0.733  24.257  0.00  0.00    +0.005 C 
ENDBRANCH  30  32
ENDBRANCH   8  30
ENDBRANCH   1  25
ENDBRANCH  16   1
BRANCH  12  21
ATOM     21  C   UNL     1      -0.603  -1.486  25.737  0.00  0.00    +0.166 C 
BRANCH  21   3
ATOM      3  O   UNL     1       0.569  -2.268  25.813  0.00  0.00    -0.394 OA
ATOM     36  H   UNL     1       1.133  -2.017  25.062  0.00  0.00    +0.209 HD
ENDBRANCH  21   3
ENDBRANCH  12  21
BRANCH  13  22
ATOM     22  C   UNL     1      -4.860   2.153  23.663  0.00  0.00    +0.102 C 
BRANCH  22  24
ATOM      4  O   UNL     1      -3.354   3.099  22.079  0.00  0.00    -0.276 OA
ATOM      7  N   UNL     1      -3.162   3.807  24.270  0.00  0.00    -0.300 N 
ATOM     24  C   UNL     1      -3.728   3.060  23.253  0.00  0.00    +0.216 C 
ATOM     26  C   UNL     1      -3.559   3.808  25.678  0.00  0.00    +0.130 C 
ATOM     27  C   UNL     1      -2.055   4.723  24.035  0.00  0.00    +0.109 C 
ATOM     28  C   UNL     1      -2.450   4.578  26.392  0.00  0.00    +0.092 C 
ATOM     29  C   UNL     1      -1.955   5.542  25.316  0.00  0.00    +0.043 C 
BRANCH  28   9
ATOM      6  O   UNL     1      -0.044   3.845  24.942  0.00  0.00    -0.276 OA
ATOM      9  N   UNL     1      -1.395   3.697  26.832  0.00  0.00    -0.311 N 
ATOM     31  C   UNL     1      -0.279   3.406  26.066  0.00  0.00    +0.210 C 
ATOM     33  C   UNL     1       0.676   2.481  26.772  0.00  0.00    +0.109 C 
ATOM     38  H   UNL     1      -1.504   3.235  27.732  0.00  0.00    +0.149 HD
ENDBRANCH  28   9
ENDBRANCH  22  24
ENDBRANCH  13  22
TORSDOF 10
ENDMDL
MODEL 2
REMARK VINA RESULT:       0.8      1.911      4.678
REMARK  Name = 44716920
REMARK  14 active torsions:
REMARK  status: ('A' for Active; 'I' for Inactive)
REMARK    1  A    between atoms: O_1  and  C_16
REMARK    2  A    between atoms: O_1  and  C_25
REMARK    3  A    between atoms: O_2  and  C_17
REMARK    4  A    between atoms: O_3  and  C_21
REMARK    5  A    between atoms: N_8  and  C_30
REMARK    6  A    between atoms: N_9  and  C_28
REMARK    7  A    between atoms: C_10  and  C_20
REMARK    8  A    between atoms: C_12  and  C_21
REMARK    9  A    between atoms: C_12  and  C_23
REMARK   10  A    between atoms: C_13  and  C_22
REMARK   11  A    between atoms: C_22  and  C_24
REMARK   12  A    between atoms: C_30  and  C_32
REMARK   13  A    between atoms: C_31  and  C_33
REMARK   14  A    between atoms: C_32  and  C_34
REMARK                            x       y       z     vdW  Elec       q    Type
REMARK                         _______ _______ _______ _____ _____    ______ ____
ROOT
ATOM     10  C   UNL     1      -2.847   2.866  24.410  0.00  0.00    -0.023 C 
ATOM     11  C   UNL     1      -1.835   3.202  25.573  0.00  0.00    +0.007 C 
ATOM     12  C   UNL     1      -0.318   3.359  25.168  0.00  0.00    +0.031 C 
ATOM     13  C   UNL     1      -4.213   2.446  25.093  0.00  0.00    +0.032 C 
ATOM     14  C   UNL     1      -2.288   1.664  23.604  0.00  0.00    +0.011 C 
ATOM     15  C   UNL     1      -2.382   4.333  26.471  0.00  0.00    +0.007 C 
ATOM     16  C   UNL     1       0.100   2.135  24.299  0.00  0.00    +0.186 C 
ATOM     17  C   UNL     1      -4.764   3.507  26.074  0.00  0.00    +0.119 C 
ATOM     18  C   UNL     1      -0.848   1.850  23.139  0.00  0.00    +0.046 C 
ATOM     19  C   UNL     1      -3.721   3.943  27.100  0.00  0.00    +0.032 C 
ATOM     20  C   UNL     1      -3.071   4.040  23.425  0.00  0.00    +0.012 C 
ATOM     23  C   UNL     1       0.557   3.337  26.455  0.00  0.00    +0.017 C 
ENDROOT
BRANCH  17   2
ATOM      2  O   UNL     1      -5.252   4.645  25.371  0.00  0.00    -0.391 OA
ATOM     35  H   UNL     1      -5.258   5.395  25.989  0.00  0.00    +0.210 HD
ENDBRANCH  17   2
BRANCH  16   1
ATOM      1  O   UNL     1       1.404   2.300  23.743  0.00  0.00    -0.446 OA
BRANCH   1  25
ATOM      5  O   UNL     1       1.411   0.112  23.049  0.00  0.00    -0.226 OA
ATOM      8  N   UNL     1       3.344   1.394  23.055  0.00  0.00    -0.281 N 
ATOM     25  C   UNL     1       2.000   1.167  23.261  0.00  0.00    +0.401 C 
ATOM     37  H   UNL     1       3.710   2.318  23.267  0.00  0.00    +0.152 HD
BRANCH   8  30
ATOM     30  C   UNL     1       4.259   0.397  22.549  0.00  0.00    +0.107 C 
BRANCH  30  32
ATOM     32  C   UNL     1       5.484   0.228  23.439  0.00  0.00    +0.015 C 
ATOM     34  C   UNL     1       5.435  -1.044  24.274  0.00  0.00    +0.005 C 
ENDBRANCH  30  32
ENDBRANCH   8  30
ENDBRANCH   1  25
ENDBRANCH  16   1
BRANCH  12  21
ATOM     21  C   UNL     1       0.010   4.690  24.461  0.00  0.00    +0.166 C 
BRANCH  21   3
ATOM      3  O   UNL     1      -0.849   5.680  24.982  0.00  0.00    -0.394 OA
ATOM     36  H   UNL     1      -1.254   6.139  24.226  0.00  0.00    +0.209 HD
ENDBRANCH  21   3
ENDBRANCH  12  21
BRANCH  13  22
ATOM     22  C   UNL     1      -5.319   2.016  24.117  0.00  0.00    +0.102 C 
BRANCH  22  24
ATOM      4  O   UNL     1      -6.925   0.537  25.070  0.00  0.00    -0.276 OA
ATOM      7  N   UNL     1      -5.015  -0.411  24.181  0.00  0.00    -0.300 N 
ATOM     24  C   UNL     1      -5.837   0.653  24.502  0.00  0.00    +0.216 C 
ATOM     26  C   UNL     1      -3.719  -0.342  23.507  0.00  0.00    +0.130 C 
ATOM     27  C   UNL     1      -5.372  -1.788  24.495  0.00  0.00    +0.109 C 
ATOM     28  C   UNL     1      -3.130  -1.743  23.657  0.00  0.00    +0.092 C 
ATOM     29  C   UNL     1      -4.371  -2.631  23.716  0.00  0.00    +0.043 C 
BRANCH  28   9
ATOM      6  O   UNL     1      -0.264  -1.374  23.934  0.00  0.00    -0.276 OA
ATOM      9  N   UNL     1      -2.343  -1.861  24.861  0.00  0.00    -0.311 N 
ATOM     31  C   UNL     1      -0.972  -1.666  24.895  0.00  0.00    +0.210 C 
ATOM     33  C   UNL     1      -0.405  -1.825  26.280  0.00  0.00    +0.109 C 
ATOM     38  H   UNL     1      -2.818  -2.145  25.714  0.00  0.00    +0.149 HD
ENDBRANCH  28   9
ENDBRANCH  22  24
ENDBRANCH  13  22
TORSDOF 10
ENDMDL
MODEL 3
REMARK VINA RESULT:       1.6      1.614      2.385
REMARK  Name = 44716920
REMARK  14 active torsions:
REMARK  status: ('A' for Active; 'I' for Inactive)
REMARK    1  A    between atoms: O_1  and  C_16
REMARK    2  A    between atoms: O_1  and  C_25
REMARK    3  A    between atoms: O_2  and  C_17
REMARK    4  A    between atoms: O_3  and  C_21
REMARK    5  A    between atoms: N_8  and  C_30
REMARK    6  A    between atoms: N_9  and  C_28
REMARK    7  A    between atoms: C_10  and  C_20
REMARK    8  A    between atoms: C_12  and  C_21
REMARK    9  A    between atoms: C_12  and  C_23
REMARK   10  A    between atoms: C_13  and  C_22
REMARK   11  A    between atoms: C_22  and  C_24
REMARK   12  A    between atoms: C_30  and  C_32
REMARK   13  A    between atoms: C_31  and  C_33
REMARK   14  A    between atoms: C_32  and  C_34
REMARK                            x       y       z     vdW  Elec       q    Type
REMARK                         _______ _______ _______ _____ _____    ______ ____
ROOT
ATOM     10  C   UNL     1      -1.877  -0.357  24.991  0.00  0.00    -0.023 C 
ATOM     11  C   UNL     1      -1.105  -1.045  23.800  0.00  0.00    +0.007 C 
ATOM     12  C   UNL     1       0.406  -0.637  23.607  0.00  0.00    +0.031 C 
ATOM     13  C   UNL     1      -3.417  -0.669  24.785  0.00  0.00    +0.032 C 
ATOM     14  C   UNL     1      -1.651   1.176  24.902  0.00  0.00    +0.011 C 
ATOM     15  C   UNL     1      -1.368  -2.567  23.778  0.00  0.00    +0.007 C 
ATOM     16  C   UNL     1       0.513   0.918  23.615  0.00  0.00    +0.186 C 
ATOM     17  C   UNL     1      -3.729  -2.179  24.667  0.00  0.00    +0.119 C 
ATOM     18  C   UNL     1      -0.184   1.577  24.800  0.00  0.00    +0.046 C 
ATOM     19  C   UNL     1      -2.860  -2.869  23.619  0.00  0.00    +0.032 C 
ATOM     20  C   UNL     1      -1.410  -0.829  26.389  0.00  0.00    +0.012 C 
ATOM     23  C   UNL     1       0.892  -1.130  22.213  0.00  0.00    +0.017 C 
ENDROOT
BRANCH  17   2
ATOM      2  O   UNL     1      -3.576  -2.830  25.923  0.00  0.00    -0.391 OA
ATOM     35  H   UNL     1      -4.464  -2.974  26.293  0.00  0.00    +0.210 HD
ENDBRANCH  17   2
BRANCH  16   1
ATOM      1  O   UNL     1       1.871   1.356  23.630  0.00  0.00    -0.446 OA
BRANCH   1  25
ATOM      5  O   UNL     1       2.322   0.286  21.649  0.00  0.00    -0.226 OA
ATOM      8  N   UNL     1       4.004   0.830  23.150  0.00  0.00    -0.281 N 
ATOM     25  C   UNL     1       2.699   0.777  22.708  0.00  0.00    +0.401 C 
ATOM     37  H   UNL     1       4.186   1.269  24.049  0.00  0.00    +0.152 HD
BRANCH   8  30
ATOM     30  C   UNL     1       5.126   0.304  22.407  0.00  0.00    +0.107 C 
BRANCH  30  32
ATOM     32  C   UNL     1       6.184  -0.314  23.313  0.00  0.00    +0.015 C 
ATOM     34  C   UNL     1       5.651  -0.648  24.699  0.00  0.00    +0.005 C 
ENDBRANCH  30  32
ENDBRANCH   8  30
ENDBRANCH   1  25
ENDBRANCH  16   1
BRANCH  12  21
ATOM     21  C   UNL     1       1.366  -1.272  24.633  0.00  0.00    +0.166 C 
BRANCH  21   3
ATOM      3  O   UNL     1       2.541  -1.651  23.951  0.00  0.00    -0.394 OA
ATOM     36  H   UNL     1       3.289  -1.225  24.403  0.00  0.00    +0.209 HD
ENDBRANCH  21   3
ENDBRANCH  12  21
BRANCH  13  22
ATOM     22  C   UNL     1      -4.352  -0.024  25.820  0.00  0.00    +0.102 C 
BRANCH  22  24
ATOM      4  O   UNL     1      -6.139   0.679  24.410  0.00  0.00    -0.276 OA
ATOM      7  N   UNL     1      -4.881   2.332  25.421  0.00  0.00    -0.300 N 
ATOM     24  C   UNL     1      -5.213   1.017  25.150  0.00  0.00    +0.216 C 
ATOM     26  C   UNL     1      -3.799   2.799  26.288  0.00  0.00    +0.130 C 
ATOM     27  C   UNL     1      -5.612   3.451  24.843  0.00  0.00    +0.109 C 
ATOM     28  C   UNL     1      -3.702   4.298  26.012  0.00  0.00    +0.092 C 
ATOM     29  C   UNL     1      -5.132   4.668  25.624  0.00  0.00    +0.043 C 
BRANCH  28   9
ATOM      6  O   UNL     1      -0.802   4.299  26.138  0.00  0.00    -0.276 OA
ATOM      9  N   UNL     1      -2.778   4.579  24.940  0.00  0.00    -0.311 N 
ATOM     31  C   UNL     1      -1.402   4.555  25.097  0.00  0.00    +0.210 C 
ATOM     33  C   UNL     1      -0.674   4.861  23.816  0.00  0.00    +0.109 C 
ATOM     38  H   UNL     1      -3.163   4.852  24.039  0.00  0.00    +0.149 HD
ENDBRANCH  28   9
ENDBRANCH  22  24
ENDBRANCH  13  22
TORSDOF 10
ENDMDL
MODEL 4
REMARK VINA RESULT:       3.0      1.754      6.006
REMARK  Name = 44716920
REMARK  14 active torsions:
REMARK  status: ('A' for Active; 'I' for Inactive)
REMARK    1  A    between atoms: O_1  and  C_16
REMARK    2  A    between atoms: O_1  and  C_25
REMARK    3  A    between atoms: O_2  and  C_17
REMARK    4  A    between atoms: O_3  and  C_21
REMARK    5  A    between atoms: N_8  and  C_30
REMARK    6  A    between atoms: N_9  and  C_28
REMARK    7  A    between atoms: C_10  and  C_20
REMARK    8  A    between atoms: C_12  and  C_21
REMARK    9  A    between atoms: C_12  and  C_23
REMARK   10  A    between atoms: C_13  and  C_22
REMARK   11  A    between atoms: C_22  and  C_24
REMARK   12  A    between atoms: C_30  and  C_32
REMARK   13  A    between atoms: C_31  and  C_33
REMARK   14  A    between atoms: C_32  and  C_34
REMARK                            x       y       z     vdW  Elec       q    Type
REMARK                         _______ _______ _______ _____ _____    ______ ____
ROOT
ATOM     10  C   UNL     1      -2.688   0.434  25.108  0.00  0.00    -0.023 C 
ATOM     11  C   UNL     1      -4.264   0.443  25.037  0.00  0.00    +0.007 C 
ATOM     12  C   UNL     1      -4.951   1.832  24.739  0.00  0.00    +0.031 C 
ATOM     13  C   UNL     1      -2.263  -0.963  25.726  0.00  0.00    +0.032 C 
ATOM     14  C   UNL     1      -2.233   1.572  26.059  0.00  0.00    +0.011 C 
ATOM     15  C   UNL     1      -4.786  -0.729  24.177  0.00  0.00    +0.007 C 
ATOM     16  C   UNL     1      -4.354   2.905  25.699  0.00  0.00    +0.186 C 
ATOM     17  C   UNL     1      -2.832  -2.176  24.954  0.00  0.00    +0.119 C 
ATOM     18  C   UNL     1      -2.829   2.933  25.721  0.00  0.00    +0.046 C 
ATOM     19  C   UNL     1      -4.341  -2.076  24.750  0.00  0.00    +0.032 C 
ATOM     20  C   UNL     1      -2.004   0.652  23.737  0.00  0.00    +0.012 C 
ATOM     23  C   UNL     1      -6.472   1.725  25.048  0.00  0.00    +0.017 C 
ENDROOT
BRANCH  17   2
ATOM      2  O   UNL     1      -2.186  -2.327  23.695  0.00  0.00    -0.391 OA
ATOM     35  H   UNL     1      -2.853  -2.192  23.001  0.00  0.00    +0.210 HD
ENDBRANCH  17   2
BRANCH  16   1
ATOM      1  O   UNL     1      -4.793   4.220  25.363  0.00  0.00    -0.446 OA
BRANCH   1  25
ATOM      5  O   UNL     1      -4.116   5.538  23.609  0.00  0.00    -0.226 OA
ATOM      8  N   UNL     1      -2.715   5.082  25.400  0.00  0.00    -0.281 N 
ATOM     25  C   UNL     1      -3.893   5.000  24.688  0.00  0.00    +0.401 C 
ATOM     37  H   UNL     1      -2.659   4.590  26.287  0.00  0.00    +0.152 HD
BRANCH   8  30
ATOM     30  C   UNL     1      -1.561   5.832  24.960  0.00  0.00    +0.107 C 
BRANCH  30  32
ATOM     32  C   UNL     1      -0.304   4.974  24.888  0.00  0.00    +0.015 C 
ATOM     34  C   UNL     1      -0.344   3.964  23.751  0.00  0.00    +0.005 C 
ENDBRANCH  30  32
ENDBRANCH   8  30
ENDBRANCH   1  25
ENDBRANCH  16   1
BRANCH  12  21
ATOM     21  C   UNL     1      -4.853   2.279  23.266  0.00  0.00    +0.166 C 
BRANCH  21   3
ATOM      3  O   UNL     1      -3.595   2.890  23.081  0.00  0.00    -0.394 OA
ATOM     36  H   UNL     1      -3.351   3.311  23.924  0.00  0.00    +0.209 HD
ENDBRANCH  21   3
ENDBRANCH  12  21
BRANCH  13  22
ATOM     22  C   UNL     1      -0.751  -1.143  25.937  0.00  0.00    +0.102 C 
BRANCH  22  24
ATOM      4  O   UNL     1      -0.265  -2.929  24.438  0.00  0.00    -0.276 OA
ATOM      7  N   UNL     1       0.583  -0.846  23.908  0.00  0.00    -0.300 N 
ATOM     24  C   UNL     1      -0.130  -1.731  24.696  0.00  0.00    +0.216 C 
ATOM     26  C   UNL     1       0.780   0.582  24.156  0.00  0.00    +0.130 C 
ATOM     27  C   UNL     1       1.249  -1.263  22.682  0.00  0.00    +0.109 C 
ATOM     28  C   UNL     1       1.853   1.004  23.154  0.00  0.00    +0.092 C 
ATOM     29  C   UNL     1       1.634   0.038  21.991  0.00  0.00    +0.043 C 
BRANCH  28   9
ATOM      6  O   UNL     1       4.321   0.485  21.717  0.00  0.00    -0.276 OA
ATOM      9  N   UNL     1       3.178   0.866  23.709  0.00  0.00    -0.311 N 
ATOM     31  C   UNL     1       4.301   0.617  22.939  0.00  0.00    +0.210 C 
ATOM     33  C   UNL     1       5.557   0.543  23.765  0.00  0.00    +0.109 C 
ATOM     38  H   UNL     1       3.277   0.910  24.720  0.00  0.00    +0.149 HD
ENDBRANCH  28   9
ENDBRANCH  22  24
ENDBRANCH  13  22
TORSDOF 10
ENDMDL
MODEL 5
REMARK VINA RESULT:       3.6      2.149      5.880
REMARK  Name = 44716920
REMARK  14 active torsions:
REMARK  status: ('A' for Active; 'I' for Inactive)
REMARK    1  A    between atoms: O_1  and  C_16
REMARK    2  A    between atoms: O_1  and  C_25
REMARK    3  A    between atoms: O_2  and  C_17
REMARK    4  A    between atoms: O_3  and  C_21
REMARK    5  A    between atoms: N_8  and  C_30
REMARK    6  A    between atoms: N_9  and  C_28
REMARK    7  A    between atoms: C_10  and  C_20
REMARK    8  A    between atoms: C_12  and  C_21
REMARK    9  A    between atoms: C_12  and  C_23
REMARK   10  A    between atoms: C_13  and  C_22
REMARK   11  A    between atoms: C_22  and  C_24
REMARK   12  A    between atoms: C_30  and  C_32
REMARK   13  A    between atoms: C_31  and  C_33
REMARK   14  A    between atoms: C_32  and  C_34
REMARK                            x       y       z     vdW  Elec       q    Type
REMARK                         _______ _______ _______ _____ _____    ______ ____
ROOT
ATOM     10  C   UNL     1      -2.034   0.821  24.995  0.00  0.00    -0.023 C 
ATOM     11  C   UNL     1      -3.381   1.578  25.315  0.00  0.00    +0.007 C 
ATOM     12  C   UNL     1      -3.446   3.105  24.924  0.00  0.00    +0.031 C 
ATOM     13  C   UNL     1      -2.094  -0.568  25.755  0.00  0.00    +0.032 C 
ATOM     14  C   UNL     1      -0.855   1.659  25.556  0.00  0.00    +0.011 C 
ATOM     15  C   UNL     1      -4.602   0.746  24.863  0.00  0.00    +0.007 C 
ATOM     16  C   UNL     1      -2.173   3.818  25.472  0.00  0.00    +0.186 C 
ATOM     17  C   UNL     1      -3.346  -1.408  25.407  0.00  0.00    +0.119 C 
ATOM     18  C   UNL     1      -0.869   3.117  25.110  0.00  0.00    +0.046 C 
ATOM     19  C   UNL     1      -4.638  -0.612  25.567  0.00  0.00    +0.032 C 
ATOM     20  C   UNL     1      -1.790   0.603  23.482  0.00  0.00    +0.012 C 
ATOM     23  C   UNL     1      -4.679   3.756  25.614  0.00  0.00    +0.017 C 
ENDROOT
BRANCH  17   2
ATOM      2  O   UNL     1      -3.260  -1.925  24.083  0.00  0.00    -0.391 OA
ATOM     35  H   UNL     1      -2.319  -1.959  23.839  0.00  0.00    +0.210 HD
ENDBRANCH  17   2
BRANCH  16   1
ATOM      1  O   UNL     1      -2.073   5.161  24.998  0.00  0.00    -0.446 OA
BRANCH   1  25
ATOM      5  O   UNL     1      -0.162   6.422  25.176  0.00  0.00    -0.226 OA
ATOM      8  N   UNL     1      -0.445   4.874  23.472  0.00  0.00    -0.281 N 
ATOM     25  C   UNL     1      -0.828   5.567  24.601  0.00  0.00    +0.401 C 
ATOM     37  H   UNL     1      -1.090   4.185  23.094  0.00  0.00    +0.152 HD
BRANCH   8  30
ATOM     30  C   UNL     1       0.819   5.068  22.801  0.00  0.00    +0.107 C 
BRANCH  30  32
ATOM     32  C   UNL     1       0.718   6.056  21.646  0.00  0.00    +0.015 C 
ATOM     34  C   UNL     1       1.988   6.117  20.809  0.00  0.00    +0.005 C 
ENDBRANCH  30  32
ENDBRANCH   8  30
ENDBRANCH   1  25
ENDBRANCH  16   1
BRANCH  12  21
ATOM     21  C   UNL     1      -3.628   3.361  23.413  0.00  0.00    +0.166 C 
BRANCH  21   3
ATOM      3  O   UNL     1      -4.122   4.672  23.253  0.00  0.00    -0.394 OA
ATOM     36  H   UNL     1      -3.435   5.281  23.575  0.00  0.00    +0.209 HD
ENDBRANCH  21   3
ENDBRANCH  12  21
BRANCH  13  22
ATOM     22  C   UNL     1      -0.832  -1.435  25.618  0.00  0.00    +0.102 C 
BRANCH  22  24
ATOM      4  O   UNL     1      -1.288  -2.713  23.661  0.00  0.00    -0.276 OA
ATOM      7  N   UNL     1       0.340  -1.083  23.498  0.00  0.00    -0.300 N 
ATOM     24  C   UNL     1      -0.625  -1.809  24.172  0.00  0.00    +0.216 C 
ATOM     26  C   UNL     1       1.157   0.001  24.045  0.00  0.00    +0.130 C 
ATOM     27  C   UNL     1       0.662  -1.331  22.100  0.00  0.00    +0.109 C 
ATOM     28  C   UNL     1       2.227   0.250  22.983  0.00  0.00    +0.092 C 
ATOM     29  C   UNL     1       1.522  -0.143  21.687  0.00  0.00    +0.043 C 
BRANCH  28   9
ATOM      6  O   UNL     1       4.920   1.161  23.570  0.00  0.00    -0.276 OA
ATOM      9  N   UNL     1       3.398  -0.563  23.212  0.00  0.00    -0.311 N 
ATOM     31  C   UNL     1       4.648  -0.034  23.486  0.00  0.00    +0.210 C 
ATOM     33  C   UNL     1       5.686  -1.102  23.706  0.00  0.00    +0.109 C 
ATOM     38  H   UNL     1       3.302  -1.571  23.120  0.00  0.00    +0.149 HD
ENDBRANCH  28   9
ENDBRANCH  22  24
ENDBRANCH  13  22
TORSDOF 10
ENDMDL
MODEL 6
REMARK VINA RESULT:       3.7      1.976      5.979
REMARK  Name = 44716920
REMARK  14 active torsions:
REMARK  status: ('A' for Active; 'I' for Inactive)
REMARK    1  A    between atoms: O_1  and  C_16
REMARK    2  A    between atoms: O_1  and  C_25
REMARK    3  A    between atoms: O_2  and  C_17
REMARK    4  A    between atoms: O_3  and  C_21
REMARK    5  A    between atoms: N_8  and  C_30
REMARK    6  A    between atoms: N_9  and  C_28
REMARK    7  A    between atoms: C_10  and  C_20
REMARK    8  A    between atoms: C_12  and  C_21
REMARK    9  A    between atoms: C_12  and  C_23
REMARK   10  A    between atoms: C_13  and  C_22
REMARK   11  A    between atoms: C_22  and  C_24
REMARK   12  A    between atoms: C_30  and  C_32
REMARK   13  A    between atoms: C_31  and  C_33
REMARK   14  A    between atoms: C_32  and  C_34
REMARK                            x       y       z     vdW  Elec       q    Type
REMARK                         _______ _______ _______ _____ _____    ______ ____
ROOT
ATOM     10  C   UNL     1      -2.801   2.541  24.655  0.00  0.00    -0.023 C 
ATOM     11  C   UNL     1      -4.358   2.766  24.529  0.00  0.00    +0.007 C 
ATOM     12  C   UNL     1      -5.275   1.499  24.731  0.00  0.00    +0.031 C 
ATOM     13  C   UNL     1      -2.099   3.850  24.103  0.00  0.00    +0.032 C 
ATOM     14  C   UNL     1      -2.405   1.335  23.763  0.00  0.00    +0.011 C 
ATOM     15  C   UNL     1      -4.801   4.015  25.322  0.00  0.00    +0.007 C 
ATOM     16  C   UNL     1      -4.729   0.337  23.848  0.00  0.00    +0.186 C 
ATOM     17  C   UNL     1      -2.573   5.145  24.804  0.00  0.00    +0.119 C 
ATOM     18  C   UNL     1      -3.236   0.082  24.017  0.00  0.00    +0.046 C 
ATOM     19  C   UNL     1      -4.093   5.273  24.816  0.00  0.00    +0.032 C 
ATOM     20  C   UNL     1      -2.334   2.242  26.100  0.00  0.00    +0.012 C 
ATOM     23  C   UNL     1      -6.713   1.827  24.235  0.00  0.00    +0.017 C 
ENDROOT
BRANCH  17   2
ATOM      2  O   UNL     1      -2.073   5.216  26.135  0.00  0.00    -0.391 OA
ATOM     35  H   UNL     1      -1.458   4.473  26.260  0.00  0.00    +0.210 HD
ENDBRANCH  17   2
BRANCH  16   1
ATOM      1  O   UNL     1      -5.398  -0.894  24.120  0.00  0.00    -0.446 OA
BRANCH   1  25
ATOM      5  O   UNL     1      -4.591  -2.887  23.313  0.00  0.00    -0.226 OA
ATOM      8  N   UNL     1      -3.843  -1.992  25.318  0.00  0.00    -0.281 N 
ATOM     25  C   UNL     1      -4.607  -2.010  24.170  0.00  0.00    +0.401 C 
ATOM     37  H   UNL     1      -3.947  -1.202  25.948  0.00  0.00    +0.152 HD
BRANCH   8  30
ATOM     30  C   UNL     1      -2.900  -3.028  25.671  0.00  0.00    +0.107 C 
BRANCH  30  32
ATOM     32  C   UNL     1      -1.471  -2.671  25.279  0.00  0.00    +0.015 C 
ATOM     34  C   UNL     1      -1.207  -2.852  23.791  0.00  0.00    +0.005 C 
ENDBRANCH  30  32
ENDBRANCH   8  30
ENDBRANCH   1  25
ENDBRANCH  16   1
BRANCH  12  21
ATOM     21  C   UNL     1      -5.429   1.063  26.203  0.00  0.00    +0.166 C 
BRANCH  21   3
ATOM      3  O   UNL     1      -6.611   1.646  26.706  0.00  0.00    -0.394 OA
ATOM     36  H   UNL     1      -7.300   1.535  26.029  0.00  0.00    +0.209 HD
ENDBRANCH  21   3
ENDBRANCH  12  21
BRANCH  13  22
ATOM     22  C   UNL     1      -0.563   3.801  24.084  0.00  0.00    +0.102 C 
BRANCH  22  24
ATOM      4  O   UNL     1      -0.149   2.796  26.203  0.00  0.00    -0.276 OA
ATOM      7  N   UNL     1       0.440   1.583  24.328  0.00  0.00    -0.300 N 
ATOM     24  C   UNL     1      -0.078   2.688  24.977  0.00  0.00    +0.216 C 
ATOM     26  C   UNL     1       0.551   1.391  22.882  0.00  0.00    +0.130 C 
ATOM     27  C   UNL     1       0.957   0.430  25.052  0.00  0.00    +0.109 C 
ATOM     28  C   UNL     1       1.432   0.154  22.722  0.00  0.00    +0.092 C 
ATOM     29  C   UNL     1       1.131  -0.646  23.988  0.00  0.00    +0.043 C 
BRANCH  28   9
ATOM      6  O   UNL     1       3.697  -1.396  23.667  0.00  0.00    -0.276 OA
ATOM      9  N   UNL     1       2.829   0.506  22.643  0.00  0.00    -0.311 N 
ATOM     31  C   UNL     1       3.844  -0.303  23.125  0.00  0.00    +0.210 C 
ATOM     33  C   UNL     1       5.208   0.290  22.895  0.00  0.00    +0.109 C 
ATOM     38  H   UNL     1       3.070   1.414  22.255  0.00  0.00    +0.149 HD
ENDBRANCH  28   9
ENDBRANCH  22  24
ENDBRANCH  13  22
TORSDOF 10
ENDMDL
MODEL 7
REMARK VINA RESULT:       4.0      2.240      5.607
REMARK  Name = 44716920
REMARK  14 active torsions:
REMARK  status: ('A' for Active; 'I' for Inactive)
REMARK    1  A    between atoms: O_1  and  C_16
REMARK    2  A    between atoms: O_1  and  C_25
REMARK    3  A    between atoms: O_2  and  C_17
REMARK    4  A    between atoms: O_3  and  C_21
REMARK    5  A    between atoms: N_8  and  C_30
REMARK    6  A    between atoms: N_9  and  C_28
REMARK    7  A    between atoms: C_10  and  C_20
REMARK    8  A    between atoms: C_12  and  C_21
REMARK    9  A    between atoms: C_12  and  C_23
REMARK   10  A    between atoms: C_13  and  C_22
REMARK   11  A    between atoms: C_22  and  C_24
REMARK   12  A    between atoms: C_30  and  C_32
REMARK   13  A    between atoms: C_31  and  C_33
REMARK   14  A    between atoms: C_32  and  C_34
REMARK                            x       y       z     vdW  Elec       q    Type
REMARK                         _______ _______ _______ _____ _____    ______ ____
ROOT
ATOM     10  C   UNL     1      -3.536   1.585  25.019  0.00  0.00    -0.023 C 
ATOM     11  C   UNL     1      -3.720   2.945  25.796  0.00  0.00    +0.007 C 
ATOM     12  C   UNL     1      -2.447   3.869  25.916  0.00  0.00    +0.031 C 
ATOM     13  C   UNL     1      -4.826   0.711  25.307  0.00  0.00    +0.032 C 
ATOM     14  C   UNL     1      -2.290   0.858  25.589  0.00  0.00    +0.011 C 
ATOM     15  C   UNL     1      -5.002   3.674  25.337  0.00  0.00    +0.007 C 
ATOM     16  C   UNL     1      -1.247   3.010  26.419  0.00  0.00    +0.186 C 
ATOM     17  C   UNL     1      -6.149   1.428  24.948  0.00  0.00    +0.119 C 
ATOM     18  C   UNL     1      -1.035   1.724  25.628  0.00  0.00    +0.046 C 
ATOM     19  C   UNL     1      -6.244   2.814  25.579  0.00  0.00    +0.032 C 
ATOM     20  C   UNL     1      -3.331   1.764  23.495  0.00  0.00    +0.012 C 
ATOM     23  C   UNL     1      -2.714   4.968  26.986  0.00  0.00    +0.017 C 
ENDROOT
BRANCH  17   2
ATOM      2  O   UNL     1      -6.306   1.529  23.537  0.00  0.00    -0.391 OA
ATOM     35  H   UNL     1      -5.898   2.363  23.252  0.00  0.00    +0.210 HD
ENDBRANCH  17   2
BRANCH  16   1
ATOM      1  O   UNL     1      -0.020   3.736  26.375  0.00  0.00    -0.446 OA
BRANCH   1  25
ATOM      5  O   UNL     1       1.633   2.184  26.012  0.00  0.00    -0.226 OA
ATOM      8  N   UNL     1       1.544   3.435  27.964  0.00  0.00    -0.281 N 
ATOM     25  C   UNL     1       1.105   3.037  26.719  0.00  0.00    +0.401 C 
ATOM     37  H   UNL     1       1.017   4.157  28.447  0.00  0.00    +0.152 HD
BRANCH   8  30
ATOM     30  C   UNL     1       2.711   2.888  28.617  0.00  0.00    +0.107 C 
BRANCH  30  32
ATOM     32  C   UNL     1       2.352   2.010  29.809  0.00  0.00    +0.015 C 
ATOM     34  C   UNL     1       1.012   2.379  30.429  0.00  0.00    +0.005 C 
ENDBRANCH  30  32
ENDBRANCH   8  30
ENDBRANCH   1  25
ENDBRANCH  16   1
BRANCH  12  21
ATOM     21  C   UNL     1      -2.092   4.625  24.619  0.00  0.00    +0.166 C 
BRANCH  21   3
ATOM      3  O   UNL     1      -1.323   5.754  24.973  0.00  0.00    -0.394 OA
ATOM     36  H   UNL     1      -1.896   6.535  24.882  0.00  0.00    +0.209 HD
ENDBRANCH  21   3
ENDBRANCH  12  21
BRANCH  13  22
ATOM     22  C   UNL     1      -4.809  -0.693  24.682  0.00  0.00    +0.102 C 
BRANCH  22  24
ATOM      4  O   UNL     1      -4.022  -1.965  26.535  0.00  0.00    -0.276 OA
ATOM      7  N   UNL     1      -2.642  -1.830  24.688  0.00  0.00    -0.300 N 
ATOM     24  C   UNL     1      -3.798  -1.556  25.395  0.00  0.00    +0.216 C 
ATOM     26  C   UNL     1      -2.317  -1.378  23.335  0.00  0.00    +0.130 C 
ATOM     27  C   UNL     1      -1.569  -2.642  25.243  0.00  0.00    +0.109 C 
ATOM     28  C   UNL     1      -0.839  -1.720  23.158  0.00  0.00    +0.092 C 
ATOM     29  C   UNL     1      -0.660  -2.941  24.057  0.00  0.00    +0.043 C 
BRANCH  28   9
ATOM      6  O   UNL     1       1.303  -0.471  21.649  0.00  0.00    -0.276 OA
ATOM      9  N   UNL     1       0.009  -0.630  23.577  0.00  0.00    -0.311 N 
ATOM     31  C   UNL     1       1.011  -0.099  22.783  0.00  0.00    +0.210 C 
ATOM     33  C   UNL     1       1.727   1.044  23.452  0.00  0.00    +0.109 C 
ATOM     38  H   UNL     1      -0.110  -0.270  24.520  0.00  0.00    +0.149 HD
ENDBRANCH  28   9
ENDBRANCH  22  24
ENDBRANCH  13  22
TORSDOF 10
ENDMDL
MODEL 8
REMARK VINA RESULT:       4.1      2.331      5.876
REMARK  Name = 44716920
REMARK  14 active torsions:
REMARK  status: ('A' for Active; 'I' for Inactive)
REMARK    1  A    between atoms: O_1  and  C_16
REMARK    2  A    between atoms: O_1  and  C_25
REMARK    3  A    between atoms: O_2  and  C_17
REMARK    4  A    between atoms: O_3  and  C_21
REMARK    5  A    between atoms: N_8  and  C_30
REMARK    6  A    between atoms: N_9  and  C_28
REMARK    7  A    between atoms: C_10  and  C_20
REMARK    8  A    between atoms: C_12  and  C_21
REMARK    9  A    between atoms: C_12  and  C_23
REMARK   10  A    between atoms: C_13  and  C_22
REMARK   11  A    between atoms: C_22  and  C_24
REMARK   12  A    between atoms: C_30  and  C_32
REMARK   13  A    between atoms: C_31  and  C_33
REMARK   14  A    between atoms: C_32  and  C_34
REMARK                            x       y       z     vdW  Elec       q    Type
REMARK                         _______ _______ _______ _____ _____    ______ ____
ROOT
ATOM     10  C   UNL     1      -1.625   0.663  23.620  0.00  0.00    -0.023 C 
ATOM     11  C   UNL     1      -1.979  -0.636  24.442  0.00  0.00    +0.007 C 
ATOM     12  C   UNL     1      -3.507  -0.892  24.738  0.00  0.00    +0.031 C 
ATOM     13  C   UNL     1      -0.057   0.868  23.731  0.00  0.00    +0.032 C 
ATOM     14  C   UNL     1      -2.345   1.871  24.275  0.00  0.00    +0.011 C 
ATOM     15  C   UNL     1      -1.215  -1.862  23.894  0.00  0.00    +0.007 C 
ATOM     16  C   UNL     1      -4.134   0.413  25.315  0.00  0.00    +0.186 C 
ATOM     17  C   UNL     1       0.759  -0.366  23.278  0.00  0.00    +0.119 C 
ATOM     18  C   UNL     1      -3.840   1.658  24.484  0.00  0.00    +0.046 C 
ATOM     19  C   UNL     1       0.298  -1.648  23.965  0.00  0.00    +0.032 C 
ATOM     20  C   UNL     1      -2.059   0.594  22.136  0.00  0.00    +0.012 C 
ATOM     23  C   UNL     1      -3.636  -1.994  25.830  0.00  0.00    +0.017 C 
ENDROOT
BRANCH  17   2
ATOM      2  O   UNL     1       0.694  -0.527  21.865  0.00  0.00    -0.391 OA
ATOM     35  H   UNL     1       1.176  -1.340  21.637  0.00  0.00    +0.210 HD
ENDBRANCH  17   2
BRANCH  16   1
ATOM      1  O   UNL     1      -5.552   0.313  25.432  0.00  0.00    -0.446 OA
BRANCH   1  25
ATOM      5  O   UNL     1      -7.101   1.581  24.307  0.00  0.00    -0.226 OA
ATOM      8  N   UNL     1      -5.878   2.442  26.081  0.00  0.00    -0.281 N 
ATOM     25  C   UNL     1      -6.258   1.460  25.190  0.00  0.00    +0.401 C 
ATOM     37  H   UNL     1      -5.169   2.212  26.770  0.00  0.00    +0.152 HD
BRANCH   8  30
ATOM     30  C   UNL     1      -6.437   3.775  26.092  0.00  0.00    +0.107 C 
BRANCH  30  32
ATOM     32  C   UNL     1      -5.532   4.789  25.403  0.00  0.00    +0.015 C 
ATOM     34  C   UNL     1      -4.065   4.614  25.768  0.00  0.00    +0.005 C 
ENDBRANCH  30  32
ENDBRANCH   8  30
ENDBRANCH   1  25
ENDBRANCH  16   1
BRANCH  12  21
ATOM     21  C   UNL     1      -4.305  -1.410  23.524  0.00  0.00    +0.166 C 
BRANCH  21   3
ATOM      3  O   UNL     1      -4.462  -2.804  23.672  0.00  0.00    -0.394 OA
ATOM     36  H   UNL     1      -3.592  -3.171  23.904  0.00  0.00    +0.209 HD
ENDBRANCH  21   3
ENDBRANCH  12  21
BRANCH  13  22
ATOM     22  C   UNL     1       0.481   2.131  23.040  0.00  0.00    +0.102 C 
BRANCH  22  24
ATOM      4  O   UNL     1      -0.136   4.424  23.229  0.00  0.00    -0.276 OA
ATOM      7  N   UNL     1      -0.093   3.180  25.175  0.00  0.00    -0.300 N 
ATOM     24  C   UNL     1       0.054   3.354  23.811  0.00  0.00    +0.216 C 
ATOM     26  C   UNL     1       0.114   1.941  25.925  0.00  0.00    +0.130 C 
ATOM     27  C   UNL     1      -0.492   4.268  26.057  0.00  0.00    +0.109 C 
ATOM     28  C   UNL     1       0.094   2.368  27.391  0.00  0.00    +0.092 C 
ATOM     29  C   UNL     1      -0.825   3.589  27.379  0.00  0.00    +0.043 C 
BRANCH  28   9
ATOM      6  O   UNL     1       1.056   2.341  30.130  0.00  0.00    -0.276 OA
ATOM      9  N   UNL     1       1.415   2.711  27.860  0.00  0.00    -0.311 N 
ATOM     31  C   UNL     1       1.782   2.667  29.194  0.00  0.00    +0.210 C 
ATOM     33  C   UNL     1       3.223   3.049  29.405  0.00  0.00    +0.109 C 
ATOM     38  H   UNL     1       2.091   3.043  27.177  0.00  0.00    +0.149 HD
ENDBRANCH  28   9
ENDBRANCH  22  24
ENDBRANCH  13  22
TORSDOF 10
ENDMDL
