MODEL 1
REMARK VINA RESULT:      -5.8      0.000      0.000
REMARK  Name = 56774302
REMARK  12 active torsions:
REMARK  status: ('A' for Active; 'I' for Inactive)
REMARK    1  A    between atoms: N_3  and  C_7
REMARK    2  A    between atoms: C_5  and  C_10
REMARK    3  A    between atoms: C_5  and  C_11
REMARK    4  A    between atoms: C_6  and  C_9
REMARK    5  A    between atoms: C_9  and  C_12
REMARK    6  A    between atoms: C_13  and  C_15
REMARK    7  A    between atoms: C_15  and  C_18
REMARK    8  A    between atoms: C_15  and  C_19
REMARK    9  A    between atoms: C_16  and  C_17
REMARK   10  A    between atoms: C_17  and  C_20
REMARK   11  A    between atoms: C_17  and  C_21
REMARK   12  A    between atoms: C_17  and  C_22
REMARK                            x       y       z     vdW  Elec       q    Type
REMARK                         _______ _______ _______ _____ _____    ______ ____
ROOT
ATOM      5  C   UNL     1      -1.171   3.984  24.761  0.00  0.00    -0.013 C 
ATOM      6  C   UNL     1      -0.164   2.881  25.151  0.00  0.00    +0.004 C 
ATOM      7  C   UNL     1      -1.843   3.748  26.130  0.00  0.00    +0.079 C 
ATOM      8  C   UNL     1      -1.257   2.323  26.086  0.00  0.00    +0.027 C 
ATOM     10  C   UNL     1      -1.999   3.643  23.541  0.00  0.00    +0.013 C 
ATOM     11  C   UNL     1      -0.599   5.383  24.619  0.00  0.00    +0.013 C 
ENDROOT
BRANCH   7   3
ATOM      2  O   UNL     1      -3.632   1.598  25.427  0.00  0.00    -0.276 OA
ATOM      3  N   UNL     1      -3.315   3.783  26.133  0.00  0.00    -0.312 N 
ATOM     13  C   UNL     1      -4.089   2.686  25.775  0.00  0.00    +0.216 C 
ATOM     23  H   UNL     1      -3.795   4.635  26.410  0.00  0.00    +0.149 HD
BRANCH  13  15
ATOM     15  C   UNL     1      -5.587   2.970  25.851  0.00  0.00    +0.069 C 
ATOM     18  C   UNL     1      -5.876   4.396  25.385  0.00  0.00    +0.017 C 
ATOM     19  C   UNL     1      -6.379   1.965  25.018  0.00  0.00    +0.017 C 
ENDBRANCH  13  15
ENDBRANCH   7   3
BRANCH   6   9
ATOM      9  C   UNL     1       0.285   1.936  24.062  0.00  0.00    +0.063 C 
BRANCH   9  12
ATOM      1  O   UNL     1      -0.599  -1.541  24.438  0.00  0.00    -0.359 OA
ATOM      4  N   UNL     1       0.329  -0.514  24.316  0.00  0.00    -0.083 NA
ATOM     12  C   UNL     1      -0.400   0.600  24.210  0.00  0.00    +0.084 A 
ATOM     14  C   UNL     1      -1.781   0.340  24.257  0.00  0.00    +0.071 A 
ATOM     16  C   UNL     1      -1.852  -1.020  24.401  0.00  0.00    +0.143 A 
BRANCH  16  17
ATOM     17  C   UNL     1      -2.962  -1.974  24.517  0.00  0.00    +0.023 C 
ATOM     20  C   UNL     1      -2.592  -3.383  23.934  0.00  0.00    +0.019 C 
ATOM     21  C   UNL     1      -4.297  -1.579  23.780  0.00  0.00    +0.019 C 
ATOM     22  C   UNL     1      -3.388  -2.202  26.009  0.00  0.00    +0.019 C 
ENDBRANCH  16  17
ENDBRANCH   9  12
ENDBRANCH   6   9
TORSDOF 5
ENDMDL
MODEL 2
REMARK VINA RESULT:      -5.2      1.984      4.441
REMARK  Name = 56774302
REMARK  12 active torsions:
REMARK  status: ('A' for Active; 'I' for Inactive)
REMARK    1  A    between atoms: N_3  and  C_7
REMARK    2  A    between atoms: C_5  and  C_10
REMARK    3  A    between atoms: C_5  and  C_11
REMARK    4  A    between atoms: C_6  and  C_9
REMARK    5  A    between atoms: C_9  and  C_12
REMARK    6  A    between atoms: C_13  and  C_15
REMARK    7  A    between atoms: C_15  and  C_18
REMARK    8  A    between atoms: C_15  and  C_19
REMARK    9  A    between atoms: C_16  and  C_17
REMARK   10  A    between atoms: C_17  and  C_20
REMARK   11  A    between atoms: C_17  and  C_21
REMARK   12  A    between atoms: C_17  and  C_22
REMARK                            x       y       z     vdW  Elec       q    Type
REMARK                         _______ _______ _______ _____ _____    ______ ____
ROOT
ATOM      5  C   UNL     1      -0.012   0.277  23.499  0.00  0.00    -0.013 C 
ATOM      6  C   UNL     1      -0.524  -0.725  24.556  0.00  0.00    +0.004 C 
ATOM      7  C   UNL     1       0.407   1.185  24.674  0.00  0.00    +0.079 C 
ATOM      8  C   UNL     1      -0.681   0.479  25.508  0.00  0.00    +0.027 C 
ATOM     10  C   UNL     1      -1.102   0.813  22.595  0.00  0.00    +0.013 C 
ATOM     11  C   UNL     1       1.167  -0.186  22.663  0.00  0.00    +0.013 C 
ENDROOT
BRANCH   7   3
ATOM      2  O   UNL     1      -0.977   2.964  26.473  0.00  0.00    -0.276 OA
ATOM      3  N   UNL     1       0.166   2.625  24.486  0.00  0.00    -0.312 N 
ATOM     13  C   UNL     1      -0.516   3.397  25.418  0.00  0.00    +0.216 C 
ATOM     23  H   UNL     1       0.511   3.085  23.647  0.00  0.00    +0.149 HD
BRANCH  13  15
ATOM     15  C   UNL     1      -0.644   4.859  24.994  0.00  0.00    +0.069 C 
ATOM     18  C   UNL     1      -0.302   5.009  23.514  0.00  0.00    +0.017 C 
ATOM     19  C   UNL     1      -2.048   5.390  25.274  0.00  0.00    +0.017 C 
ENDBRANCH  13  15
ENDBRANCH   7   3
BRANCH   6   9
ATOM      9  C   UNL     1      -1.805  -1.463  24.247  0.00  0.00    +0.063 C 
BRANCH   9  12
ATOM      1  O   UNL     1      -4.652  -0.319  26.146  0.00  0.00    -0.359 OA
ATOM      4  N   UNL     1      -3.640  -1.233  25.876  0.00  0.00    -0.083 NA
ATOM     12  C   UNL     1      -2.989  -0.726  24.825  0.00  0.00    +0.084 A 
ATOM     14  C   UNL     1      -3.539   0.493  24.393  0.00  0.00    +0.071 A 
ATOM     16  C   UNL     1      -4.582   0.703  25.257  0.00  0.00    +0.143 A 
BRANCH  16  17
ATOM     17  C   UNL     1      -5.585   1.766  25.399  0.00  0.00    +0.023 C 
ATOM     20  C   UNL     1      -4.957   3.194  25.237  0.00  0.00    +0.019 C 
ATOM     21  C   UNL     1      -6.347   1.823  26.777  0.00  0.00    +0.019 C 
ATOM     22  C   UNL     1      -6.722   1.650  24.325  0.00  0.00    +0.019 C 
ENDBRANCH  16  17
ENDBRANCH   9  12
ENDBRANCH   6   9
TORSDOF 5
ENDMDL
MODEL 3
REMARK VINA RESULT:      -5.2     18.818     20.791
REMARK  Name = 56774302
REMARK  12 active torsions:
REMARK  status: ('A' for Active; 'I' for Inactive)
REMARK    1  A    between atoms: N_3  and  C_7
REMARK    2  A    between atoms: C_5  and  C_10
REMARK    3  A    between atoms: C_5  and  C_11
REMARK    4  A    between atoms: C_6  and  C_9
REMARK    5  A    between atoms: C_9  and  C_12
REMARK    6  A    between atoms: C_13  and  C_15
REMARK    7  A    between atoms: C_15  and  C_18
REMARK    8  A    between atoms: C_15  and  C_19
REMARK    9  A    between atoms: C_16  and  C_17
REMARK   10  A    between atoms: C_17  and  C_20
REMARK   11  A    between atoms: C_17  and  C_21
REMARK   12  A    between atoms: C_17  and  C_22
REMARK                            x       y       z     vdW  Elec       q    Type
REMARK                         _______ _______ _______ _____ _____    ______ ____
ROOT
ATOM      5  C   UNL     1      15.855  -6.906  28.311  0.00  0.00    -0.013 C 
ATOM      6  C   UNL     1      17.262  -7.146  27.726  0.00  0.00    +0.004 C 
ATOM      7  C   UNL     1      16.185  -7.996  29.352  0.00  0.00    +0.079 C 
ATOM      8  C   UNL     1      17.184  -8.566  28.325  0.00  0.00    +0.027 C 
ATOM     10  C   UNL     1      14.735  -7.221  27.343  0.00  0.00    +0.013 C 
ATOM     11  C   UNL     1      15.623  -5.544  28.940  0.00  0.00    +0.013 C 
ENDROOT
BRANCH   7   3
ATOM      2  O   UNL     1      14.218  -7.682  31.438  0.00  0.00    -0.276 OA
ATOM      3  N   UNL     1      15.085  -8.919  29.680  0.00  0.00    -0.312 N 
ATOM     13  C   UNL     1      14.186  -8.673  30.711  0.00  0.00    +0.216 C 
ATOM     23  H   UNL     1      14.965  -9.769  29.136  0.00  0.00    +0.149 HD
BRANCH  13  15
ATOM     15  C   UNL     1      13.142  -9.778  30.860  0.00  0.00    +0.069 C 
ATOM     18  C   UNL     1      13.145 -10.674  29.624  0.00  0.00    +0.017 C 
ATOM     19  C   UNL     1      13.394 -10.604  32.119  0.00  0.00    +0.017 C 
ENDBRANCH  13  15
ENDBRANCH   7   3
BRANCH   6   9
ATOM      9  C   UNL     1      17.405  -7.097  26.223  0.00  0.00    +0.063 C 
BRANCH   9  12
ATOM      1  O   UNL     1      17.213  -3.518  25.810  0.00  0.00    -0.359 OA
ATOM      4  N   UNL     1      17.395  -4.659  26.582  0.00  0.00    -0.083 NA
ATOM     12  C   UNL     1      17.265  -5.678  25.728  0.00  0.00    +0.084 A 
ATOM     14  C   UNL     1      17.001  -5.245  24.416  0.00  0.00    +0.071 A 
ATOM     16  C   UNL     1      16.979  -3.880  24.523  0.00  0.00    +0.143 A 
BRANCH  16  17
ATOM     17  C   UNL     1      16.763  -2.789  23.565  0.00  0.00    +0.023 C 
ATOM     20  C   UNL     1      17.388  -1.437  24.059  0.00  0.00    +0.019 C 
ATOM     21  C   UNL     1      15.262  -2.435  23.241  0.00  0.00    +0.019 C 
ATOM     22  C   UNL     1      17.405  -3.097  22.167  0.00  0.00    +0.019 C 
ENDBRANCH  16  17
ENDBRANCH   9  12
ENDBRANCH   6   9
TORSDOF 5
ENDMDL
MODEL 4
REMARK VINA RESULT:      -5.1      1.664      4.863
REMARK  Name = 56774302
REMARK  12 active torsions:
REMARK  status: ('A' for Active; 'I' for Inactive)
REMARK    1  A    between atoms: N_3  and  C_7
REMARK    2  A    between atoms: C_5  and  C_10
REMARK    3  A    between atoms: C_5  and  C_11
REMARK    4  A    between atoms: C_6  and  C_9
REMARK    5  A    between atoms: C_9  and  C_12
REMARK    6  A    between atoms: C_13  and  C_15
REMARK    7  A    between atoms: C_15  and  C_18
REMARK    8  A    between atoms: C_15  and  C_19
REMARK    9  A    between atoms: C_16  and  C_17
REMARK   10  A    between atoms: C_17  and  C_20
REMARK   11  A    between atoms: C_17  and  C_21
REMARK   12  A    between atoms: C_17  and  C_22
REMARK                            x       y       z     vdW  Elec       q    Type
REMARK                         _______ _______ _______ _____ _____    ______ ____
ROOT
ATOM      5  C   UNL     1      -3.431  -2.038  24.840  0.00  0.00    -0.013 C 
ATOM      6  C   UNL     1      -2.284  -1.906  23.816  0.00  0.00    +0.004 C 
ATOM      7  C   UNL     1      -4.276  -1.163  23.890  0.00  0.00    +0.079 C 
ATOM      8  C   UNL     1      -2.947  -0.590  23.359  0.00  0.00    +0.027 C 
ATOM     10  C   UNL     1      -3.108  -1.440  26.191  0.00  0.00    +0.013 C 
ATOM     11  C   UNL     1      -4.002  -3.433  25.018  0.00  0.00    +0.013 C 
ENDROOT
BRANCH   7   3
ATOM      2  O   UNL     1      -3.901   1.696  23.907  0.00  0.00    -0.276 OA
ATOM      3  N   UNL     1      -5.134  -0.159  24.542  0.00  0.00    -0.312 N 
ATOM     13  C   UNL     1      -4.864   1.202  24.490  0.00  0.00    +0.216 C 
ATOM     23  H   UNL     1      -5.962  -0.462  25.049  0.00  0.00    +0.149 HD
BRANCH  13  15
ATOM     15  C   UNL     1      -5.894   2.038  25.247  0.00  0.00    +0.069 C 
ATOM     18  C   UNL     1      -6.261   1.355  26.562  0.00  0.00    +0.017 C 
ATOM     19  C   UNL     1      -5.371   3.449  25.506  0.00  0.00    +0.017 C 
ENDBRANCH  13  15
ENDBRANCH   7   3
BRANCH   6   9
ATOM      9  C   UNL     1      -0.883  -1.756  24.361  0.00  0.00    +0.063 C 
BRANCH   9  12
ATOM      1  O   UNL     1       0.453   1.585  24.094  0.00  0.00    -0.359 OA
ATOM      4  N   UNL     1       0.370   0.258  23.692  0.00  0.00    -0.083 NA
ATOM     12  C   UNL     1      -0.530  -0.296  24.509  0.00  0.00    +0.084 A 
ATOM     14  C   UNL     1      -1.044   0.625  25.439  0.00  0.00    +0.071 A 
ATOM     16  C   UNL     1      -0.393   1.791  25.135  0.00  0.00    +0.143 A 
BRANCH  16  17
ATOM     17  C   UNL     1      -0.432   3.150  25.689  0.00  0.00    +0.023 C 
ATOM     20  C   UNL     1      -1.849   3.515  26.256  0.00  0.00    +0.019 C 
ATOM     21  C   UNL     1      -0.096   4.319  24.687  0.00  0.00    +0.019 C 
ATOM     22  C   UNL     1       0.586   3.336  26.867  0.00  0.00    +0.019 C 
ENDBRANCH  16  17
ENDBRANCH   9  12
ENDBRANCH   6   9
TORSDOF 5
ENDMDL
MODEL 5
REMARK VINA RESULT:      -4.9      1.748      6.202
REMARK  Name = 56774302
REMARK  12 active torsions:
REMARK  status: ('A' for Active; 'I' for Inactive)
REMARK    1  A    between atoms: N_3  and  C_7
REMARK    2  A    between atoms: C_5  and  C_10
REMARK    3  A    between atoms: C_5  and  C_11
REMARK    4  A    between atoms: C_6  and  C_9
REMARK    5  A    between atoms: C_9  and  C_12
REMARK    6  A    between atoms: C_13  and  C_15
REMARK    7  A    between atoms: C_15  and  C_18
REMARK    8  A    between atoms: C_15  and  C_19
REMARK    9  A    between atoms: C_16  and  C_17
REMARK   10  A    between atoms: C_17  and  C_20
REMARK   11  A    between atoms: C_17  and  C_21
REMARK   12  A    between atoms: C_17  and  C_22
REMARK                            x       y       z     vdW  Elec       q    Type
REMARK                         _______ _______ _______ _____ _____    ______ ____
ROOT
ATOM      5  C   UNL     1      -3.525  -1.436  24.171  0.00  0.00    -0.013 C 
ATOM      6  C   UNL     1      -4.003  -0.745  25.466  0.00  0.00    +0.004 C 
ATOM      7  C   UNL     1      -2.175  -1.665  24.882  0.00  0.00    +0.079 C 
ATOM      8  C   UNL     1      -2.518  -0.446  25.762  0.00  0.00    +0.027 C 
ATOM     10  C   UNL     1      -3.501  -0.517  22.969  0.00  0.00    +0.013 C 
ATOM     11  C   UNL     1      -4.230  -2.731  23.813  0.00  0.00    +0.013 C 
ENDROOT
BRANCH   7   3
ATOM      2  O   UNL     1      -0.238   0.461  25.089  0.00  0.00    -0.276 OA
ATOM      3  N   UNL     1      -0.975  -1.475  24.050  0.00  0.00    -0.312 N 
ATOM     13  C   UNL     1      -0.100  -0.411  24.232  0.00  0.00    +0.216 C 
ATOM     23  H   UNL     1      -0.765  -2.144  23.314  0.00  0.00    +0.149 HD
BRANCH  13  15
ATOM     15  C   UNL     1       1.063  -0.427  23.243  0.00  0.00    +0.069 C 
ATOM     18  C   UNL     1       0.540  -0.592  21.818  0.00  0.00    +0.017 C 
ATOM     19  C   UNL     1       1.901   0.844  23.361  0.00  0.00    +0.017 C 
ENDBRANCH  13  15
ENDBRANCH   7   3
BRANCH   6   9
ATOM      9  C   UNL     1      -4.880   0.476  25.317  0.00  0.00    +0.063 C 
BRANCH   9  12
ATOM      1  O   UNL     1      -3.533   3.638  24.221  0.00  0.00    -0.359 OA
ATOM      4  N   UNL     1      -4.552   2.698  24.303  0.00  0.00    -0.083 NA
ATOM     12  C   UNL     1      -4.039   1.694  25.020  0.00  0.00    +0.084 A 
ATOM     14  C   UNL     1      -2.712   1.942  25.413  0.00  0.00    +0.071 A 
ATOM     16  C   UNL     1      -2.443   3.177  24.885  0.00  0.00    +0.143 A 
BRANCH  16  17
ATOM     17  C   UNL     1      -1.265   4.053  24.899  0.00  0.00    +0.023 C 
ATOM     20  C   UNL     1      -1.647   5.551  25.166  0.00  0.00    +0.019 C 
ATOM     21  C   UNL     1      -0.412   4.092  23.575  0.00  0.00    +0.019 C 
ATOM     22  C   UNL     1      -0.240   3.644  26.015  0.00  0.00    +0.019 C 
ENDBRANCH  16  17
ENDBRANCH   9  12
ENDBRANCH   6   9
TORSDOF 5
ENDMDL
MODEL 6
REMARK VINA RESULT:      -3.9      2.524      5.072
REMARK  Name = 56774302
REMARK  12 active torsions:
REMARK  status: ('A' for Active; 'I' for Inactive)
REMARK    1  A    between atoms: N_3  and  C_7
REMARK    2  A    between atoms: C_5  and  C_10
REMARK    3  A    between atoms: C_5  and  C_11
REMARK    4  A    between atoms: C_6  and  C_9
REMARK    5  A    between atoms: C_9  and  C_12
REMARK    6  A    between atoms: C_13  and  C_15
REMARK    7  A    between atoms: C_15  and  C_18
REMARK    8  A    between atoms: C_15  and  C_19
REMARK    9  A    between atoms: C_16  and  C_17
REMARK   10  A    between atoms: C_17  and  C_20
REMARK   11  A    between atoms: C_17  and  C_21
REMARK   12  A    between atoms: C_17  and  C_22
REMARK                            x       y       z     vdW  Elec       q    Type
REMARK                         _______ _______ _______ _____ _____    ______ ____
ROOT
ATOM      5  C   UNL     1      -3.394  -1.282  24.578  0.00  0.00    -0.013 C 
ATOM      6  C   UNL     1      -2.032  -0.978  23.919  0.00  0.00    +0.004 C 
ATOM      7  C   UNL     1      -3.939  -0.037  23.849  0.00  0.00    +0.079 C 
ATOM      8  C   UNL     1      -2.491   0.492  23.831  0.00  0.00    +0.027 C 
ATOM     10  C   UNL     1      -3.364  -1.213  26.090  0.00  0.00    +0.013 C 
ATOM     11  C   UNL     1      -4.071  -2.567  24.137  0.00  0.00    +0.013 C 
ENDROOT
BRANCH   7   3
ATOM      2  O   UNL     1      -4.294   2.817  23.631  0.00  0.00    -0.276 OA
ATOM      3  N   UNL     1      -4.866   0.803  24.625  0.00  0.00    -0.312 N 
ATOM     13  C   UNL     1      -4.961   2.178  24.443  0.00  0.00    +0.216 C 
ATOM     23  H   UNL     1      -5.469   0.372  25.322  0.00  0.00    +0.149 HD
BRANCH  13  15
ATOM     15  C   UNL     1      -5.986   2.827  25.369  0.00  0.00    +0.069 C 
ATOM     18  C   UNL     1      -6.236   1.936  26.584  0.00  0.00    +0.017 C 
ATOM     19  C   UNL     1      -5.527   4.215  25.810  0.00  0.00    +0.017 C 
ENDBRANCH  13  15
ENDBRANCH   7   3
BRANCH   6   9
ATOM      9  C   UNL     1      -0.793  -1.209  24.752  0.00  0.00    +0.063 C 
BRANCH   9  12
ATOM      1  O   UNL     1       1.508   1.408  23.817  0.00  0.00    -0.359 OA
ATOM      4  N   UNL     1       0.327   0.957  24.393  0.00  0.00    -0.083 NA
ATOM     12  C   UNL     1       0.351  -0.369  24.236  0.00  0.00    +0.084 A 
ATOM     14  C   UNL     1       1.511  -0.808  23.573  0.00  0.00    +0.071 A 
ATOM     16  C   UNL     1       2.204   0.349  23.333  0.00  0.00    +0.143 A 
BRANCH  16  17
ATOM     17  C   UNL     1       3.488   0.648  22.686  0.00  0.00    +0.023 C 
ATOM     20  C   UNL     1       4.691  -0.050  23.412  0.00  0.00    +0.019 C 
ATOM     21  C   UNL     1       3.896   2.169  22.620  0.00  0.00    +0.019 C 
ATOM     22  C   UNL     1       3.522   0.166  21.194  0.00  0.00    +0.019 C 
ENDBRANCH  16  17
ENDBRANCH   9  12
ENDBRANCH   6   9
TORSDOF 5
ENDMDL
MODEL 7
REMARK VINA RESULT:      -3.7      2.176      4.347
REMARK  Name = 56774302
REMARK  12 active torsions:
REMARK  status: ('A' for Active; 'I' for Inactive)
REMARK    1  A    between atoms: N_3  and  C_7
REMARK    2  A    between atoms: C_5  and  C_10
REMARK    3  A    between atoms: C_5  and  C_11
REMARK    4  A    between atoms: C_6  and  C_9
REMARK    5  A    between atoms: C_9  and  C_12
REMARK    6  A    between atoms: C_13  and  C_15
REMARK    7  A    between atoms: C_15  and  C_18
REMARK    8  A    between atoms: C_15  and  C_19
REMARK    9  A    between atoms: C_16  and  C_17
REMARK   10  A    between atoms: C_17  and  C_20
REMARK   11  A    between atoms: C_17  and  C_21
REMARK   12  A    between atoms: C_17  and  C_22
REMARK                            x       y       z     vdW  Elec       q    Type
REMARK                         _______ _______ _______ _____ _____    ______ ____
ROOT
ATOM      5  C   UNL     1      -4.087   2.411  24.588  0.00  0.00    -0.013 C 
ATOM      6  C   UNL     1      -2.955   3.130  25.352  0.00  0.00    +0.004 C 
ATOM      7  C   UNL     1      -3.994   1.298  25.653  0.00  0.00    +0.079 C 
ATOM      8  C   UNL     1      -2.535   1.743  25.880  0.00  0.00    +0.027 C 
ATOM     10  C   UNL     1      -3.711   2.019  23.176  0.00  0.00    +0.013 C 
ATOM     11  C   UNL     1      -5.434   3.111  24.586  0.00  0.00    +0.013 C 
ENDROOT
BRANCH   7   3
ATOM      2  O   UNL     1      -2.194  -0.902  26.140  0.00  0.00    -0.276 OA
ATOM      3  N   UNL     1      -4.120  -0.080  25.148  0.00  0.00    -0.312 N 
ATOM     13  C   UNL     1      -3.192  -1.072  25.443  0.00  0.00    +0.216 C 
ATOM     23  H   UNL     1      -4.914  -0.329  24.564  0.00  0.00    +0.149 HD
BRANCH  13  15
ATOM     15  C   UNL     1      -3.537  -2.413  24.799  0.00  0.00    +0.069 C 
ATOM     18  C   UNL     1      -4.525  -2.208  23.653  0.00  0.00    +0.017 C 
ATOM     19  C   UNL     1      -2.280  -3.122  24.301  0.00  0.00    +0.017 C 
ENDBRANCH  13  15
ENDBRANCH   7   3
BRANCH   6   9
ATOM      9  C   UNL     1      -1.908   3.841  24.528  0.00  0.00    +0.063 C 
BRANCH   9  12
ATOM      1  O   UNL     1       1.271   2.168  24.189  0.00  0.00    -0.359 OA
ATOM      4  N   UNL     1       0.475   3.219  24.628  0.00  0.00    -0.083 NA
ATOM     12  C   UNL     1      -0.760   2.911  24.220  0.00  0.00    +0.084 A 
ATOM     14  C   UNL     1      -0.803   1.689  23.525  0.00  0.00    +0.071 A 
ATOM     16  C   UNL     1       0.499   1.264  23.533  0.00  0.00    +0.143 A 
BRANCH  16  17
ATOM     17  C   UNL     1       1.185   0.082  22.999  0.00  0.00    +0.023 C 
ATOM     20  C   UNL     1       2.740   0.278  22.941  0.00  0.00    +0.019 C 
ATOM     21  C   UNL     1       0.787  -0.352  21.538  0.00  0.00    +0.019 C 
ATOM     22  C   UNL     1       0.925  -1.195  23.873  0.00  0.00    +0.019 C 
ENDBRANCH  16  17
ENDBRANCH   9  12
ENDBRANCH   6   9
TORSDOF 5
ENDMDL
MODEL 8
REMARK VINA RESULT:      -3.3     14.635     17.675
REMARK  Name = 56774302
REMARK  12 active torsions:
REMARK  status: ('A' for Active; 'I' for Inactive)
REMARK    1  A    between atoms: N_3  and  C_7
REMARK    2  A    between atoms: C_5  and  C_10
REMARK    3  A    between atoms: C_5  and  C_11
REMARK    4  A    between atoms: C_6  and  C_9
REMARK    5  A    between atoms: C_9  and  C_12
REMARK    6  A    between atoms: C_13  and  C_15
REMARK    7  A    between atoms: C_15  and  C_18
REMARK    8  A    between atoms: C_15  and  C_19
REMARK    9  A    between atoms: C_16  and  C_17
REMARK   10  A    between atoms: C_17  and  C_20
REMARK   11  A    between atoms: C_17  and  C_21
REMARK   12  A    between atoms: C_17  and  C_22
REMARK                            x       y       z     vdW  Elec       q    Type
REMARK                         _______ _______ _______ _____ _____    ______ ____
ROOT
ATOM      5  C   UNL     1      -5.586  -9.452  11.439  0.00  0.00    -0.013 C 
ATOM      6  C   UNL     1      -4.883 -10.766  11.035  0.00  0.00    +0.004 C 
ATOM      7  C   UNL     1      -6.776  -9.912  10.572  0.00  0.00    +0.079 C 
ATOM      8  C   UNL     1      -5.767 -10.759   9.771  0.00  0.00    +0.027 C 
ATOM     10  C   UNL     1      -4.858  -8.210  10.974  0.00  0.00    +0.013 C 
ATOM     11  C   UNL     1      -5.945  -9.318  12.908  0.00  0.00    +0.013 C 
ENDROOT
BRANCH   7   3
ATOM      2  O   UNL     1      -9.608  -9.538  10.173  0.00  0.00    -0.276 OA
ATOM      3  N   UNL     1      -7.429  -8.859   9.775  0.00  0.00    -0.312 N 
ATOM     13  C   UNL     1      -8.809  -8.767   9.646  0.00  0.00    +0.216 C 
ATOM     23  H   UNL     1      -6.858  -8.165   9.299  0.00  0.00    +0.149 HD
BRANCH  13  15
ATOM     15  C   UNL     1      -9.242  -7.598   8.764  0.00  0.00    +0.069 C 
ATOM     18  C   UNL     1     -10.426  -6.871   9.398  0.00  0.00    +0.017 C 
ATOM     19  C   UNL     1      -8.085  -6.630   8.528  0.00  0.00    +0.017 C 
ENDBRANCH  13  15
ENDBRANCH   7   3
BRANCH   6   9
ATOM      9  C   UNL     1      -3.397 -10.705  10.773  0.00  0.00    +0.063 C 
BRANCH   9  12
ATOM      1  O   UNL     1      -0.943 -10.610  13.417  0.00  0.00    -0.359 OA
ATOM      4  N   UNL     1      -1.313 -10.774  12.088  0.00  0.00    -0.083 NA
ATOM     12  C   UNL     1      -2.638 -10.599  12.074  0.00  0.00    +0.084 A 
ATOM     14  C   UNL     1      -3.154 -10.325  13.353  0.00  0.00    +0.071 A 
ATOM     16  C   UNL     1      -2.047 -10.344  14.160  0.00  0.00    +0.143 A 
BRANCH  16  17
ATOM     17  C   UNL     1      -1.835 -10.141  15.598  0.00  0.00    +0.023 C 
ATOM     20  C   UNL     1      -2.981 -10.781  16.459  0.00  0.00    +0.019 C 
ATOM     21  C   UNL     1      -1.764  -8.645  16.087  0.00  0.00    +0.019 C 
ATOM     22  C   UNL     1      -0.491 -10.781  16.092  0.00  0.00    +0.019 C 
ENDBRANCH  16  17
ENDBRANCH   9  12
ENDBRANCH   6   9
TORSDOF 5
ENDMDL
MODEL 9
REMARK VINA RESULT:      -2.2     18.613     20.862
REMARK  Name = 56774302
REMARK  12 active torsions:
REMARK  status: ('A' for Active; 'I' for Inactive)
REMARK    1  A    between atoms: N_3  and  C_7
REMARK    2  A    between atoms: C_5  and  C_10
REMARK    3  A    between atoms: C_5  and  C_11
REMARK    4  A    between atoms: C_6  and  C_9
REMARK    5  A    between atoms: C_9  and  C_12
REMARK    6  A    between atoms: C_13  and  C_15
REMARK    7  A    between atoms: C_15  and  C_18
REMARK    8  A    between atoms: C_15  and  C_19
REMARK    9  A    between atoms: C_16  and  C_17
REMARK   10  A    between atoms: C_17  and  C_20
REMARK   11  A    between atoms: C_17  and  C_21
REMARK   12  A    between atoms: C_17  and  C_22
REMARK                            x       y       z     vdW  Elec       q    Type
REMARK                         _______ _______ _______ _____ _____    ______ ____
ROOT
ATOM      5  C   UNL     1      15.867  -6.454  27.663  0.00  0.00    -0.013 C 
ATOM      6  C   UNL     1      16.889  -6.585  26.513  0.00  0.00    +0.004 C 
ATOM      7  C   UNL     1      16.571  -7.659  28.322  0.00  0.00    +0.079 C 
ATOM      8  C   UNL     1      17.026  -8.070  26.908  0.00  0.00    +0.027 C 
ATOM     10  C   UNL     1      14.435  -6.672  27.226  0.00  0.00    +0.013 C 
ATOM     11  C   UNL     1      15.964  -5.188  28.494  0.00  0.00    +0.013 C 
ENDROOT
BRANCH   7   3
ATOM      2  O   UNL     1      17.346 -10.129  29.593  0.00  0.00    -0.276 OA
ATOM      3  N   UNL     1      15.683  -8.642  28.967  0.00  0.00    -0.312 N 
ATOM     13  C   UNL     1      16.160  -9.807  29.554  0.00  0.00    +0.216 C 
ATOM     23  H   UNL     1      14.681  -8.470  28.994  0.00  0.00    +0.149 HD
BRANCH  13  15
ATOM     15  C   UNL     1      15.047 -10.667  30.148  0.00  0.00    +0.069 C 
ATOM     18  C   UNL     1      14.997 -10.490  31.664  0.00  0.00    +0.017 C 
ATOM     19  C   UNL     1      13.696 -10.322  29.525  0.00  0.00    +0.017 C 
ENDBRANCH  13  15
ENDBRANCH   7   3
BRANCH   6   9
ATOM      9  C   UNL     1      16.387  -6.344  25.109  0.00  0.00    +0.063 C 
BRANCH   9  12
ATOM      1  O   UNL     1      17.306  -2.867  24.822  0.00  0.00    -0.359 OA
ATOM      4  N   UNL     1      17.402  -4.119  25.415  0.00  0.00    -0.083 NA
ATOM     12  C   UNL     1      16.548  -4.890  24.736  0.00  0.00    +0.084 A 
ATOM     14  C   UNL     1      15.890  -4.185  23.713  0.00  0.00    +0.071 A 
ATOM     16  C   UNL     1      16.403  -2.918  23.810  0.00  0.00    +0.143 A 
BRANCH  16  17
ATOM     17  C   UNL     1      16.176  -1.671  23.070  0.00  0.00    +0.023 C 
ATOM     20  C   UNL     1      14.978  -1.792  22.064  0.00  0.00    +0.019 C 
ATOM     21  C   UNL     1      17.378  -1.155  22.191  0.00  0.00    +0.019 C 
ATOM     22  C   UNL     1      15.842  -0.472  24.024  0.00  0.00    +0.019 C 
ENDBRANCH  16  17
ENDBRANCH   9  12
ENDBRANCH   6   9
TORSDOF 5
ENDMDL
