MODEL 1
REMARK VINA RESULT:      -2.1      0.000      0.000
REMARK  Name = 11867206
REMARK  3 active torsions:
REMARK  status: ('A' for Active; 'I' for Inactive)
REMARK    1  A    between atoms: S_2  and  N_8
REMARK    2  A    between atoms: S_2  and  C_20
REMARK    3  A    between atoms: N_8  and  C_18
REMARK                            x       y       z     vdW  Elec       q    Type
REMARK                         _______ _______ _______ _____ _____    ______ ____
ROOT
ATOM      3  O   UNL     1      10.892  -7.133  31.077  0.00  0.00    -0.266 OA
ATOM      6  N   UNL     1       9.352  -8.873  31.375  0.00  0.00    -0.310 N 
ATOM      7  N   UNL     1       6.524  -8.872  32.873  0.00  0.00    -0.315 NA
ATOM      9  C   UNL     1       6.981  -8.831  30.408  0.00  0.00    +0.023 C 
ATOM     10  C   UNL     1       7.716 -10.753  31.739  0.00  0.00    +0.050 C 
ATOM     11  C   UNL     1       7.122 -10.348  30.392  0.00  0.00    +0.017 C 
ATOM     12  C   UNL     1       8.379  -8.206  30.501  0.00  0.00    +0.130 C 
ATOM     13  C   UNL     1       6.063  -8.401  31.569  0.00  0.00    +0.086 C 
ATOM     14  C   UNL     1       6.764 -10.317  32.873  0.00  0.00    +0.090 C 
ATOM     15  C   UNL     1       9.088 -10.133  31.930  0.00  0.00    +0.026 A 
ATOM     16  C   UNL     1      10.033 -10.779  32.638  0.00  0.00    +0.024 A 
ATOM     17  C   UNL     1      10.595  -8.228  31.549  0.00  0.00    +0.274 A 
ATOM     18  C   UNL     1      11.589  -8.980  32.358  0.00  0.00    +0.112 A 
ATOM     19  C   UNL     1      11.324 -10.185  32.863  0.00  0.00    +0.031 A 
ATOM     26  H   UNL     1       5.833  -8.639  33.587  0.00  0.00    +0.122 HD
ENDROOT
BRANCH  18   8
ATOM      8  N   UNL     1      12.860  -8.433  32.605  0.00  0.00    -0.211 N 
ATOM     27  H   UNL     1      12.818  -7.459  32.936  0.00  0.00    +0.174 HD
BRANCH   8   2
ATOM      2  S   UNL     1      14.066  -8.734  31.454  0.00  0.00    +0.072 S 
ATOM      4  O   UNL     1      15.153  -9.473  32.068  0.00  0.00    -0.150 OA
ATOM      5  O   UNL     1      13.459  -9.212  30.227  0.00  0.00    -0.150 OA
BRANCH   2  20
ATOM      1 CL   UNL     1      16.132  -2.926  30.392  0.00  0.00    -0.084 Cl
ATOM     20  C   UNL     1      14.649  -7.092  31.153  0.00  0.00    +0.109 A 
ATOM     21  C   UNL     1      15.438  -6.849  30.043  0.00  0.00    +0.030 A 
ATOM     22  C   UNL     1      14.305  -6.083  32.034  0.00  0.00    +0.030 A 
ATOM     23  C   UNL     1      15.899  -5.554  29.807  0.00  0.00    +0.022 A 
ATOM     24  C   UNL     1      14.765  -4.787  31.797  0.00  0.00    +0.022 A 
ATOM     25  C   UNL     1      15.562  -4.523  30.684  0.00  0.00    +0.041 A 
ENDBRANCH   2  20
ENDBRANCH   8   2
ENDBRANCH  18   8
TORSDOF 3
ENDMDL
MODEL 2
REMARK VINA RESULT:      -1.3     15.025     17.248
REMARK  Name = 11867206
REMARK  3 active torsions:
REMARK  status: ('A' for Active; 'I' for Inactive)
REMARK    1  A    between atoms: S_2  and  N_8
REMARK    2  A    between atoms: S_2  and  C_20
REMARK    3  A    between atoms: N_8  and  C_18
REMARK                            x       y       z     vdW  Elec       q    Type
REMARK                         _______ _______ _______ _____ _____    ______ ____
ROOT
ATOM      3  O   UNL     1      -0.479   2.601  26.134  0.00  0.00    -0.266 OA
ATOM      6  N   UNL     1      -2.552   2.789  25.060  0.00  0.00    -0.310 N 
ATOM      7  N   UNL     1      -5.372   1.472  25.804  0.00  0.00    -0.315 NA
ATOM      9  C   UNL     1      -4.614   3.836  26.161  0.00  0.00    +0.023 C 
ATOM     10  C   UNL     1      -4.772   2.952  23.881  0.00  0.00    +0.050 C 
ATOM     11  C   UNL     1      -5.008   4.196  24.734  0.00  0.00    +0.017 C 
ATOM     12  C   UNL     1      -3.110   3.532  26.197  0.00  0.00    +0.130 C 
ATOM     13  C   UNL     1      -5.468   2.653  26.660  0.00  0.00    +0.086 C 
ATOM     14  C   UNL     1      -5.652   1.795  24.402  0.00  0.00    +0.090 C 
ATOM     15  C   UNL     1      -3.307   2.556  23.902  0.00  0.00    +0.026 A 
ATOM     16  C   UNL     1      -2.745   1.970  22.828  0.00  0.00    +0.024 A 
ATOM     17  C   UNL     1      -1.196   2.411  25.154  0.00  0.00    +0.274 A 
ATOM     18  C   UNL     1      -0.639   1.751  23.945  0.00  0.00    +0.112 A 
ATOM     19  C   UNL     1      -1.370   1.552  22.848  0.00  0.00    +0.031 A 
ATOM     26  H   UNL     1      -6.025   0.759  26.127  0.00  0.00    +0.122 HD
ENDROOT
BRANCH  18   8
ATOM      8  N   UNL     1       0.699   1.322  23.926  0.00  0.00    -0.211 N 
ATOM     27  H   UNL     1       1.350   2.056  23.613  0.00  0.00    +0.174 HD
BRANCH   8   2
ATOM      2  S   UNL     1       1.007  -0.214  23.281  0.00  0.00    +0.072 S 
ATOM      4  O   UNL     1       0.556  -1.233  24.210  0.00  0.00    -0.150 OA
ATOM      5  O   UNL     1       0.588  -0.253  21.894  0.00  0.00    -0.150 OA
BRANCH   2  20
ATOM      1 CL   UNL     1       7.262  -0.265  23.352  0.00  0.00    -0.084 Cl
ATOM     20  C   UNL     1       2.775  -0.229  23.300  0.00  0.00    +0.109 A 
ATOM     21  C   UNL     1       3.436  -1.351  23.768  0.00  0.00    +0.030 A 
ATOM     22  C   UNL     1       3.464   0.882  22.847  0.00  0.00    +0.030 A 
ATOM     23  C   UNL     1       4.830  -1.362  23.784  0.00  0.00    +0.022 A 
ATOM     24  C   UNL     1       4.859   0.871  22.861  0.00  0.00    +0.022 A 
ATOM     25  C   UNL     1       5.542  -0.251  23.330  0.00  0.00    +0.041 A 
ENDBRANCH   2  20
ENDBRANCH   8   2
ENDBRANCH  18   8
TORSDOF 3
ENDMDL
MODEL 3
REMARK VINA RESULT:      -0.5     16.561     18.293
REMARK  Name = 11867206
REMARK  3 active torsions:
REMARK  status: ('A' for Active; 'I' for Inactive)
REMARK    1  A    between atoms: S_2  and  N_8
REMARK    2  A    between atoms: S_2  and  C_20
REMARK    3  A    between atoms: N_8  and  C_18
REMARK                            x       y       z     vdW  Elec       q    Type
REMARK                         _______ _______ _______ _____ _____    ______ ____
ROOT
ATOM      3  O   UNL     1       0.084   0.800  22.801  0.00  0.00    -0.266 OA
ATOM      6  N   UNL     1      -1.067  -0.407  24.446  0.00  0.00    -0.310 N 
ATOM      7  N   UNL     1      -4.125  -1.347  24.534  0.00  0.00    -0.315 NA
ATOM      9  C   UNL     1      -2.086  -2.720  24.036  0.00  0.00    +0.023 C 
ATOM     10  C   UNL     1      -2.321  -1.663  26.234  0.00  0.00    +0.050 C 
ATOM     11  C   UNL     1      -1.841  -2.928  25.526  0.00  0.00    +0.017 C 
ATOM     12  C   UNL     1      -1.210  -1.559  23.547  0.00  0.00    +0.130 C 
ATOM     13  C   UNL     1      -3.587  -2.477  23.779  0.00  0.00    +0.086 C 
ATOM     14  C   UNL     1      -3.827  -1.460  25.964  0.00  0.00    +0.090 C 
ATOM     15  C   UNL     1      -1.530  -0.453  25.769  0.00  0.00    +0.026 A 
ATOM     16  C   UNL     1      -1.294   0.569  26.611  0.00  0.00    +0.024 A 
ATOM     17  C   UNL     1      -0.359   0.706  23.944  0.00  0.00    +0.274 A 
ATOM     18  C   UNL     1      -0.148   1.811  24.914  0.00  0.00    +0.112 A 
ATOM     19  C   UNL     1      -0.583   1.740  26.172  0.00  0.00    +0.031 A 
ATOM     26  H   UNL     1      -5.134  -1.292  24.398  0.00  0.00    +0.122 HD
ENDROOT
BRANCH  18   8
ATOM      8  N   UNL     1       0.537   2.974  24.523  0.00  0.00    -0.211 N 
ATOM     27  H   UNL     1       1.381   3.148  25.086  0.00  0.00    +0.174 HD
BRANCH   8   2
ATOM      2  S   UNL     1      -0.398   4.351  24.212  0.00  0.00    +0.072 S 
ATOM      4  O   UNL     1      -0.198   5.326  25.267  0.00  0.00    -0.150 OA
ATOM      5  O   UNL     1      -0.249   4.738  22.822  0.00  0.00    -0.150 OA
BRANCH   2  20
ATOM      1 CL   UNL     1      -6.161   2.016  24.899  0.00  0.00    -0.084 Cl
ATOM     20  C   UNL     1      -2.028   3.693  24.406  0.00  0.00    +0.109 A 
ATOM     21  C   UNL     1      -2.751   4.004  25.544  0.00  0.00    +0.030 A 
ATOM     22  C   UNL     1      -2.548   2.878  23.416  0.00  0.00    +0.030 A 
ATOM     23  C   UNL     1      -4.035   3.483  25.696  0.00  0.00    +0.022 A 
ATOM     24  C   UNL     1      -3.833   2.357  23.568  0.00  0.00    +0.022 A 
ATOM     25  C   UNL     1      -4.577   2.660  24.709  0.00  0.00    +0.041 A 
ENDBRANCH   2  20
ENDBRANCH   8   2
ENDBRANCH  18   8
TORSDOF 3
ENDMDL
MODEL 4
REMARK VINA RESULT:      -0.3     15.914     18.254
REMARK  Name = 11867206
REMARK  3 active torsions:
REMARK  status: ('A' for Active; 'I' for Inactive)
REMARK    1  A    between atoms: S_2  and  N_8
REMARK    2  A    between atoms: S_2  and  C_20
REMARK    3  A    between atoms: N_8  and  C_18
REMARK                            x       y       z     vdW  Elec       q    Type
REMARK                         _______ _______ _______ _____ _____    ______ ____
ROOT
ATOM      3  O   UNL     1       0.002   2.921  25.800  0.00  0.00    -0.266 OA
ATOM      6  N   UNL     1      -2.115   3.057  24.807  0.00  0.00    -0.310 N 
ATOM      7  N   UNL     1      -4.901   1.790  25.742  0.00  0.00    -0.315 NA
ATOM      9  C   UNL     1      -4.127   4.167  25.939  0.00  0.00    +0.023 C 
ATOM     10  C   UNL     1      -4.384   3.162  23.718  0.00  0.00    +0.050 C 
ATOM     11  C   UNL     1      -4.583   4.451  24.513  0.00  0.00    +0.017 C 
ATOM     12  C   UNL     1      -2.623   3.861  25.926  0.00  0.00    +0.130 C 
ATOM     13  C   UNL     1      -4.959   3.015  26.537  0.00  0.00    +0.086 C 
ATOM     14  C   UNL     1      -5.241   2.038  24.338  0.00  0.00    +0.090 C 
ATOM     15  C   UNL     1      -2.919   2.764  23.697  0.00  0.00    +0.026 A 
ATOM     16  C   UNL     1      -2.406   2.121  22.633  0.00  0.00    +0.024 A 
ATOM     17  C   UNL     1      -0.757   2.680  24.863  0.00  0.00    +0.274 A 
ATOM     18  C   UNL     1      -0.253   1.955  23.668  0.00  0.00    +0.112 A 
ATOM     19  C   UNL     1      -1.030   1.700  22.616  0.00  0.00    +0.031 A 
ATOM     26  H   UNL     1      -5.540   1.096  26.131  0.00  0.00    +0.122 HD
ENDROOT
BRANCH  18   8
ATOM      8  N   UNL     1       1.083   1.522  23.615  0.00  0.00    -0.211 N 
ATOM     27  H   UNL     1       1.706   2.204  23.160  0.00  0.00    +0.174 HD
BRANCH   8   2
ATOM      2  S   UNL     1       1.354  -0.088  23.164  0.00  0.00    +0.072 S 
ATOM      4  O   UNL     1       1.178  -0.230  21.731  0.00  0.00    -0.150 OA
ATOM      5  O   UNL     1       2.559  -0.578  23.805  0.00  0.00    -0.150 OA
BRANCH   2  20
ATOM      1 CL   UNL     1      -3.509  -2.894  25.925  0.00  0.00    -0.084 Cl
ATOM     20  C   UNL     1      -0.020  -0.883  23.945  0.00  0.00    +0.109 A 
ATOM     21  C   UNL     1      -0.701  -1.876  23.265  0.00  0.00    +0.030 A 
ATOM     22  C   UNL     1      -0.387  -0.494  25.221  0.00  0.00    +0.030 A 
ATOM     23  C   UNL     1      -1.785  -2.501  23.880  0.00  0.00    +0.022 A 
ATOM     24  C   UNL     1      -1.471  -1.120  25.837  0.00  0.00    +0.022 A 
ATOM     25  C   UNL     1      -2.170  -2.123  25.167  0.00  0.00    +0.041 A 
ENDBRANCH   2  20
ENDBRANCH   8   2
ENDBRANCH  18   8
TORSDOF 3
ENDMDL
MODEL 5
REMARK VINA RESULT:      -0.1     16.687     18.843
REMARK  Name = 11867206
REMARK  3 active torsions:
REMARK  status: ('A' for Active; 'I' for Inactive)
REMARK    1  A    between atoms: S_2  and  N_8
REMARK    2  A    between atoms: S_2  and  C_20
REMARK    3  A    between atoms: N_8  and  C_18
REMARK                            x       y       z     vdW  Elec       q    Type
REMARK                         _______ _______ _______ _____ _____    ______ ____
ROOT
ATOM      3  O   UNL     1      -3.139   0.528  22.565  0.00  0.00    -0.266 OA
ATOM      6  N   UNL     1      -3.909   2.161  24.058  0.00  0.00    -0.310 N 
ATOM      7  N   UNL     1      -2.262   4.102  25.999  0.00  0.00    -0.315 NA
ATOM      9  C   UNL     1      -3.367   4.653  23.816  0.00  0.00    +0.023 C 
ATOM     10  C   UNL     1      -4.734   3.885  25.700  0.00  0.00    +0.050 C 
ATOM     11  C   UNL     1      -4.700   4.859  24.523  0.00  0.00    +0.017 C 
ATOM     12  C   UNL     1      -3.327   3.231  23.238  0.00  0.00    +0.130 C 
ATOM     13  C   UNL     1      -2.206   4.926  24.793  0.00  0.00    +0.086 C 
ATOM     14  C   UNL     1      -3.566   4.197  26.660  0.00  0.00    +0.090 C 
ATOM     15  C   UNL     1      -4.651   2.450  25.212  0.00  0.00    +0.026 A 
ATOM     16  C   UNL     1      -5.268   1.465  25.891  0.00  0.00    +0.024 A 
ATOM     17  C   UNL     1      -3.764   0.843  23.576  0.00  0.00    +0.274 A 
ATOM     18  C   UNL     1      -4.450  -0.202  24.379  0.00  0.00    +0.112 A 
ATOM     19  C   UNL     1      -5.165   0.095  25.464  0.00  0.00    +0.031 A 
ATOM     26  H   UNL     1      -1.528   4.389  26.646  0.00  0.00    +0.122 HD
ENDROOT
BRANCH  18   8
ATOM      8  N   UNL     1      -4.368  -1.553  24.000  0.00  0.00    -0.211 N 
ATOM     27  H   UNL     1      -5.283  -2.026  24.009  0.00  0.00    +0.174 HD
BRANCH   8   2
ATOM      2  S   UNL     1      -3.098  -2.462  24.654  0.00  0.00    +0.072 S 
ATOM      4  O   UNL     1      -3.322  -2.664  26.073  0.00  0.00    -0.150 OA
ATOM      5  O   UNL     1      -2.812  -3.592  23.791  0.00  0.00    -0.150 OA
BRANCH   2  20
ATOM      1 CL   UNL     1       1.639   1.582  24.069  0.00  0.00    -0.084 Cl
ATOM     20  C   UNL     1      -1.758  -1.319  24.490  0.00  0.00    +0.109 A 
ATOM     21  C   UNL     1      -1.602  -0.321  25.435  0.00  0.00    +0.030 A 
ATOM     22  C   UNL     1      -0.892  -1.446  23.418  0.00  0.00    +0.030 A 
ATOM     23  C   UNL     1      -0.546   0.580  25.304  0.00  0.00    +0.022 A 
ATOM     24  C   UNL     1       0.165  -0.545  23.288  0.00  0.00    +0.022 A 
ATOM     25  C   UNL     1       0.337   0.469  24.230  0.00  0.00    +0.041 A 
ENDBRANCH   2  20
ENDBRANCH   8   2
ENDBRANCH  18   8
TORSDOF 3
ENDMDL
MODEL 6
REMARK VINA RESULT:       0.4     16.655     18.670
REMARK  Name = 11867206
REMARK  3 active torsions:
REMARK  status: ('A' for Active; 'I' for Inactive)
REMARK    1  A    between atoms: S_2  and  N_8
REMARK    2  A    between atoms: S_2  and  C_20
REMARK    3  A    between atoms: N_8  and  C_18
REMARK                            x       y       z     vdW  Elec       q    Type
REMARK                         _______ _______ _______ _____ _____    ______ ____
ROOT
ATOM      3  O   UNL     1      -0.495   0.408  26.505  0.00  0.00    -0.266 OA
ATOM      6  N   UNL     1      -1.202   2.253  25.246  0.00  0.00    -0.310 N 
ATOM      7  N   UNL     1      -4.060   3.690  25.143  0.00  0.00    -0.315 NA
ATOM      9  C   UNL     1      -1.970   4.459  26.296  0.00  0.00    +0.023 C 
ATOM     10  C   UNL     1      -1.979   4.207  23.859  0.00  0.00    +0.050 C 
ATOM     11  C   UNL     1      -1.463   5.080  25.001  0.00  0.00    +0.017 C 
ATOM     12  C   UNL     1      -1.340   3.069  26.459  0.00  0.00    +0.130 C 
ATOM     13  C   UNL     1      -3.510   4.412  26.289  0.00  0.00    +0.086 C 
ATOM     14  C   UNL     1      -3.522   4.195  23.877  0.00  0.00    +0.090 C 
ATOM     15  C   UNL     1      -1.435   2.795  23.974  0.00  0.00    +0.026 A 
ATOM     16  C   UNL     1      -1.198   2.066  22.868  0.00  0.00    +0.024 A 
ATOM     17  C   UNL     1      -0.732   0.934  25.419  0.00  0.00    +0.274 A 
ATOM     18  C   UNL     1      -0.510   0.173  24.163  0.00  0.00    +0.112 A 
ATOM     19  C   UNL     1      -0.723   0.712  22.962  0.00  0.00    +0.031 A 
ATOM     26  H   UNL     1      -5.076   3.771  25.140  0.00  0.00    +0.122 HD
ENDROOT
BRANCH  18   8
ATOM      8  N   UNL     1      -0.051  -1.155  24.212  0.00  0.00    -0.211 N 
ATOM     27  H   UNL     1       0.618  -1.374  23.460  0.00  0.00    +0.174 HD
BRANCH   8   2
ATOM      2  S   UNL     1      -1.207  -2.359  24.499  0.00  0.00    +0.072 S 
ATOM      4  O   UNL     1      -1.389  -3.157  23.300  0.00  0.00    -0.150 OA
ATOM      5  O   UNL     1      -0.935  -3.002  25.770  0.00  0.00    -0.150 OA
BRANCH   2  20
ATOM      1 CL   UNL     1      -6.353   1.122  25.223  0.00  0.00    -0.084 Cl
ATOM     20  C   UNL     1      -2.662  -1.376  24.703  0.00  0.00    +0.109 A 
ATOM     21  C   UNL     1      -3.324  -0.909  23.582  0.00  0.00    +0.030 A 
ATOM     22  C   UNL     1      -3.111  -1.093  25.981  0.00  0.00    +0.030 A 
ATOM     23  C   UNL     1      -4.472  -0.133  23.744  0.00  0.00    +0.022 A 
ATOM     24  C   UNL     1      -4.259  -0.318  26.143  0.00  0.00    +0.022 A 
ATOM     25  C   UNL     1      -4.939   0.163  25.024  0.00  0.00    +0.041 A 
ENDBRANCH   2  20
ENDBRANCH   8   2
ENDBRANCH  18   8
TORSDOF 3
ENDMDL
MODEL 7
REMARK VINA RESULT:       0.4     16.324     19.211
REMARK  Name = 11867206
REMARK  3 active torsions:
REMARK  status: ('A' for Active; 'I' for Inactive)
REMARK    1  A    between atoms: S_2  and  N_8
REMARK    2  A    between atoms: S_2  and  C_20
REMARK    3  A    between atoms: N_8  and  C_18
REMARK                            x       y       z     vdW  Elec       q    Type
REMARK                         _______ _______ _______ _____ _____    ______ ____
ROOT
ATOM      3  O   UNL     1      -5.080  -0.069  26.006  0.00  0.00    -0.266 OA
ATOM      6  N   UNL     1      -3.188  -0.415  24.669  0.00  0.00    -0.310 N 
ATOM      7  N   UNL     1      -0.087  -0.397  25.464  0.00  0.00    -0.315 NA
ATOM      9  C   UNL     1      -1.567  -2.370  25.009  0.00  0.00    +0.023 C 
ATOM     10  C   UNL     1      -1.148  -0.741  23.227  0.00  0.00    +0.050 C 
ATOM     11  C   UNL     1      -1.321  -2.231  23.512  0.00  0.00    +0.017 C 
ATOM     12  C   UNL     1      -2.892  -1.678  25.359  0.00  0.00    +0.130 C 
ATOM     13  C   UNL     1      -0.373  -1.792  25.794  0.00  0.00    +0.086 C 
ATOM     14  C   UNL     1       0.063  -0.202  24.020  0.00  0.00    +0.090 C 
ATOM     15  C   UNL     1      -2.406   0.027  23.592  0.00  0.00    +0.026 A 
ATOM     16  C   UNL     1      -2.755   1.128  22.902  0.00  0.00    +0.024 A 
ATOM     17  C   UNL     1      -4.347   0.275  25.081  0.00  0.00    +0.274 A 
ATOM     18  C   UNL     1      -4.669   1.494  24.295  0.00  0.00    +0.112 A 
ATOM     19  C   UNL     1      -3.921   1.888  23.264  0.00  0.00    +0.031 A 
ATOM     26  H   UNL     1       0.764  -0.099  25.940  0.00  0.00    +0.122 HD
ENDROOT
BRANCH  18   8
ATOM      8  N   UNL     1      -5.796   2.268  24.619  0.00  0.00    -0.211 N 
ATOM     27  H   UNL     1      -6.309   2.595  23.787  0.00  0.00    +0.174 HD
BRANCH   8   2
ATOM      2  S   UNL     1      -5.607   3.434  25.833  0.00  0.00    +0.072 S 
ATOM      4  O   UNL     1      -6.466   4.570  25.556  0.00  0.00    -0.150 OA
ATOM      5  O   UNL     1      -5.639   2.793  27.133  0.00  0.00    -0.150 OA
BRANCH   2  20
ATOM      1 CL   UNL     1       0.286   5.252  24.785  0.00  0.00    -0.084 Cl
ATOM     20  C   UNL     1      -3.942   3.949  25.537  0.00  0.00    +0.109 A 
ATOM     21  C   UNL     1      -3.687   4.874  24.540  0.00  0.00    +0.030 A 
ATOM     22  C   UNL     1      -2.924   3.417  26.309  0.00  0.00    +0.030 A 
ATOM     23  C   UNL     1      -2.374   5.279  24.307  0.00  0.00    +0.022 A 
ATOM     24  C   UNL     1      -1.610   3.823  26.076  0.00  0.00    +0.022 A 
ATOM     25  C   UNL     1      -1.335   4.753  25.075  0.00  0.00    +0.041 A 
ENDBRANCH   2  20
ENDBRANCH   8   2
ENDBRANCH  18   8
TORSDOF 3
ENDMDL
MODEL 8
REMARK VINA RESULT:       0.6     14.782     17.047
REMARK  Name = 11867206
REMARK  3 active torsions:
REMARK  status: ('A' for Active; 'I' for Inactive)
REMARK    1  A    between atoms: S_2  and  N_8
REMARK    2  A    between atoms: S_2  and  C_20
REMARK    3  A    between atoms: N_8  and  C_18
REMARK                            x       y       z     vdW  Elec       q    Type
REMARK                         _______ _______ _______ _____ _____    ______ ____
ROOT
ATOM      3  O   UNL     1      -2.296  -0.811  24.650  0.00  0.00    -0.266 OA
ATOM      6  N   UNL     1      -2.955   1.357  25.245  0.00  0.00    -0.310 N 
ATOM      7  N   UNL     1      -4.619   3.522  23.575  0.00  0.00    -0.315 NA
ATOM      9  C   UNL     1      -5.406   2.069  25.462  0.00  0.00    +0.023 C 
ATOM     10  C   UNL     1      -3.626   3.705  25.861  0.00  0.00    +0.050 C 
ATOM     11  C   UNL     1      -4.870   3.069  26.478  0.00  0.00    +0.017 C 
ATOM     12  C   UNL     1      -4.368   0.955  25.268  0.00  0.00    +0.130 C 
ATOM     13  C   UNL     1      -5.750   2.791  24.144  0.00  0.00    +0.086 C 
ATOM     14  C   UNL     1      -4.013   4.428  24.553  0.00  0.00    +0.090 C 
ATOM     15  C   UNL     1      -2.562   2.656  25.594  0.00  0.00    +0.026 A 
ATOM     16  C   UNL     1      -1.257   2.976  25.673  0.00  0.00    +0.024 A 
ATOM     17  C   UNL     1      -2.014   0.348  24.948  0.00  0.00    +0.274 A 
ATOM     18  C   UNL     1      -0.592   0.767  25.032  0.00  0.00    +0.112 A 
ATOM     19  C   UNL     1      -0.238   2.004  25.382  0.00  0.00    +0.031 A 
ATOM     26  H   UNL     1      -4.927   4.053  22.761  0.00  0.00    +0.122 HD
ENDROOT
BRANCH  18   8
ATOM      8  N   UNL     1       0.435  -0.151  24.750  0.00  0.00    -0.211 N 
ATOM     27  H   UNL     1       1.240  -0.058  25.385  0.00  0.00    +0.174 HD
BRANCH   8   2
ATOM      2  S   UNL     1       0.844  -0.372  23.122  0.00  0.00    +0.072 S 
ATOM      4  O   UNL     1       0.496  -1.719  22.710  0.00  0.00    -0.150 OA
ATOM      5  O   UNL     1       0.395   0.768  22.347  0.00  0.00    -0.150 OA
BRANCH   2  20
ATOM      1 CL   UNL     1       7.084  -0.073  23.445  0.00  0.00    -0.084 Cl
ATOM     20  C   UNL     1       2.608  -0.289  23.212  0.00  0.00    +0.109 A 
ATOM     21  C   UNL     1       3.311  -1.371  23.711  0.00  0.00    +0.030 A 
ATOM     22  C   UNL     1       3.251   0.858  22.783  0.00  0.00    +0.030 A 
ATOM     23  C   UNL     1       4.702  -1.304  23.783  0.00  0.00    +0.022 A 
ATOM     24  C   UNL     1       4.643   0.925  22.854  0.00  0.00    +0.022 A 
ATOM     25  C   UNL     1       5.368  -0.156  23.355  0.00  0.00    +0.041 A 
ENDBRANCH   2  20
ENDBRANCH   8   2
ENDBRANCH  18   8
TORSDOF 3
ENDMDL
MODEL 9
REMARK VINA RESULT:       0.7     16.803     18.778
REMARK  Name = 11867206
REMARK  3 active torsions:
REMARK  status: ('A' for Active; 'I' for Inactive)
REMARK    1  A    between atoms: S_2  and  N_8
REMARK    2  A    between atoms: S_2  and  C_20
REMARK    3  A    between atoms: N_8  and  C_18
REMARK                            x       y       z     vdW  Elec       q    Type
REMARK                         _______ _______ _______ _____ _____    ______ ____
ROOT
ATOM      3  O   UNL     1      -2.135   1.856  22.781  0.00  0.00    -0.266 OA
ATOM      6  N   UNL     1      -2.612   0.094  24.249  0.00  0.00    -0.310 N 
ATOM      7  N   UNL     1      -3.116  -3.006  23.633  0.00  0.00    -0.315 NA
ATOM      9  C   UNL     1      -1.062  -1.919  24.576  0.00  0.00    +0.023 C 
ATOM     10  C   UNL     1      -3.171  -1.795  25.819  0.00  0.00    +0.050 C 
ATOM     11  C   UNL     1      -1.661  -1.963  25.977  0.00  0.00    +0.017 C 
ATOM     12  C   UNL     1      -1.310  -0.529  23.976  0.00  0.00    +0.130 C 
ATOM     13  C   UNL     1      -1.657  -3.050  23.714  0.00  0.00    +0.086 C 
ATOM     14  C   UNL     1      -3.731  -2.951  24.961  0.00  0.00    +0.090 C 
ATOM     15  C   UNL     1      -3.500  -0.456  25.184  0.00  0.00    +0.026 A 
ATOM     16  C   UNL     1      -4.639   0.185  25.503  0.00  0.00    +0.024 A 
ATOM     17  C   UNL     1      -2.879   1.317  23.598  0.00  0.00    +0.274 A 
ATOM     18  C   UNL     1      -4.161   1.966  23.975  0.00  0.00    +0.112 A 
ATOM     19  C   UNL     1      -4.984   1.435  24.879  0.00  0.00    +0.031 A 
ATOM     26  H   UNL     1      -3.457  -3.826  23.131  0.00  0.00    +0.122 HD
ENDROOT
BRANCH  18   8
ATOM      8  N   UNL     1      -4.537   3.185  23.385  0.00  0.00    -0.211 N 
ATOM     27  H   UNL     1      -4.338   3.218  22.375  0.00  0.00    +0.174 HD
BRANCH   8   2
ATOM      2  S   UNL     1      -4.148   4.602  24.226  0.00  0.00    +0.072 S 
ATOM      4  O   UNL     1      -3.799   5.649  23.284  0.00  0.00    -0.150 OA
ATOM      5  O   UNL     1      -5.141   4.846  25.255  0.00  0.00    -0.150 OA
BRANCH   2  20
ATOM      1 CL   UNL     1       1.124   2.834  27.092  0.00  0.00    -0.084 Cl
ATOM     20  C   UNL     1      -2.657   4.104  25.036  0.00  0.00    +0.109 A 
ATOM     21  C   UNL     1      -1.439   4.401  24.452  0.00  0.00    +0.030 A 
ATOM     22  C   UNL     1      -2.739   3.425  26.240  0.00  0.00    +0.030 A 
ATOM     23  C   UNL     1      -0.264   4.007  25.091  0.00  0.00    +0.022 A 
ATOM     24  C   UNL     1      -1.563   3.032  26.880  0.00  0.00    +0.022 A 
ATOM     25  C   UNL     1      -0.326   3.322  26.305  0.00  0.00    +0.041 A 
ENDBRANCH   2  20
ENDBRANCH   8   2
ENDBRANCH  18   8
TORSDOF 3
ENDMDL
MODEL 10
REMARK VINA RESULT:       0.7     17.465     19.795
REMARK  Name = 11867206
REMARK  3 active torsions:
REMARK  status: ('A' for Active; 'I' for Inactive)
REMARK    1  A    between atoms: S_2  and  N_8
REMARK    2  A    between atoms: S_2  and  C_20
REMARK    3  A    between atoms: N_8  and  C_18
REMARK                            x       y       z     vdW  Elec       q    Type
REMARK                         _______ _______ _______ _____ _____    ______ ____
ROOT
ATOM      3  O   UNL     1      -3.969   2.387  22.906  0.00  0.00    -0.266 OA
ATOM      6  N   UNL     1      -2.175   3.008  24.279  0.00  0.00    -0.310 N 
ATOM      7  N   UNL     1       0.173   1.219  25.516  0.00  0.00    -0.315 NA
ATOM      9  C   UNL     1       0.276   2.796  23.569  0.00  0.00    +0.023 C 
ATOM     10  C   UNL     1      -0.272   3.663  25.794  0.00  0.00    +0.050 C 
ATOM     11  C   UNL     1       0.496   3.973  24.511  0.00  0.00    +0.017 C 
ATOM     12  C   UNL     1      -1.213   2.723  23.207  0.00  0.00    +0.130 C 
ATOM     13  C   UNL     1       0.790   1.497  24.221  0.00  0.00    +0.086 C 
ATOM     14  C   UNL     1       0.278   2.365  26.423  0.00  0.00    +0.090 C 
ATOM     15  C   UNL     1      -1.758   3.528  25.512  0.00  0.00    +0.026 A 
ATOM     16  C   UNL     1      -2.661   3.886  26.443  0.00  0.00    +0.024 A 
ATOM     17  C   UNL     1      -3.540   2.824  23.972  0.00  0.00    +0.274 A 
ATOM     18  C   UNL     1      -4.488   3.218  25.046  0.00  0.00    +0.112 A 
ATOM     19  C   UNL     1      -4.071   3.725  26.206  0.00  0.00    +0.031 A 
ATOM     26  H   UNL     1       0.616   0.405  25.941  0.00  0.00    +0.122 HD
ENDROOT
BRANCH  18   8
ATOM      8  N   UNL     1      -5.873   3.071  24.857  0.00  0.00    -0.211 N 
ATOM     27  H   UNL     1      -6.407   3.899  25.156  0.00  0.00    +0.174 HD
BRANCH   8   2
ATOM      2  S   UNL     1      -6.559   1.589  25.306  0.00  0.00    +0.072 S 
ATOM      4  O   UNL     1      -6.873   1.607  26.723  0.00  0.00    -0.150 OA
ATOM      5  O   UNL     1      -7.570   1.207  24.339  0.00  0.00    -0.150 OA
BRANCH   2  20
ATOM      1 CL   UNL     1      -1.675  -2.242  24.531  0.00  0.00    -0.084 Cl
ATOM     20  C   UNL     1      -5.178   0.507  25.086  0.00  0.00    +0.109 A 
ATOM     21  C   UNL     1      -5.098  -0.260  23.938  0.00  0.00    +0.030 A 
ATOM     22  C   UNL     1      -4.205   0.449  26.067  0.00  0.00    +0.030 A 
ATOM     23  C   UNL     1      -4.009  -1.114  23.766  0.00  0.00    +0.022 A 
ATOM     24  C   UNL     1      -3.115  -0.405  25.894  0.00  0.00    +0.022 A 
ATOM     25  C   UNL     1      -3.018  -1.187  24.744  0.00  0.00    +0.041 A 
ENDBRANCH   2  20
ENDBRANCH   8   2
ENDBRANCH  18   8
TORSDOF 3
ENDMDL
