MODEL 1
REMARK VINA RESULT:      -4.6      0.000      0.000
REMARK  Name = 40777893
REMARK  11 active torsions:
REMARK  status: ('A' for Active; 'I' for Inactive)
REMARK    1  A    between atoms: S_1  and  N_10
REMARK    2  A    between atoms: S_1  and  C_23
REMARK    3  A    between atoms: O_3  and  C_12
REMARK    4  A    between atoms: O_4  and  C_13
REMARK    5  A    between atoms: O_5  and  C_22
REMARK    6  A    between atoms: O_5  and  C_24
REMARK    7  A    between atoms: N_10  and  C_21
REMARK    8  A    between atoms: C_11  and  C_16
REMARK    9  A    between atoms: C_14  and  C_21
REMARK   10  A    between atoms: C_15  and  C_22
REMARK   11  A    between atoms: C_16  and  C_20
REMARK                            x       y       z     vdW  Elec       q    Type
REMARK                         _______ _______ _______ _____ _____    ______ ____
ROOT
ATOM      2  O   UNL     1      -4.325   2.733  24.386  0.00  0.00    -0.366 OA
ATOM     11  C   UNL     1      -5.443   1.920  24.782  0.00  0.00    +0.158 C 
ATOM     12  C   UNL     1      -5.723   2.283  26.231  0.00  0.00    +0.175 C 
ATOM     13  C   UNL     1      -5.403   3.763  26.240  0.00  0.00    +0.175 C 
ATOM     14  C   UNL     1      -4.191   3.832  25.317  0.00  0.00    +0.165 C 
ENDROOT
BRANCH  12   3
ATOM      3  O   UNL     1      -7.054   1.996  26.602  0.00  0.00    -0.387 OA
ATOM     25  H   UNL     1      -7.529   1.723  25.799  0.00  0.00    +0.210 HD
ENDBRANCH  12   3
BRANCH  13   4
ATOM      4  O   UNL     1      -6.462   4.503  25.634  0.00  0.00    -0.387 OA
ATOM     26  H   UNL     1      -7.267   4.339  26.154  0.00  0.00    +0.210 HD
ENDBRANCH  13   4
BRANCH  11  16
ATOM     16  C   UNL     1      -5.105   0.453  24.584  0.00  0.00    +0.130 C 
BRANCH  16  20
ATOM      6  O   UNL     1      -3.218   1.195  23.336  0.00  0.00    -0.276 OA
ATOM      9  N   UNL     1      -3.028  -0.834  24.432  0.00  0.00    -0.296 N 
ATOM     15  C   UNL     1      -1.694  -1.171  23.928  0.00  0.00    +0.102 C 
ATOM     17  C   UNL     1      -1.555  -2.664  24.239  0.00  0.00    +0.026 C 
ATOM     18  C   UNL     1      -3.558  -1.900  25.278  0.00  0.00    +0.108 C 
ATOM     19  C   UNL     1      -2.384  -2.840  25.505  0.00  0.00    +0.021 C 
ATOM     20  C   UNL     1      -3.701   0.317  24.054  0.00  0.00    +0.218 C 
BRANCH  15  22
ATOM     22  C   UNL     1      -0.613  -0.336  24.611  0.00  0.00    +0.181 C 
BRANCH  22   5
ATOM      5  O   UNL     1       0.648  -0.742  24.113  0.00  0.00    -0.381 OA
ATOM     24  C   UNL     1       0.929  -0.155  22.847  0.00  0.00    +0.194 C 
ENDBRANCH  22   5
ENDBRANCH  15  22
ENDBRANCH  16  20
ENDBRANCH  11  16
BRANCH  14  21
ATOM     21  C   UNL     1      -2.870   3.659  26.054  0.00  0.00    +0.139 C 
BRANCH  21  10
ATOM     10  N   UNL     1      -2.002   2.756  25.357  0.00  0.00    -0.192 NA
ATOM     27  H   UNL     1      -2.484   2.129  24.700  0.00  0.00    +0.148 HD
BRANCH  10   1
ATOM      1  S   UNL     1      -0.420   3.258  24.878  0.00  0.00    +0.027 S 
ATOM      7  O   UNL     1      -0.206   2.888  23.493  0.00  0.00    -0.158 OA
ATOM      8  O   UNL     1       0.540   2.889  25.902  0.00  0.00    -0.158 OA
ATOM     23  C   UNL     1      -0.618   5.024  24.949  0.00  0.00    +0.214 C 
ENDBRANCH  10   1
ENDBRANCH  21  10
ENDBRANCH  14  21
TORSDOF 9
ENDMDL
MODEL 2
REMARK VINA RESULT:      -4.5      2.423      5.097
REMARK  Name = 40777893
REMARK  11 active torsions:
REMARK  status: ('A' for Active; 'I' for Inactive)
REMARK    1  A    between atoms: S_1  and  N_10
REMARK    2  A    between atoms: S_1  and  C_23
REMARK    3  A    between atoms: O_3  and  C_12
REMARK    4  A    between atoms: O_4  and  C_13
REMARK    5  A    between atoms: O_5  and  C_22
REMARK    6  A    between atoms: O_5  and  C_24
REMARK    7  A    between atoms: N_10  and  C_21
REMARK    8  A    between atoms: C_11  and  C_16
REMARK    9  A    between atoms: C_14  and  C_21
REMARK   10  A    between atoms: C_15  and  C_22
REMARK   11  A    between atoms: C_16  and  C_20
REMARK                            x       y       z     vdW  Elec       q    Type
REMARK                         _______ _______ _______ _____ _____    ______ ____
ROOT
ATOM      2  O   UNL     1      -0.208   2.986  23.748  0.00  0.00    -0.366 OA
ATOM     11  C   UNL     1      -1.140   3.578  24.668  0.00  0.00    +0.158 C 
ATOM     12  C   UNL     1      -1.313   2.564  25.787  0.00  0.00    +0.175 C 
ATOM     13  C   UNL     1       0.079   1.977  25.883  0.00  0.00    +0.175 C 
ATOM     14  C   UNL     1       0.501   1.919  24.418  0.00  0.00    +0.165 C 
ENDROOT
BRANCH  12   3
ATOM      3  O   UNL     1      -1.751   3.166  26.986  0.00  0.00    -0.387 OA
ATOM     25  H   UNL     1      -2.692   2.948  27.096  0.00  0.00    +0.210 HD
ENDBRANCH  12   3
BRANCH  13   4
ATOM      4  O   UNL     1       0.952   2.881  26.559  0.00  0.00    -0.387 OA
ATOM     26  H   UNL     1       0.476   3.220  27.336  0.00  0.00    +0.210 HD
ENDBRANCH  13   4
BRANCH  11  16
ATOM     16  C   UNL     1      -2.435   3.904  23.946  0.00  0.00    +0.130 C 
BRANCH  16  20
ATOM      6  O   UNL     1      -2.876   1.860  22.809  0.00  0.00    -0.276 OA
ATOM      9  N   UNL     1      -4.308   2.441  24.531  0.00  0.00    -0.296 N 
ATOM     15  C   UNL     1      -5.233   1.316  24.366  0.00  0.00    +0.102 C 
ATOM     17  C   UNL     1      -6.465   1.738  25.172  0.00  0.00    +0.026 C 
ATOM     18  C   UNL     1      -4.751   3.337  25.597  0.00  0.00    +0.108 C 
ATOM     19  C   UNL     1      -5.881   2.591  26.291  0.00  0.00    +0.021 C 
ATOM     20  C   UNL     1      -3.218   2.640  23.699  0.00  0.00    +0.218 C 
BRANCH  15  22
ATOM     22  C   UNL     1      -4.624   0.014  24.882  0.00  0.00    +0.181 C 
BRANCH  22   5
ATOM      5  O   UNL     1      -4.336  -0.817  23.773  0.00  0.00    -0.381 OA
ATOM     24  C   UNL     1      -3.845  -2.089  24.180  0.00  0.00    +0.194 C 
ENDBRANCH  22   5
ENDBRANCH  15  22
ENDBRANCH  16  20
ENDBRANCH  11  16
BRANCH  14  21
ATOM     21  C   UNL     1       0.122   0.609  23.741  0.00  0.00    +0.139 C 
BRANCH  21  10
ATOM     10  N   UNL     1       1.248  -0.273  23.651  0.00  0.00    -0.192 NA
ATOM     27  H   UNL     1       1.002  -1.271  23.631  0.00  0.00    +0.148 HD
BRANCH  10   1
ATOM      1  S   UNL     1       2.632   0.168  22.716  0.00  0.00    +0.027 S 
ATOM      7  O   UNL     1       3.055   1.501  23.099  0.00  0.00    -0.158 OA
ATOM      8  O   UNL     1       2.408  -0.168  21.323  0.00  0.00    -0.158 OA
ATOM     23  C   UNL     1       3.822  -0.988  23.356  0.00  0.00    +0.214 C 
ENDBRANCH  10   1
ENDBRANCH  21  10
ENDBRANCH  14  21
TORSDOF 9
ENDMDL
MODEL 3
REMARK VINA RESULT:      -4.4      2.413      5.121
REMARK  Name = 40777893
REMARK  11 active torsions:
REMARK  status: ('A' for Active; 'I' for Inactive)
REMARK    1  A    between atoms: S_1  and  N_10
REMARK    2  A    between atoms: S_1  and  C_23
REMARK    3  A    between atoms: O_3  and  C_12
REMARK    4  A    between atoms: O_4  and  C_13
REMARK    5  A    between atoms: O_5  and  C_22
REMARK    6  A    between atoms: O_5  and  C_24
REMARK    7  A    between atoms: N_10  and  C_21
REMARK    8  A    between atoms: C_11  and  C_16
REMARK    9  A    between atoms: C_14  and  C_21
REMARK   10  A    between atoms: C_15  and  C_22
REMARK   11  A    between atoms: C_16  and  C_20
REMARK                            x       y       z     vdW  Elec       q    Type
REMARK                         _______ _______ _______ _____ _____    ______ ____
ROOT
ATOM      2  O   UNL     1      -0.300   3.053  23.767  0.00  0.00    -0.366 OA
ATOM     11  C   UNL     1      -1.169   3.678  24.727  0.00  0.00    +0.158 C 
ATOM     12  C   UNL     1      -1.320   2.676  25.859  0.00  0.00    +0.175 C 
ATOM     13  C   UNL     1       0.057   2.046  25.893  0.00  0.00    +0.175 C 
ATOM     14  C   UNL     1       0.407   1.967  24.411  0.00  0.00    +0.165 C 
ENDROOT
BRANCH  12   3
ATOM      3  O   UNL     1      -1.682   3.297  27.073  0.00  0.00    -0.387 OA
ATOM     25  H   UNL     1      -2.652   3.271  27.136  0.00  0.00    +0.210 HD
ENDBRANCH  12   3
BRANCH  13   4
ATOM      4  O   UNL     1       0.988   2.927  26.521  0.00  0.00    -0.387 OA
ATOM     26  H   UNL     1       0.487   3.689  26.859  0.00  0.00    +0.210 HD
ENDBRANCH  13   4
BRANCH  11  16
ATOM     16  C   UNL     1      -2.486   4.041  24.064  0.00  0.00    +0.130 C 
BRANCH  16  20
ATOM      6  O   UNL     1      -2.926   2.059  22.821  0.00  0.00    -0.276 OA
ATOM      9  N   UNL     1      -4.353   2.543  24.576  0.00  0.00    -0.296 N 
ATOM     15  C   UNL     1      -5.274   1.425  24.355  0.00  0.00    +0.102 C 
ATOM     17  C   UNL     1      -6.505   1.799  25.186  0.00  0.00    +0.026 C 
ATOM     18  C   UNL     1      -4.794   3.379  25.691  0.00  0.00    +0.108 C 
ATOM     19  C   UNL     1      -5.919   2.593  26.347  0.00  0.00    +0.021 C 
ATOM     20  C   UNL     1      -3.267   2.789  23.753  0.00  0.00    +0.218 C 
BRANCH  15  22
ATOM     22  C   UNL     1      -4.660   0.099  24.798  0.00  0.00    +0.181 C 
BRANCH  22   5
ATOM      5  O   UNL     1      -4.288  -0.631  23.644  0.00  0.00    -0.381 OA
ATOM     24  C   UNL     1      -4.380  -2.035  23.856  0.00  0.00    +0.194 C 
ENDBRANCH  22   5
ENDBRANCH  15  22
ENDBRANCH  16  20
ENDBRANCH  11  16
BRANCH  14  21
ATOM     21  C   UNL     1      -0.045   0.667  23.760  0.00  0.00    +0.139 C 
BRANCH  21  10
ATOM     10  N   UNL     1       0.527  -0.469  24.422  0.00  0.00    -0.192 NA
ATOM     27  H   UNL     1       1.334  -0.248  25.020  0.00  0.00    +0.148 HD
BRANCH  10   1
ATOM      1  S   UNL     1      -0.484  -1.752  24.986  0.00  0.00    +0.027 S 
ATOM      7  O   UNL     1       0.311  -2.661  25.787  0.00  0.00    -0.158 OA
ATOM      8  O   UNL     1      -1.301  -2.246  23.893  0.00  0.00    -0.158 OA
ATOM     23  C   UNL     1      -1.554  -0.848  26.081  0.00  0.00    +0.214 C 
ENDBRANCH  10   1
ENDBRANCH  21  10
ENDBRANCH  14  21
TORSDOF 9
ENDMDL
MODEL 4
REMARK VINA RESULT:      -4.2      2.408      5.373
REMARK  Name = 40777893
REMARK  11 active torsions:
REMARK  status: ('A' for Active; 'I' for Inactive)
REMARK    1  A    between atoms: S_1  and  N_10
REMARK    2  A    between atoms: S_1  and  C_23
REMARK    3  A    between atoms: O_3  and  C_12
REMARK    4  A    between atoms: O_4  and  C_13
REMARK    5  A    between atoms: O_5  and  C_22
REMARK    6  A    between atoms: O_5  and  C_24
REMARK    7  A    between atoms: N_10  and  C_21
REMARK    8  A    between atoms: C_11  and  C_16
REMARK    9  A    between atoms: C_14  and  C_21
REMARK   10  A    between atoms: C_15  and  C_22
REMARK   11  A    between atoms: C_16  and  C_20
REMARK                            x       y       z     vdW  Elec       q    Type
REMARK                         _______ _______ _______ _____ _____    ______ ____
ROOT
ATOM      2  O   UNL     1      -1.842   0.153  25.293  0.00  0.00    -0.366 OA
ATOM     11  C   UNL     1      -2.596  -1.057  25.104  0.00  0.00    +0.158 C 
ATOM     12  C   UNL     1      -1.734  -1.945  24.222  0.00  0.00    +0.175 C 
ATOM     13  C   UNL     1      -0.343  -1.601  24.711  0.00  0.00    +0.175 C 
ATOM     14  C   UNL     1      -0.456  -0.101  24.963  0.00  0.00    +0.165 C 
ENDROOT
BRANCH  12   3
ATOM      3  O   UNL     1      -2.058  -3.310  24.367  0.00  0.00    -0.387 OA
ATOM     25  H   UNL     1      -2.999  -3.413  24.145  0.00  0.00    +0.210 HD
ENDBRANCH  12   3
BRANCH  13   4
ATOM      4  O   UNL     1      -0.086  -2.241  25.961  0.00  0.00    -0.387 OA
ATOM     26  H   UNL     1       0.779  -1.928  26.276  0.00  0.00    +0.210 HD
ENDBRANCH  13   4
BRANCH  11  16
ATOM     16  C   UNL     1      -3.945  -0.727  24.491  0.00  0.00    +0.130 C 
BRANCH  16  20
ATOM      6  O   UNL     1      -5.080   0.757  25.966  0.00  0.00    -0.276 OA
ATOM      9  N   UNL     1      -3.991   1.697  24.154  0.00  0.00    -0.296 N 
ATOM     15  C   UNL     1      -4.421   3.076  24.397  0.00  0.00    +0.102 C 
ATOM     17  C   UNL     1      -4.114   3.790  23.078  0.00  0.00    +0.026 C 
ATOM     18  C   UNL     1      -3.183   1.602  22.940  0.00  0.00    +0.108 C 
ATOM     19  C   UNL     1      -2.897   3.043  22.547  0.00  0.00    +0.021 C 
ATOM     20  C   UNL     1      -4.398   0.637  24.947  0.00  0.00    +0.218 C 
BRANCH  15  22
ATOM     22  C   UNL     1      -3.673   3.694  25.577  0.00  0.00    +0.181 C 
BRANCH  22   5
ATOM      5  O   UNL     1      -2.480   4.282  25.092  0.00  0.00    -0.381 OA
ATOM     24  C   UNL     1      -1.325   3.670  25.656  0.00  0.00    +0.194 C 
ENDBRANCH  22   5
ENDBRANCH  15  22
ENDBRANCH  16  20
ENDBRANCH  11  16
BRANCH  14  21
ATOM     21  C   UNL     1      -0.107   0.736  23.741  0.00  0.00    +0.139 C 
BRANCH  21  10
ATOM     10  N   UNL     1       1.297   1.019  23.691  0.00  0.00    -0.192 NA
ATOM     27  H   UNL     1       1.689   1.374  24.572  0.00  0.00    +0.148 HD
BRANCH  10   1
ATOM      1  S   UNL     1       2.356   0.023  22.757  0.00  0.00    +0.027 S 
ATOM      7  O   UNL     1       1.762  -0.206  21.454  0.00  0.00    -0.158 OA
ATOM      8  O   UNL     1       2.823  -1.087  23.566  0.00  0.00    -0.158 OA
ATOM     23  C   UNL     1       3.726   1.138  22.545  0.00  0.00    +0.214 C 
ENDBRANCH  10   1
ENDBRANCH  21  10
ENDBRANCH  14  21
TORSDOF 9
ENDMDL
MODEL 5
REMARK VINA RESULT:      -4.1      2.323      4.127
REMARK  Name = 40777893
REMARK  11 active torsions:
REMARK  status: ('A' for Active; 'I' for Inactive)
REMARK    1  A    between atoms: S_1  and  N_10
REMARK    2  A    between atoms: S_1  and  C_23
REMARK    3  A    between atoms: O_3  and  C_12
REMARK    4  A    between atoms: O_4  and  C_13
REMARK    5  A    between atoms: O_5  and  C_22
REMARK    6  A    between atoms: O_5  and  C_24
REMARK    7  A    between atoms: N_10  and  C_21
REMARK    8  A    between atoms: C_11  and  C_16
REMARK    9  A    between atoms: C_14  and  C_21
REMARK   10  A    between atoms: C_15  and  C_22
REMARK   11  A    between atoms: C_16  and  C_20
REMARK                            x       y       z     vdW  Elec       q    Type
REMARK                         _______ _______ _______ _____ _____    ______ ____
ROOT
ATOM      2  O   UNL     1      -2.544   2.041  25.663  0.00  0.00    -0.366 OA
ATOM     11  C   UNL     1      -1.664   3.133  25.985  0.00  0.00    +0.158 C 
ATOM     12  C   UNL     1      -1.851   4.152  24.874  0.00  0.00    +0.175 C 
ATOM     13  C   UNL     1      -3.326   4.004  24.570  0.00  0.00    +0.175 C 
ATOM     14  C   UNL     1      -3.530   2.498  24.709  0.00  0.00    +0.165 C 
ENDROOT
BRANCH  12   3
ATOM      3  O   UNL     1      -1.491   5.454  25.283  0.00  0.00    -0.387 OA
ATOM     25  H   UNL     1      -1.801   5.569  26.197  0.00  0.00    +0.210 HD
ENDBRANCH  12   3
BRANCH  13   4
ATOM      4  O   UNL     1      -4.107   4.651  25.574  0.00  0.00    -0.387 OA
ATOM     26  H   UNL     1      -4.244   4.011  26.294  0.00  0.00    +0.210 HD
ENDBRANCH  13   4
BRANCH  11  16
ATOM     16  C   UNL     1      -0.239   2.624  26.103  0.00  0.00    +0.130 C 
BRANCH  16  20
ATOM      6  O   UNL     1       0.668   2.545  23.903  0.00  0.00    -0.276 OA
ATOM      9  N   UNL     1      -0.081   0.552  24.809  0.00  0.00    -0.296 N 
ATOM     15  C   UNL     1       0.156  -0.271  23.620  0.00  0.00    +0.102 C 
ATOM     17  C   UNL     1      -0.639  -1.550  23.900  0.00  0.00    +0.026 C 
ATOM     18  C   UNL     1      -0.680  -0.234  25.885  0.00  0.00    +0.108 C 
ATOM     19  C   UNL     1      -0.581  -1.678  25.416  0.00  0.00    +0.021 C 
ATOM     20  C   UNL     1       0.160   1.916  24.833  0.00  0.00    +0.218 C 
BRANCH  15  22
ATOM     22  C   UNL     1       1.645  -0.549  23.422  0.00  0.00    +0.181 C 
BRANCH  22   5
ATOM      5  O   UNL     1       2.093   0.188  22.300  0.00  0.00    -0.381 OA
ATOM     24  C   UNL     1       3.405   0.704  22.498  0.00  0.00    +0.194 C 
ENDBRANCH  22   5
ENDBRANCH  15  22
ENDBRANCH  16  20
ENDBRANCH  11  16
BRANCH  14  21
ATOM     21  C   UNL     1      -3.304   1.743  23.407  0.00  0.00    +0.139 C 
BRANCH  21  10
ATOM     10  N   UNL     1      -3.170   0.336  23.641  0.00  0.00    -0.192 NA
ATOM     27  H   UNL     1      -2.200   0.017  23.760  0.00  0.00    +0.148 HD
BRANCH  10   1
ATOM      1  S   UNL     1      -4.347  -0.510  24.581  0.00  0.00    +0.027 S 
ATOM      7  O   UNL     1      -5.639   0.122  24.400  0.00  0.00    -0.158 OA
ATOM      8  O   UNL     1      -3.823  -0.760  25.911  0.00  0.00    -0.158 OA
ATOM     23  C   UNL     1      -4.374  -2.066  23.721  0.00  0.00    +0.214 C 
ENDBRANCH  10   1
ENDBRANCH  21  10
ENDBRANCH  14  21
TORSDOF 9
ENDMDL
MODEL 6
REMARK VINA RESULT:      -4.0      2.372      3.578
REMARK  Name = 40777893
REMARK  11 active torsions:
REMARK  status: ('A' for Active; 'I' for Inactive)
REMARK    1  A    between atoms: S_1  and  N_10
REMARK    2  A    between atoms: S_1  and  C_23
REMARK    3  A    between atoms: O_3  and  C_12
REMARK    4  A    between atoms: O_4  and  C_13
REMARK    5  A    between atoms: O_5  and  C_22
REMARK    6  A    between atoms: O_5  and  C_24
REMARK    7  A    between atoms: N_10  and  C_21
REMARK    8  A    between atoms: C_11  and  C_16
REMARK    9  A    between atoms: C_14  and  C_21
REMARK   10  A    between atoms: C_15  and  C_22
REMARK   11  A    between atoms: C_16  and  C_20
REMARK                            x       y       z     vdW  Elec       q    Type
REMARK                         _______ _______ _______ _____ _____    ______ ____
ROOT
ATOM      2  O   UNL     1      -1.649   2.694  23.332  0.00  0.00    -0.366 OA
ATOM     11  C   UNL     1      -2.717   3.125  24.193  0.00  0.00    +0.158 C 
ATOM     12  C   UNL     1      -2.123   3.178  25.590  0.00  0.00    +0.175 C 
ATOM     13  C   UNL     1      -0.710   3.641  25.301  0.00  0.00    +0.175 C 
ATOM     14  C   UNL     1      -0.388   2.894  24.011  0.00  0.00    +0.165 C 
ENDROOT
BRANCH  12   3
ATOM      3  O   UNL     1      -2.836   4.053  26.437  0.00  0.00    -0.387 OA
ATOM     25  H   UNL     1      -2.241   4.307  27.162  0.00  0.00    +0.210 HD
ENDBRANCH  12   3
BRANCH  13   4
ATOM      4  O   UNL     1      -0.695   5.040  25.018  0.00  0.00    -0.387 OA
ATOM     26  H   UNL     1      -0.338   5.152  24.121  0.00  0.00    +0.210 HD
ENDBRANCH  13   4
BRANCH  11  16
ATOM     16  C   UNL     1      -3.889   2.167  24.073  0.00  0.00    +0.130 C 
BRANCH  16  20
ATOM      6  O   UNL     1      -3.060   0.785  22.321  0.00  0.00    -0.276 OA
ATOM      9  N   UNL     1      -3.435  -0.220  24.371  0.00  0.00    -0.296 N 
ATOM     15  C   UNL     1      -3.106  -1.585  23.951  0.00  0.00    +0.102 C 
ATOM     17  C   UNL     1      -3.667  -2.457  25.077  0.00  0.00    +0.026 C 
ATOM     18  C   UNL     1      -3.856  -0.185  25.770  0.00  0.00    +0.108 C 
ATOM     19  C   UNL     1      -3.535  -1.571  26.309  0.00  0.00    +0.021 C 
ATOM     20  C   UNL     1      -3.423   0.854  23.497  0.00  0.00    +0.218 C 
BRANCH  15  22
ATOM     22  C   UNL     1      -1.600  -1.767  23.775  0.00  0.00    +0.181 C 
BRANCH  22   5
ATOM      5  O   UNL     1      -1.117  -2.562  24.842  0.00  0.00    -0.381 OA
ATOM     24  C   UNL     1      -0.144  -1.870  25.617  0.00  0.00    +0.194 C 
ENDBRANCH  22   5
ENDBRANCH  15  22
ENDBRANCH  16  20
ENDBRANCH  11  16
BRANCH  14  21
ATOM     21  C   UNL     1       0.233   1.526  24.253  0.00  0.00    +0.139 C 
BRANCH  21  10
ATOM     10  N   UNL     1       1.586   1.481  23.783  0.00  0.00    -0.192 NA
ATOM     27  H   UNL     1       2.272   1.896  24.427  0.00  0.00    +0.148 HD
BRANCH  10   1
ATOM      1  S   UNL     1       2.151   0.126  22.873  0.00  0.00    +0.027 S 
ATOM      7  O   UNL     1       1.285  -0.066  21.726  0.00  0.00    -0.158 OA
ATOM      8  O   UNL     1       2.450  -0.975  23.769  0.00  0.00    -0.158 OA
ATOM     23  C   UNL     1       3.702   0.768  22.287  0.00  0.00    +0.214 C 
ENDBRANCH  10   1
ENDBRANCH  21  10
ENDBRANCH  14  21
TORSDOF 9
ENDMDL
MODEL 7
REMARK VINA RESULT:      -3.7      1.348      2.130
REMARK  Name = 40777893
REMARK  11 active torsions:
REMARK  status: ('A' for Active; 'I' for Inactive)
REMARK    1  A    between atoms: S_1  and  N_10
REMARK    2  A    between atoms: S_1  and  C_23
REMARK    3  A    between atoms: O_3  and  C_12
REMARK    4  A    between atoms: O_4  and  C_13
REMARK    5  A    between atoms: O_5  and  C_22
REMARK    6  A    between atoms: O_5  and  C_24
REMARK    7  A    between atoms: N_10  and  C_21
REMARK    8  A    between atoms: C_11  and  C_16
REMARK    9  A    between atoms: C_14  and  C_21
REMARK   10  A    between atoms: C_15  and  C_22
REMARK   11  A    between atoms: C_16  and  C_20
REMARK                            x       y       z     vdW  Elec       q    Type
REMARK                         _______ _______ _______ _____ _____    ______ ____
ROOT
ATOM      2  O   UNL     1      -3.706   3.580  24.281  0.00  0.00    -0.366 OA
ATOM     11  C   UNL     1      -4.734   2.592  24.096  0.00  0.00    +0.158 C 
ATOM     12  C   UNL     1      -5.356   2.385  25.466  0.00  0.00    +0.175 C 
ATOM     13  C   UNL     1      -5.288   3.782  26.045  0.00  0.00    +0.175 C 
ATOM     14  C   UNL     1      -3.942   4.276  25.526  0.00  0.00    +0.165 C 
ENDROOT
BRANCH  12   3
ATOM      3  O   UNL     1      -6.670   1.877  25.381  0.00  0.00    -0.387 OA
ATOM     25  H   UNL     1      -6.695   1.045  25.884  0.00  0.00    +0.210 HD
ENDBRANCH  12   3
BRANCH  13   4
ATOM      4  O   UNL     1      -6.309   4.603  25.479  0.00  0.00    -0.387 OA
ATOM     26  H   UNL     1      -6.044   5.529  25.609  0.00  0.00    +0.210 HD
ENDBRANCH  13   4
BRANCH  11  16
ATOM     16  C   UNL     1      -4.129   1.327  23.512  0.00  0.00    +0.130 C 
BRANCH  16  20
ATOM      6  O   UNL     1      -4.729   0.039  25.422  0.00  0.00    -0.276 OA
ATOM      9  N   UNL     1      -2.568  -0.190  24.629  0.00  0.00    -0.296 N 
ATOM     15  C   UNL     1      -2.098  -1.091  25.685  0.00  0.00    +0.102 C 
ATOM     17  C   UNL     1      -0.573  -1.050  25.545  0.00  0.00    +0.026 C 
ATOM     18  C   UNL     1      -1.493   0.132  23.693  0.00  0.00    +0.108 C 
ATOM     19  C   UNL     1      -0.361  -0.817  24.055  0.00  0.00    +0.021 C 
ATOM     20  C   UNL     1      -3.849   0.336  24.613  0.00  0.00    +0.218 C 
BRANCH  15  22
ATOM     22  C   UNL     1      -2.656  -2.501  25.505  0.00  0.00    +0.181 C 
BRANCH  22   5
ATOM      5  O   UNL     1      -2.826  -2.743  24.121  0.00  0.00    -0.381 OA
ATOM     24  C   UNL     1      -4.183  -3.025  23.798  0.00  0.00    +0.194 C 
ENDBRANCH  22   5
ENDBRANCH  15  22
ENDBRANCH  16  20
ENDBRANCH  11  16
BRANCH  14  21
ATOM     21  C   UNL     1      -2.788   3.956  26.466  0.00  0.00    +0.139 C 
BRANCH  21  10
ATOM     10  N   UNL     1      -1.963   2.911  25.935  0.00  0.00    -0.192 NA
ATOM     27  H   UNL     1      -2.485   2.133  25.512  0.00  0.00    +0.148 HD
BRANCH  10   1
ATOM      1  S   UNL     1      -0.453   3.285  25.183  0.00  0.00    +0.027 S 
ATOM      7  O   UNL     1      -0.442   2.730  23.844  0.00  0.00    -0.158 OA
ATOM      8  O   UNL     1       0.633   3.015  26.107  0.00  0.00    -0.158 OA
ATOM     23  C   UNL     1      -0.603   5.051  25.044  0.00  0.00    +0.214 C 
ENDBRANCH  10   1
ENDBRANCH  21  10
ENDBRANCH  14  21
TORSDOF 9
ENDMDL
MODEL 8
REMARK VINA RESULT:      -3.5      2.079      6.509
REMARK  Name = 40777893
REMARK  11 active torsions:
REMARK  status: ('A' for Active; 'I' for Inactive)
REMARK    1  A    between atoms: S_1  and  N_10
REMARK    2  A    between atoms: S_1  and  C_23
REMARK    3  A    between atoms: O_3  and  C_12
REMARK    4  A    between atoms: O_4  and  C_13
REMARK    5  A    between atoms: O_5  and  C_22
REMARK    6  A    between atoms: O_5  and  C_24
REMARK    7  A    between atoms: N_10  and  C_21
REMARK    8  A    between atoms: C_11  and  C_16
REMARK    9  A    between atoms: C_14  and  C_21
REMARK   10  A    between atoms: C_15  and  C_22
REMARK   11  A    between atoms: C_16  and  C_20
REMARK                            x       y       z     vdW  Elec       q    Type
REMARK                         _______ _______ _______ _____ _____    ______ ____
ROOT
ATOM      2  O   UNL     1      -0.812   0.409  23.275  0.00  0.00    -0.366 OA
ATOM     11  C   UNL     1       0.072   1.540  23.199  0.00  0.00    +0.158 C 
ATOM     12  C   UNL     1       1.377   1.086  23.831  0.00  0.00    +0.175 C 
ATOM     13  C   UNL     1       1.434  -0.365  23.401  0.00  0.00    +0.175 C 
ATOM     14  C   UNL     1      -0.028  -0.785  23.504  0.00  0.00    +0.165 C 
ENDROOT
BRANCH  12   3
ATOM      3  O   UNL     1       2.477   1.847  23.383  0.00  0.00    -0.387 OA
ATOM     25  H   UNL     1       3.225   1.237  23.264  0.00  0.00    +0.210 HD
ENDBRANCH  12   3
BRANCH  13   4
ATOM      4  O   UNL     1       1.826  -0.460  22.032  0.00  0.00    -0.387 OA
ATOM     26  H   UNL     1       2.747  -0.773  22.013  0.00  0.00    +0.210 HD
ENDBRANCH  13   4
BRANCH  11  16
ATOM     16  C   UNL     1      -0.556   2.730  23.903  0.00  0.00    +0.130 C 
BRANCH  16  20
ATOM      6  O   UNL     1      -2.482   2.335  22.560  0.00  0.00    -0.276 OA
ATOM      9  N   UNL     1      -2.821   3.305  24.633  0.00  0.00    -0.296 N 
ATOM     15  C   UNL     1      -4.265   3.506  24.489  0.00  0.00    +0.102 C 
ATOM     17  C   UNL     1      -4.608   4.490  25.611  0.00  0.00    +0.026 C 
ATOM     18  C   UNL     1      -2.339   3.828  25.909  0.00  0.00    +0.108 C 
ATOM     19  C   UNL     1      -3.598   4.151  26.700  0.00  0.00    +0.021 C 
ATOM     20  C   UNL     1      -2.037   2.767  23.625  0.00  0.00    +0.218 C 
BRANCH  15  22
ATOM     22  C   UNL     1      -5.028   2.189  24.623  0.00  0.00    +0.181 C 
BRANCH  22   5
ATOM      5  O   UNL     1      -6.211   2.429  25.360  0.00  0.00    -0.381 OA
ATOM     24  C   UNL     1      -6.347   1.524  26.450  0.00  0.00    +0.194 C 
ENDBRANCH  22   5
ENDBRANCH  15  22
ENDBRANCH  16  20
ENDBRANCH  11  16
BRANCH  14  21
ATOM     21  C   UNL     1      -0.397  -1.328  24.878  0.00  0.00    +0.139 C 
BRANCH  21  10
ATOM     10  N   UNL     1      -1.530  -0.638  25.421  0.00  0.00    -0.192 NA
ATOM     27  H   UNL     1      -1.430   0.386  25.445  0.00  0.00    +0.148 HD
BRANCH  10   1
ATOM      1  S   UNL     1      -3.130  -1.219  25.128  0.00  0.00    +0.027 S 
ATOM      7  O   UNL     1      -3.688  -0.514  23.991  0.00  0.00    -0.158 OA
ATOM      8  O   UNL     1      -3.857  -1.299  26.381  0.00  0.00    -0.158 OA
ATOM     23  C   UNL     1      -2.768  -2.884  24.617  0.00  0.00    +0.214 C 
ENDBRANCH  10   1
ENDBRANCH  21  10
ENDBRANCH  14  21
TORSDOF 9
ENDMDL
MODEL 9
REMARK VINA RESULT:      -3.5      2.273      5.704
REMARK  Name = 40777893
REMARK  11 active torsions:
REMARK  status: ('A' for Active; 'I' for Inactive)
REMARK    1  A    between atoms: S_1  and  N_10
REMARK    2  A    between atoms: S_1  and  C_23
REMARK    3  A    between atoms: O_3  and  C_12
REMARK    4  A    between atoms: O_4  and  C_13
REMARK    5  A    between atoms: O_5  and  C_22
REMARK    6  A    between atoms: O_5  and  C_24
REMARK    7  A    between atoms: N_10  and  C_21
REMARK    8  A    between atoms: C_11  and  C_16
REMARK    9  A    between atoms: C_14  and  C_21
REMARK   10  A    between atoms: C_15  and  C_22
REMARK   11  A    between atoms: C_16  and  C_20
REMARK                            x       y       z     vdW  Elec       q    Type
REMARK                         _______ _______ _______ _____ _____    ______ ____
ROOT
ATOM      2  O   UNL     1      -1.667  -0.062  24.962  0.00  0.00    -0.366 OA
ATOM     11  C   UNL     1      -2.955  -0.209  24.339  0.00  0.00    +0.158 C 
ATOM     12  C   UNL     1      -2.956  -1.596  23.720  0.00  0.00    +0.175 C 
ATOM     13  C   UNL     1      -2.146  -2.381  24.730  0.00  0.00    +0.175 C 
ATOM     14  C   UNL     1      -1.076  -1.371  25.132  0.00  0.00    +0.165 C 
ENDROOT
BRANCH  12   3
ATOM      3  O   UNL     1      -4.263  -2.096  23.541  0.00  0.00    -0.387 OA
ATOM     25  H   UNL     1      -4.235  -2.731  22.804  0.00  0.00    +0.210 HD
ENDBRANCH  12   3
BRANCH  13   4
ATOM      4  O   UNL     1      -2.937  -2.670  25.882  0.00  0.00    -0.387 OA
ATOM     26  H   UNL     1      -2.622  -2.098  26.603  0.00  0.00    +0.210 HD
ENDBRANCH  13   4
BRANCH  11  16
ATOM     16  C   UNL     1      -3.163   0.903  23.326  0.00  0.00    +0.130 C 
BRANCH  16  20
ATOM      6  O   UNL     1      -4.928   2.279  24.135  0.00  0.00    -0.276 OA
ATOM      9  N   UNL     1      -2.766   3.026  24.477  0.00  0.00    -0.296 N 
ATOM     15  C   UNL     1      -3.127   4.312  25.081  0.00  0.00    +0.102 C 
ATOM     17  C   UNL     1      -1.826   5.117  25.025  0.00  0.00    +0.026 C 
ATOM     18  C   UNL     1      -1.316   2.888  24.355  0.00  0.00    +0.108 C 
ATOM     19  C   UNL     1      -0.744   4.052  25.151  0.00  0.00    +0.021 C 
ATOM     20  C   UNL     1      -3.712   2.127  24.013  0.00  0.00    +0.218 C 
BRANCH  15  22
ATOM     22  C   UNL     1      -3.634   4.134  26.511  0.00  0.00    +0.181 C 
BRANCH  22   5
ATOM      5  O   UNL     1      -5.010   3.806  26.461  0.00  0.00    -0.381 OA
ATOM     24  C   UNL     1      -5.740   4.718  25.647  0.00  0.00    +0.194 C 
ENDBRANCH  22   5
ENDBRANCH  15  22
ENDBRANCH  16  20
ENDBRANCH  11  16
BRANCH  14  21
ATOM     21  C   UNL     1       0.167  -1.439  24.256  0.00  0.00    +0.139 C 
BRANCH  21  10
ATOM     10  N   UNL     1       0.646  -0.127  23.934  0.00  0.00    -0.192 NA
ATOM     27  H   UNL     1       0.581   0.549  24.706  0.00  0.00    +0.148 HD
BRANCH  10   1
ATOM      1  S   UNL     1       2.004   0.075  22.886  0.00  0.00    +0.027 S 
ATOM      7  O   UNL     1       2.622   1.359  23.155  0.00  0.00    -0.158 OA
ATOM      8  O   UNL     1       1.639  -0.303  21.533  0.00  0.00    -0.158 OA
ATOM     23  C   UNL     1       3.078  -1.193  23.519  0.00  0.00    +0.214 C 
ENDBRANCH  10   1
ENDBRANCH  21  10
ENDBRANCH  14  21
TORSDOF 9
ENDMDL
MODEL 10
REMARK VINA RESULT:      -3.4      2.892      6.189
REMARK  Name = 40777893
REMARK  11 active torsions:
REMARK  status: ('A' for Active; 'I' for Inactive)
REMARK    1  A    between atoms: S_1  and  N_10
REMARK    2  A    between atoms: S_1  and  C_23
REMARK    3  A    between atoms: O_3  and  C_12
REMARK    4  A    between atoms: O_4  and  C_13
REMARK    5  A    between atoms: O_5  and  C_22
REMARK    6  A    between atoms: O_5  and  C_24
REMARK    7  A    between atoms: N_10  and  C_21
REMARK    8  A    between atoms: C_11  and  C_16
REMARK    9  A    between atoms: C_14  and  C_21
REMARK   10  A    between atoms: C_15  and  C_22
REMARK   11  A    between atoms: C_16  and  C_20
REMARK                            x       y       z     vdW  Elec       q    Type
REMARK                         _______ _______ _______ _____ _____    ______ ____
ROOT
ATOM      2  O   UNL     1       1.180   1.501  24.195  0.00  0.00    -0.366 OA
ATOM     11  C   UNL     1      -0.258   1.479  24.209  0.00  0.00    +0.158 C 
ATOM     12  C   UNL     1      -0.656   0.213  23.468  0.00  0.00    +0.175 C 
ATOM     13  C   UNL     1       0.446  -0.740  23.881  0.00  0.00    +0.175 C 
ATOM     14  C   UNL     1       1.667   0.173  23.893  0.00  0.00    +0.165 C 
ENDROOT
BRANCH  12   3
ATOM      3  O   UNL     1      -1.945  -0.230  23.832  0.00  0.00    -0.387 OA
ATOM     25  H   UNL     1      -2.324  -0.688  23.062  0.00  0.00    +0.210 HD
ENDBRANCH  12   3
BRANCH  13   4
ATOM      4  O   UNL     1       0.226  -1.204  25.212  0.00  0.00    -0.387 OA
ATOM     26  H   UNL     1       0.160  -0.422  25.786  0.00  0.00    +0.210 HD
ENDBRANCH  13   4
BRANCH  11  16
ATOM     16  C   UNL     1      -0.795   2.746  23.568  0.00  0.00    +0.130 C 
BRANCH  16  20
ATOM      6  O   UNL     1      -2.780   2.146  22.399  0.00  0.00    -0.276 OA
ATOM      9  N   UNL     1      -3.035   3.149  24.469  0.00  0.00    -0.296 N 
ATOM     15  C   UNL     1      -4.498   3.222  24.440  0.00  0.00    +0.102 C 
ATOM     17  C   UNL     1      -4.835   4.208  25.562  0.00  0.00    +0.026 C 
ATOM     18  C   UNL     1      -2.500   3.752  25.687  0.00  0.00    +0.108 C 
ATOM     19  C   UNL     1      -3.715   3.992  26.571  0.00  0.00    +0.021 C 
ATOM     20  C   UNL     1      -2.291   2.648  23.413  0.00  0.00    +0.218 C 
BRANCH  15  22
ATOM     22  C   UNL     1      -5.129   1.850  24.669  0.00  0.00    +0.181 C 
BRANCH  22   5
ATOM      5  O   UNL     1      -4.152   0.995  25.232  0.00  0.00    -0.381 OA
ATOM     24  C   UNL     1      -4.483  -0.377  25.049  0.00  0.00    +0.194 C 
ENDBRANCH  22   5
ENDBRANCH  15  22
ENDBRANCH  16  20
ENDBRANCH  11  16
BRANCH  14  21
ATOM     21  C   UNL     1       2.381   0.232  22.550  0.00  0.00    +0.139 C 
BRANCH  21  10
ATOM     10  N   UNL     1       3.657   0.874  22.669  0.00  0.00    -0.192 NA
ATOM     27  H   UNL     1       3.608   1.891  22.808  0.00  0.00    +0.148 HD
BRANCH  10   1
ATOM      1  S   UNL     1       4.964   0.078  23.472  0.00  0.00    +0.027 S 
ATOM      7  O   UNL     1       5.178   0.706  24.760  0.00  0.00    -0.158 OA
ATOM      8  O   UNL     1       6.064  -0.110  22.545  0.00  0.00    -0.158 OA
ATOM     23  C   UNL     1       4.230  -1.517  23.755  0.00  0.00    +0.214 C 
ENDBRANCH  10   1
ENDBRANCH  21  10
ENDBRANCH  14  21
TORSDOF 9
ENDMDL
