MODEL 1
REMARK VINA RESULT:      -4.7      0.000      0.000
REMARK  Name = 51137876
REMARK  4 active torsions:
REMARK  status: ('A' for Active; 'I' for Inactive)
REMARK    1  A    between atoms: N_3  and  C_8
REMARK    2  A    between atoms: C_9  and  C_17
REMARK    3  A    between atoms: C_18  and  C_21
REMARK    4  A    between atoms: C_22  and  C_26
REMARK                            x       y       z     vdW  Elec       q    Type
REMARK                         _______ _______ _______ _____ _____    ______ ____
ROOT
ATOM      5  N   UNL     1      -5.677 -10.718  14.586  0.00  0.00    -0.342 N 
ATOM      6  N   UNL     1      -4.901 -10.484  12.517  0.00  0.00    -0.231 NA
ATOM     17  C   UNL     1      -5.975 -10.657  13.253  0.00  0.00    +0.113 A 
ATOM     19  C   UNL     1      -4.320 -10.575  14.718  0.00  0.00    +0.067 A 
ATOM     20  C   UNL     1      -3.858 -10.431  13.413  0.00  0.00    +0.101 A 
ATOM     22  C   UNL     1      -2.481 -10.260  13.188  0.00  0.00    +0.064 A 
ATOM     23  C   UNL     1      -3.481 -10.560  15.834  0.00  0.00    +0.028 A 
ATOM     24  C   UNL     1      -1.622 -10.242  14.292  0.00  0.00    +0.015 A 
ATOM     25  C   UNL     1      -2.114 -10.389  15.591  0.00  0.00    +0.003 A 
ATOM     27  H   UNL     1      -6.336 -10.845  15.342  0.00  0.00    +0.167 HD
ENDROOT
BRANCH  22  26
ATOM      2  O   UNL     1      -0.886  -9.511  11.626  0.00  0.00    -0.270 OA
ATOM      7  N   UNL     1      -2.691 -10.653  10.792  0.00  0.00    -0.325 N 
ATOM     26  C   UNL     1      -1.960 -10.103  11.842  0.00  0.00    +0.244 C 
ATOM     28  H   UNL     1      -2.355 -10.569   9.838  0.00  0.00    +0.145 HD
ATOM     29  H   UNL     1      -3.567 -11.150  10.911  0.00  0.00    +0.145 HD
ENDBRANCH  22  26
BRANCH  17   9
ATOM      3  N   UNL     1      -8.954  -9.827  11.288  0.00  0.00    -0.299 NA
ATOM      9  C   UNL     1      -7.399 -10.781  12.760  0.00  0.00    +0.070 C 
ATOM     10  C   UNL     1      -7.573 -10.312  11.310  0.00  0.00    +0.096 C 
ATOM     11  C   UNL     1      -9.109  -9.071  12.531  0.00  0.00    +0.085 C 
ATOM     12  C   UNL     1      -8.433  -9.968  13.560  0.00  0.00    +0.028 C 
BRANCH   3   8
ATOM      1  O   UNL     1      -8.404  -4.434   8.386  0.00  0.00    -0.276 OA
ATOM      4  N   UNL     1      -9.505  -6.431   8.833  0.00  0.00    -0.302 N 
ATOM      8  C   UNL     1      -9.243  -9.018  10.106  0.00  0.00    +0.060 C 
ATOM     13  C   UNL     1     -10.451  -8.112  10.371  0.00  0.00    +0.038 C 
ATOM     14  C   UNL     1      -8.015  -8.179   9.730  0.00  0.00    +0.038 C 
ATOM     15  C   UNL     1     -10.714  -7.187   9.182  0.00  0.00    +0.109 C 
ATOM     16  C   UNL     1      -8.326  -7.255   8.554  0.00  0.00    +0.109 C 
ATOM     18  C   UNL     1      -9.425  -5.043   8.717  0.00  0.00    +0.212 C 
ATOM     21  C   UNL     1     -10.681  -4.267   9.023  0.00  0.00    +0.109 C 
ENDBRANCH   3   8
ENDBRANCH  17   9
TORSDOF 3
ENDMDL
MODEL 2
REMARK VINA RESULT:      -3.3      3.509      7.408
REMARK  Name = 51137876
REMARK  4 active torsions:
REMARK  status: ('A' for Active; 'I' for Inactive)
REMARK    1  A    between atoms: N_3  and  C_8
REMARK    2  A    between atoms: C_9  and  C_17
REMARK    3  A    between atoms: C_18  and  C_21
REMARK    4  A    between atoms: C_22  and  C_26
REMARK                            x       y       z     vdW  Elec       q    Type
REMARK                         _______ _______ _______ _____ _____    ______ ____
ROOT
ATOM      5  N   UNL     1      -9.229  -8.668  13.717  0.00  0.00    -0.342 N 
ATOM      6  N   UNL     1      -8.054 -10.014  15.038  0.00  0.00    -0.231 NA
ATOM     17  C   UNL     1      -8.287  -9.655  13.797  0.00  0.00    +0.113 A 
ATOM     19  C   UNL     1      -9.631  -8.369  14.994  0.00  0.00    +0.067 A 
ATOM     20  C   UNL     1      -8.884  -9.223  15.801  0.00  0.00    +0.101 A 
ATOM     22  C   UNL     1      -9.056  -9.175  17.194  0.00  0.00    +0.064 A 
ATOM     23  C   UNL     1     -10.556  -7.454  15.497  0.00  0.00    +0.028 A 
ATOM     24  C   UNL     1      -9.979  -8.264  17.721  0.00  0.00    +0.015 A 
ATOM     25  C   UNL     1     -10.716  -7.420  16.887  0.00  0.00    +0.003 A 
ATOM     27  H   UNL     1      -9.570  -8.232  12.871  0.00  0.00    +0.167 HD
ENDROOT
BRANCH  22  26
ATOM      2  O   UNL     1      -8.839 -10.675  18.996  0.00  0.00    -0.270 OA
ATOM      7  N   UNL     1      -6.927 -10.174  17.833  0.00  0.00    -0.325 N 
ATOM     26  C   UNL     1      -8.294 -10.046  18.070  0.00  0.00    +0.244 C 
ATOM     28  H   UNL     1      -6.363 -10.779  18.420  0.00  0.00    +0.145 HD
ATOM     29  H   UNL     1      -6.434  -9.692  17.090  0.00  0.00    +0.145 HD
ENDBRANCH  22  26
BRANCH  17   9
ATOM      3  N   UNL     1      -5.548 -10.572  11.542  0.00  0.00    -0.299 NA
ATOM      9  C   UNL     1      -7.632 -10.218  12.555  0.00  0.00    +0.070 C 
ATOM     10  C   UNL     1      -6.229 -10.779  12.821  0.00  0.00    +0.096 C 
ATOM     11  C   UNL     1      -5.943  -9.229  11.116  0.00  0.00    +0.085 C 
ATOM     12  C   UNL     1      -7.437  -9.206  11.412  0.00  0.00    +0.028 C 
BRANCH   3   8
ATOM      1  O   UNL     1      -0.302  -8.751  14.184  0.00  0.00    -0.276 OA
ATOM      4  N   UNL     1      -1.518  -9.652  12.419  0.00  0.00    -0.302 N 
ATOM      8  C   UNL     1      -4.098 -10.716  11.652  0.00  0.00    +0.060 C 
ATOM     13  C   UNL     1      -3.397  -9.634  10.822  0.00  0.00    +0.038 C 
ATOM     14  C   UNL     1      -3.670 -10.626  13.123  0.00  0.00    +0.038 C 
ATOM     15  C   UNL     1      -1.880  -9.704  10.998  0.00  0.00    +0.109 C 
ATOM     16  C   UNL     1      -2.149 -10.678  13.251  0.00  0.00    +0.109 C 
ATOM     18  C   UNL     1      -0.619  -8.751  12.991  0.00  0.00    +0.212 C 
ATOM     21  C   UNL     1      -0.013  -7.724  12.068  0.00  0.00    +0.109 C 
ENDBRANCH   3   8
ENDBRANCH  17   9
TORSDOF 3
ENDMDL
