MODEL 1
REMARK VINA RESULT:      25.4      0.000      0.000
REMARK  Name = 7155494
REMARK  4 active torsions:
REMARK  status: ('A' for Active; 'I' for Inactive)
REMARK    1  A    between atoms: N_6  and  C_17
REMARK    2  A    between atoms: C_16  and  C_19
REMARK    3  A    between atoms: C_22  and  C_26
REMARK    4  A    between atoms: C_25  and  C_27
REMARK                            x       y       z     vdW  Elec       q    Type
REMARK                         _______ _______ _______ _____ _____    ______ ____
ROOT
ATOM      1  O   UNL     1       0.457   3.161  25.720  0.00  0.00    -0.266 OA
ATOM      2  O   UNL     1      -4.067   1.220  27.312  0.00  0.00    -0.270 OA
ATOM      4  N   UNL     1      -4.479   2.505  25.400  0.00  0.00    -0.297 N 
ATOM      5  N   UNL     1      -1.556   3.403  24.559  0.00  0.00    -0.310 N 
ATOM      7  C   UNL     1      -3.510   4.796  25.452  0.00  0.00    +0.027 C 
ATOM      8  C   UNL     1      -3.732   3.611  23.306  0.00  0.00    +0.054 C 
ATOM      9  C   UNL     1      -3.871   4.974  23.981  0.00  0.00    +0.018 C 
ATOM     10  C   UNL     1      -4.455   3.779  26.118  0.00  0.00    +0.113 C 
ATOM     11  C   UNL     1      -2.040   4.371  25.553  0.00  0.00    +0.130 C 
ATOM     12  C   UNL     1      -4.714   2.612  23.951  0.00  0.00    +0.117 C 
ATOM     13  C   UNL     1      -2.314   3.084  23.428  0.00  0.00    +0.027 A 
ATOM     14  C   UNL     1      -1.804   2.287  22.474  0.00  0.00    +0.024 A 
ATOM     15  C   UNL     1      -0.255   2.895  24.751  0.00  0.00    +0.273 A 
ATOM     16  C   UNL     1      -4.264   1.316  26.102  0.00  0.00    +0.247 C 
ATOM     17  C   UNL     1       0.266   1.988  23.679  0.00  0.00    +0.099 A 
ATOM     18  C   UNL     1      -0.488   1.729  22.606  0.00  0.00    +0.030 A 
ENDROOT
BRANCH  16  19
ATOM     19  C   UNL     1      -4.249   0.062  25.341  0.00  0.00    +0.037 A 
ATOM     20  C   UNL     1      -5.002  -0.049  24.175  0.00  0.00    +0.013 A 
ATOM     21  C   UNL     1      -3.481  -1.009  25.788  0.00  0.00    +0.013 A 
ATOM     23  C   UNL     1      -4.985  -1.242  23.450  0.00  0.00    +0.009 A 
ATOM     24  C   UNL     1      -3.464  -2.201  25.064  0.00  0.00    +0.009 A 
ATOM     25  C   UNL     1      -4.216  -2.317  23.894  0.00  0.00    -0.018 A 
BRANCH  25  27
ATOM     27  C   UNL     1      -4.201  -3.554  23.143  0.00  0.00    -0.018 A 
ATOM     30  C   UNL     1      -5.297  -3.905  22.355  0.00  0.00    +0.008 A 
ATOM     31  C   UNL     1      -3.090  -4.393  23.207  0.00  0.00    +0.008 A 
ATOM     34  C   UNL     1      -5.281  -5.096  21.630  0.00  0.00    +0.001 A 
ATOM     35  C   UNL     1      -3.074  -5.585  22.482  0.00  0.00    +0.001 A 
ATOM     37  C   UNL     1      -4.169  -5.936  21.692  0.00  0.00    +0.000 A 
ENDBRANCH  25  27
ENDBRANCH  16  19
BRANCH  17   6
ATOM      3  O   UNL     1       1.466  -0.018  22.042  0.00  0.00    -0.270 OA
ATOM      6  N   UNL     1       1.514   1.461  23.837  0.00  0.00    -0.277 N 
ATOM     22  C   UNL     1       2.043   0.484  23.005  0.00  0.00    +0.248 C 
ATOM     38  H   UNL     1       1.985   1.721  24.696  0.00  0.00    +0.155 HD
BRANCH  22  26
ATOM     26  C   UNL     1       3.428   0.050  23.321  0.00  0.00    +0.037 A 
ATOM     28  C   UNL     1       4.454   0.966  23.213  0.00  0.00    +0.013 A 
ATOM     29  C   UNL     1       3.643  -1.255  23.711  0.00  0.00    +0.013 A 
ATOM     32  C   UNL     1       5.754   0.558  23.512  0.00  0.00    +0.001 A 
ATOM     33  C   UNL     1       4.943  -1.663  24.009  0.00  0.00    +0.001 A 
ATOM     36  C   UNL     1       5.999  -0.757  23.909  0.00  0.00    +0.000 A 
ENDBRANCH  22  26
ENDBRANCH  17   6
TORSDOF 4
ENDMDL
MODEL 2
REMARK VINA RESULT:      26.5      3.337      6.263
REMARK  Name = 7155494
REMARK  4 active torsions:
REMARK  status: ('A' for Active; 'I' for Inactive)
REMARK    1  A    between atoms: N_6  and  C_17
REMARK    2  A    between atoms: C_16  and  C_19
REMARK    3  A    between atoms: C_22  and  C_26
REMARK    4  A    between atoms: C_25  and  C_27
REMARK                            x       y       z     vdW  Elec       q    Type
REMARK                         _______ _______ _______ _____ _____    ______ ____
ROOT
ATOM      1  O   UNL     1       0.100   0.879  21.945  0.00  0.00    -0.266 OA
ATOM      2  O   UNL     1      -1.762   4.820  24.732  0.00  0.00    -0.270 OA
ATOM      4  N   UNL     1      -3.267   3.039  24.928  0.00  0.00    -0.297 N 
ATOM      5  N   UNL     1      -1.803   0.748  23.295  0.00  0.00    -0.310 N 
ATOM      7  C   UNL     1      -3.964   2.017  22.768  0.00  0.00    +0.027 C 
ATOM      8  C   UNL     1      -3.826   0.623  24.792  0.00  0.00    +0.054 C 
ATOM      9  C   UNL     1      -4.647   0.887  23.531  0.00  0.00    +0.018 C 
ATOM     10  C   UNL     1      -3.901   3.289  23.633  0.00  0.00    +0.113 C 
ATOM     11  C   UNL     1      -2.571   1.547  22.330  0.00  0.00    +0.130 C 
ATOM     12  C   UNL     1      -3.806   1.889  25.672  0.00  0.00    +0.117 C 
ATOM     13  C   UNL     1      -2.404   0.222  24.443  0.00  0.00    +0.027 A 
ATOM     14  C   UNL     1      -1.716  -0.602  25.251  0.00  0.00    +0.024 A 
ATOM     15  C   UNL     1      -0.467   0.455  22.954  0.00  0.00    +0.273 A 
ATOM     16  C   UNL     1      -2.217   3.859  25.350  0.00  0.00    +0.247 C 
ATOM     17  C   UNL     1       0.275  -0.444  23.894  0.00  0.00    +0.099 A 
ATOM     18  C   UNL     1      -0.349  -0.939  24.968  0.00  0.00    +0.030 A 
ENDROOT
BRANCH  16  19
ATOM     19  C   UNL     1      -1.576   3.548  26.631  0.00  0.00    +0.037 A 
ATOM     20  C   UNL     1      -2.230   3.847  27.824  0.00  0.00    +0.013 A 
ATOM     21  C   UNL     1      -0.317   2.955  26.649  0.00  0.00    +0.013 A 
ATOM     23  C   UNL     1      -1.621   3.549  29.043  0.00  0.00    +0.009 A 
ATOM     24  C   UNL     1       0.293   2.657  27.868  0.00  0.00    +0.009 A 
ATOM     25  C   UNL     1      -0.360   2.954  29.065  0.00  0.00    -0.018 A 
BRANCH  25  27
ATOM     27  C   UNL     1       0.273   2.646  30.330  0.00  0.00    -0.018 A 
ATOM     30  C   UNL     1      -0.372   2.960  31.527  0.00  0.00    +0.008 A 
ATOM     31  C   UNL     1       1.526   2.036  30.351  0.00  0.00    +0.008 A 
ATOM     34  C   UNL     1       0.237   2.662  32.745  0.00  0.00    +0.001 A 
ATOM     35  C   UNL     1       2.136   1.738  31.570  0.00  0.00    +0.001 A 
ATOM     37  C   UNL     1       1.491   2.050  32.768  0.00  0.00    +0.000 A 
ENDBRANCH  25  27
ENDBRANCH  16  19
BRANCH  17   6
ATOM      3  O   UNL     1       2.448   1.405  23.853  0.00  0.00    -0.270 OA
ATOM      6  N   UNL     1       1.576  -0.737  23.609  0.00  0.00    -0.277 N 
ATOM     22  C   UNL     1       2.590   0.210  23.605  0.00  0.00    +0.248 C 
ATOM     38  H   UNL     1       1.737  -1.672  23.251  0.00  0.00    +0.155 HD
BRANCH  22  26
ATOM     26  C   UNL     1       3.949  -0.304  23.292  0.00  0.00    +0.037 A 
ATOM     28  C   UNL     1       4.782   0.458  22.497  0.00  0.00    +0.013 A 
ATOM     29  C   UNL     1       4.334  -1.524  23.805  0.00  0.00    +0.013 A 
ATOM     32  C   UNL     1       6.058  -0.024  22.205  0.00  0.00    +0.001 A 
ATOM     33  C   UNL     1       5.609  -2.006  23.513  0.00  0.00    +0.001 A 
ATOM     36  C   UNL     1       6.471  -1.256  22.712  0.00  0.00    +0.000 A 
ENDBRANCH  22  26
ENDBRANCH  17   6
TORSDOF 4
ENDMDL
