MODEL 1
REMARK VINA RESULT:       3.1      0.000      0.000
REMARK  Name = 40587851
REMARK  6 active torsions:
REMARK  status: ('A' for Active; 'I' for Inactive)
REMARK    1  A    between atoms: O_4  and  C_31
REMARK    2  A    between atoms: O_4  and  C_32
REMARK    3  A    between atoms: N_5  and  C_11
REMARK    4  A    between atoms: N_6  and  C_12
REMARK    5  A    between atoms: C_16  and  C_17
REMARK    6  A    between atoms: C_18  and  C_23
REMARK                            x       y       z     vdW  Elec       q    Type
REMARK                         _______ _______ _______ _____ _____    ______ ____
ROOT
ATOM      1  O   UNL     1      -5.251   2.850  25.936  0.00  0.00    -0.370 OA
ATOM      2  O   UNL     1      -2.823   3.498  24.087  0.00  0.00    -0.370 OA
ATOM      9  C   UNL     1      -3.267   2.299  24.745  0.00  0.00    +0.171 C 
ATOM     10  C   UNL     1      -3.830   2.708  26.092  0.00  0.00    +0.171 C 
ATOM     11  C   UNL     1      -4.449   1.707  24.015  0.00  0.00    +0.130 C 
ATOM     12  C   UNL     1      -3.193   4.051  26.365  0.00  0.00    +0.130 C 
ATOM     13  C   UNL     1      -5.620   2.473  24.601  0.00  0.00    +0.185 C 
ATOM     14  C   UNL     1      -3.015   4.616  24.966  0.00  0.00    +0.185 C 
ENDROOT
BRANCH  11   5
ATOM      5  N   UNL     1      -4.566   0.299  24.323  0.00  0.00    -0.306 N 
ATOM      7  N   UNL     1      -2.288  -0.052  24.040  0.00  0.00    -0.214 NA
ATOM      8  N   UNL     1      -3.767  -1.858  24.641  0.00  0.00    -0.223 NA
ATOM     15  C   UNL     1      -3.493  -0.576  24.334  0.00  0.00    +0.216 A 
ATOM     18  C   UNL     1      -1.264  -0.932  24.064  0.00  0.00    +0.076 A 
ATOM     21  C   UNL     1      -2.697  -2.682  24.646  0.00  0.00    +0.116 A 
ATOM     22  C   UNL     1      -1.411  -2.271  24.363  0.00  0.00    +0.048 A 
ATOM     33  H   UNL     1      -5.467  -0.078  24.596  0.00  0.00    +0.149 HD
BRANCH  18  23
ATOM     23  C   UNL     1       0.029  -0.375  23.749  0.00  0.00    +0.001 A 
ATOM     27  C   UNL     1       1.026  -1.188  23.210  0.00  0.00    +0.013 A 
ATOM     28  C   UNL     1       0.283   0.977  23.986  0.00  0.00    +0.013 A 
ATOM     29  C   UNL     1       2.277  -0.649  22.908  0.00  0.00    +0.046 A 
ATOM     30  C   UNL     1       1.534   1.515  23.684  0.00  0.00    +0.046 A 
ATOM     31  C   UNL     1       2.531   0.701  23.145  0.00  0.00    +0.120 A 
BRANCH  31   4
ATOM      4  O   UNL     1       3.752   1.226  22.851  0.00  0.00    -0.495 OA
ATOM     32  C   UNL     1       4.894   0.439  23.185  0.00  0.00    +0.277 C 
ENDBRANCH  31   4
ENDBRANCH  18  23
ENDBRANCH  11   5
BRANCH  12   6
ATOM      3  O   UNL     1      -1.449   1.773  26.246  0.00  0.00    -0.270 OA
ATOM      6  N   UNL     1      -1.924   3.902  27.035  0.00  0.00    -0.304 N 
ATOM     16  C   UNL     1      -1.149   2.757  26.915  0.00  0.00    +0.244 C 
ATOM     34  H   UNL     1      -1.662   4.629  27.691  0.00  0.00    +0.149 HD
BRANCH  16  17
ATOM     17  C   UNL     1       0.120   2.750  27.689  0.00  0.00    +0.037 A 
ATOM     19  C   UNL     1       1.334   2.978  27.041  0.00  0.00    +0.013 A 
ATOM     20  C   UNL     1       0.096   2.515  29.063  0.00  0.00    +0.013 A 
ATOM     24  C   UNL     1       2.524   2.970  27.768  0.00  0.00    +0.001 A 
ATOM     25  C   UNL     1       1.287   2.508  29.790  0.00  0.00    +0.001 A 
ATOM     26  C   UNL     1       2.501   2.735  29.142  0.00  0.00    +0.000 A 
ENDBRANCH  16  17
ENDBRANCH  12   6
TORSDOF 5
ENDMDL
MODEL 2
REMARK VINA RESULT:       4.9      2.032      5.463
REMARK  Name = 40587851
REMARK  6 active torsions:
REMARK  status: ('A' for Active; 'I' for Inactive)
REMARK    1  A    between atoms: O_4  and  C_31
REMARK    2  A    between atoms: O_4  and  C_32
REMARK    3  A    between atoms: N_5  and  C_11
REMARK    4  A    between atoms: N_6  and  C_12
REMARK    5  A    between atoms: C_16  and  C_17
REMARK    6  A    between atoms: C_18  and  C_23
REMARK                            x       y       z     vdW  Elec       q    Type
REMARK                         _______ _______ _______ _____ _____    ______ ____
ROOT
ATOM      1  O   UNL     1      -3.491  -1.400  23.152  0.00  0.00    -0.370 OA
ATOM      2  O   UNL     1      -2.279  -1.351  26.027  0.00  0.00    -0.370 OA
ATOM      9  C   UNL     1      -2.640  -0.319  25.093  0.00  0.00    +0.171 C 
ATOM     10  C   UNL     1      -2.295  -0.828  23.707  0.00  0.00    +0.171 C 
ATOM     11  C   UNL     1      -4.139  -0.142  25.060  0.00  0.00    +0.130 C 
ATOM     12  C   UNL     1      -1.263  -1.904  23.955  0.00  0.00    +0.130 C 
ATOM     13  C   UNL     1      -4.578  -1.204  24.069  0.00  0.00    +0.185 C 
ATOM     14  C   UNL     1      -1.675  -2.441  25.315  0.00  0.00    +0.185 C 
ENDROOT
BRANCH  11   5
ATOM      5  N   UNL     1      -4.471   1.175  24.563  0.00  0.00    -0.306 N 
ATOM      7  N   UNL     1      -2.612   2.131  25.575  0.00  0.00    -0.214 NA
ATOM      8  N   UNL     1      -4.155   3.459  24.285  0.00  0.00    -0.223 NA
ATOM     15  C   UNL     1      -3.713   2.305  24.820  0.00  0.00    +0.216 A 
ATOM     18  C   UNL     1      -1.896   3.252  25.803  0.00  0.00    +0.076 A 
ATOM     21  C   UNL     1      -3.391   4.540  24.552  0.00  0.00    +0.116 A 
ATOM     22  C   UNL     1      -2.240   4.495  25.313  0.00  0.00    +0.048 A 
ATOM     33  H   UNL     1      -5.271   1.289  23.951  0.00  0.00    +0.149 HD
BRANCH  18  23
ATOM     23  C   UNL     1      -0.715   3.071  26.613  0.00  0.00    +0.001 A 
ATOM     27  C   UNL     1       0.548   3.124  26.026  0.00  0.00    +0.013 A 
ATOM     28  C   UNL     1      -0.838   2.840  27.984  0.00  0.00    +0.013 A 
ATOM     29  C   UNL     1       1.690   2.948  26.808  0.00  0.00    +0.046 A 
ATOM     30  C   UNL     1       0.303   2.663  28.767  0.00  0.00    +0.046 A 
ATOM     31  C   UNL     1       1.567   2.717  28.178  0.00  0.00    +0.120 A 
BRANCH  31   4
ATOM      4  O   UNL     1       2.680   2.543  28.942  0.00  0.00    -0.495 OA
ATOM     32  C   UNL     1       2.514   1.867  30.187  0.00  0.00    +0.277 C 
ENDBRANCH  31   4
ENDBRANCH  18  23
ENDBRANCH  11   5
BRANCH  12   6
ATOM      3  O   UNL     1       0.156  -0.705  21.765  0.00  0.00    -0.270 OA
ATOM      6  N   UNL     1       0.069  -1.351  23.991  0.00  0.00    -0.304 N 
ATOM     16  C   UNL     1       0.674  -0.791  22.875  0.00  0.00    +0.244 C 
ATOM     34  H   UNL     1       0.599  -1.484  24.846  0.00  0.00    +0.149 HD
BRANCH  16  17
ATOM     17  C   UNL     1       2.059  -0.289  23.071  0.00  0.00    +0.037 A 
ATOM     19  C   UNL     1       2.372   1.035  22.765  0.00  0.00    +0.013 A 
ATOM     20  C   UNL     1       3.046  -1.143  23.562  0.00  0.00    +0.013 A 
ATOM     24  C   UNL     1       3.672   1.505  22.949  0.00  0.00    +0.001 A 
ATOM     25  C   UNL     1       4.347  -0.673  23.746  0.00  0.00    +0.001 A 
ATOM     26  C   UNL     1       4.659   0.651  23.440  0.00  0.00    +0.000 A 
ENDBRANCH  16  17
ENDBRANCH  12   6
TORSDOF 5
ENDMDL
