MODEL 1
REMARK VINA RESULT:       0.9      0.000      0.000
REMARK  Name = 7161554
REMARK  5 active torsions:
REMARK  status: ('A' for Active; 'I' for Inactive)
REMARK    1  A    between atoms: O_3  and  C_13
REMARK    2  A    between atoms: O_3  and  C_21
REMARK    3  A    between atoms: C_9  and  C_13
REMARK    4  A    between atoms: C_14  and  C_17
REMARK    5  A    between atoms: C_15  and  C_16
REMARK                            x       y       z     vdW  Elec       q    Type
REMARK                         _______ _______ _______ _____ _____    ______ ____
ROOT
ATOM      5  O   UNL     1       1.539  -2.466  24.770  0.00  0.00    -0.269 OA
ATOM      6  O   UNL     1      -4.743  -0.057  25.505  0.00  0.00    -0.270 OA
ATOM      7  N   UNL     1      -0.007  -0.762  24.458  0.00  0.00    -0.281 N 
ATOM      8  N   UNL     1      -2.731   0.054  24.320  0.00  0.00    -0.294 N 
ATOM      9  C   UNL     1      -0.325   0.635  24.110  0.00  0.00    +0.202 C 
ATOM     10  C   UNL     1      -1.737   0.804  23.543  0.00  0.00    +0.142 C 
ATOM     11  C   UNL     1      -1.048  -1.504  25.182  0.00  0.00    +0.128 C 
ATOM     12  C   UNL     1      -2.407  -1.357  24.512  0.00  0.00    +0.127 C 
ATOM     14  C   UNL     1       1.266  -1.354  24.314  0.00  0.00    +0.254 C 
ATOM     15  C   UNL     1      -3.910   0.574  24.857  0.00  0.00    +0.247 C 
ENDROOT
BRANCH  15  16
ATOM      2  F   UNL     1      -6.364   4.604  25.947  0.00  0.00    -0.205 F 
ATOM     16  C   UNL     1      -4.198   1.996  24.638  0.00  0.00    +0.040 A 
ATOM     18  C   UNL     1      -5.163   2.635  25.413  0.00  0.00    +0.051 A 
ATOM     19  C   UNL     1      -3.505   2.700  23.657  0.00  0.00    +0.013 A 
ATOM     23  C   UNL     1      -5.437   3.987  25.205  0.00  0.00    +0.124 A 
ATOM     24  C   UNL     1      -3.778   4.052  23.448  0.00  0.00    +0.004 A 
ATOM     26  C   UNL     1      -4.744   4.695  24.222  0.00  0.00    +0.038 A 
ENDBRANCH  15  16
BRANCH  14  17
ATOM      1  S   UNL     1       3.925  -0.999  23.805  0.00  0.00    -0.092 S 
ATOM     17  C   UNL     1       2.278  -0.592  23.594  0.00  0.00    +0.074 A 
ATOM     20  C   UNL     1       2.104   0.455  22.724  0.00  0.00    +0.021 A 
ATOM     22  C   UNL     1       3.346   0.938  22.220  0.00  0.00    +0.008 A 
ATOM     25  C   UNL     1       4.418   0.236  22.727  0.00  0.00    +0.046 A 
ENDBRANCH  14  17
BRANCH   9  13
ATOM      4  O   UNL     1      -0.503   1.071  26.474  0.00  0.00    -0.249 OA
ATOM     13  C   UNL     1      -0.139   1.439  25.365  0.00  0.00    +0.329 C 
BRANCH  13   3
ATOM      3  O   UNL     1       0.486   2.613  25.067  0.00  0.00    -0.467 OA
ATOM     21  C   UNL     1      -0.357   3.770  25.043  0.00  0.00    +0.280 C 
ENDBRANCH  13   3
ENDBRANCH   9  13
TORSDOF 4
ENDMDL
MODEL 2
REMARK VINA RESULT:       3.5      3.506      6.856
REMARK  Name = 7161554
REMARK  5 active torsions:
REMARK  status: ('A' for Active; 'I' for Inactive)
REMARK    1  A    between atoms: O_3  and  C_13
REMARK    2  A    between atoms: O_3  and  C_21
REMARK    3  A    between atoms: C_9  and  C_13
REMARK    4  A    between atoms: C_14  and  C_17
REMARK    5  A    between atoms: C_15  and  C_16
REMARK                            x       y       z     vdW  Elec       q    Type
REMARK                         _______ _______ _______ _____ _____    ______ ____
ROOT
ATOM      5  O   UNL     1      -6.185   0.883  26.133  0.00  0.00    -0.269 OA
ATOM      6  O   UNL     1      -0.715  -2.856  24.753  0.00  0.00    -0.270 OA
ATOM      7  N   UNL     1      -3.973   0.740  25.443  0.00  0.00    -0.281 N 
ATOM      8  N   UNL     1      -1.551  -0.752  25.337  0.00  0.00    -0.294 N 
ATOM      9  C   UNL     1      -2.776   1.350  24.835  0.00  0.00    +0.202 C 
ATOM     10  C   UNL     1      -1.470   0.714  25.317  0.00  0.00    +0.142 C 
ATOM     11  C   UNL     1      -3.995  -0.727  25.502  0.00  0.00    +0.128 C 
ATOM     12  C   UNL     1      -2.697  -1.283  26.070  0.00  0.00    +0.127 C 
ATOM     14  C   UNL     1      -5.146   1.447  25.786  0.00  0.00    +0.254 C 
ATOM     15  C   UNL     1      -0.647  -1.629  24.734  0.00  0.00    +0.247 C 
ENDROOT
BRANCH  15  16
ATOM      2  F   UNL     1       4.091  -1.477  23.741  0.00  0.00    -0.205 F 
ATOM     16  C   UNL     1       0.492  -1.052  24.008  0.00  0.00    +0.040 A 
ATOM     18  C   UNL     1       1.774  -1.549  24.225  0.00  0.00    +0.051 A 
ATOM     19  C   UNL     1       0.284  -0.011  23.107  0.00  0.00    +0.013 A 
ATOM     23  C   UNL     1       2.857  -1.002  23.535  0.00  0.00    +0.124 A 
ATOM     24  C   UNL     1       1.365   0.537  22.418  0.00  0.00    +0.004 A 
ATOM     26  C   UNL     1       2.652   0.042  22.632  0.00  0.00    +0.038 A 
ENDBRANCH  15  16
BRANCH  14  17
ATOM      1  S   UNL     1      -3.627   3.694  26.098  0.00  0.00    -0.092 S 
ATOM     17  C   UNL     1      -5.093   2.901  25.715  0.00  0.00    +0.074 A 
ATOM     20  C   UNL     1      -6.089   3.780  25.366  0.00  0.00    +0.021 A 
ATOM     22  C   UNL     1      -5.644   5.132  25.416  0.00  0.00    +0.008 A 
ATOM     25  C   UNL     1      -4.324   5.229  25.800  0.00  0.00    +0.046 A 
ENDBRANCH  14  17
BRANCH   9  13
ATOM      4  O   UNL     1      -3.326   0.193  22.793  0.00  0.00    -0.249 OA
ATOM     13  C   UNL     1      -2.937   1.212  23.348  0.00  0.00    +0.329 C 
BRANCH  13   3
ATOM      3  O   UNL     1      -2.584   2.380  22.740  0.00  0.00    -0.467 OA
ATOM     21  C   UNL     1      -3.661   3.284  22.473  0.00  0.00    +0.280 C 
ENDBRANCH  13   3
ENDBRANCH   9  13
TORSDOF 4
ENDMDL
MODEL 3
REMARK VINA RESULT:       4.4      1.922      2.705
REMARK  Name = 7161554
REMARK  5 active torsions:
REMARK  status: ('A' for Active; 'I' for Inactive)
REMARK    1  A    between atoms: O_3  and  C_13
REMARK    2  A    between atoms: O_3  and  C_21
REMARK    3  A    between atoms: C_9  and  C_13
REMARK    4  A    between atoms: C_14  and  C_17
REMARK    5  A    between atoms: C_15  and  C_16
REMARK                            x       y       z     vdW  Elec       q    Type
REMARK                         _______ _______ _______ _____ _____    ______ ____
ROOT
ATOM      5  O   UNL     1       1.612  -1.014  20.987  0.00  0.00    -0.269 OA
ATOM      6  O   UNL     1      -4.143   2.132  22.655  0.00  0.00    -0.270 OA
ATOM      7  N   UNL     1       0.439   0.413  22.394  0.00  0.00    -0.281 N 
ATOM      8  N   UNL     1      -1.811   2.106  22.812  0.00  0.00    -0.294 N 
ATOM      9  C   UNL     1       0.331   1.172  23.653  0.00  0.00    +0.202 C 
ATOM     10  C   UNL     1      -0.568   2.405  23.534  0.00  0.00    +0.142 C 
ATOM     11  C   UNL     1      -0.816   0.185  21.664  0.00  0.00    +0.128 C 
ATOM     12  C   UNL     1      -1.615   1.470  21.512  0.00  0.00    +0.127 C 
ATOM     14  C   UNL     1       1.605  -0.252  21.955  0.00  0.00    +0.254 C 
ATOM     15  C   UNL     1      -3.104   2.380  23.262  0.00  0.00    +0.247 C 
ENDROOT
BRANCH  15  16
ATOM      2  F   UNL     1      -5.631   3.159  27.320  0.00  0.00    -0.205 F 
ATOM     16  C   UNL     1      -3.255   3.022  24.574  0.00  0.00    +0.040 A 
ATOM     18  C   UNL     1      -4.394   2.780  25.337  0.00  0.00    +0.051 A 
ATOM     19  C   UNL     1      -2.258   3.872  25.048  0.00  0.00    +0.013 A 
ATOM     23  C   UNL     1      -4.537   3.390  26.583  0.00  0.00    +0.124 A 
ATOM     24  C   UNL     1      -2.401   4.482  26.293  0.00  0.00    +0.004 A 
ATOM     26  C   UNL     1      -3.541   4.242  27.061  0.00  0.00    +0.038 A 
ENDBRANCH  15  16
BRANCH  14  17
ATOM      1  S   UNL     1       3.494  -1.271  23.642  0.00  0.00    -0.092 S 
ATOM     17  C   UNL     1       2.833  -0.006  22.701  0.00  0.00    +0.074 A 
ATOM     20  C   UNL     1       3.581   1.143  22.766  0.00  0.00    +0.021 A 
ATOM     22  C   UNL     1       4.720   0.987  23.607  0.00  0.00    +0.008 A 
ATOM     25  C   UNL     1       4.794  -0.278  24.148  0.00  0.00    +0.046 A 
ENDBRANCH  14  17
BRANCH   9  13
ATOM      4  O   UNL     1      -0.586   0.547  25.792  0.00  0.00    -0.249 OA
ATOM     13  C   UNL     1      -0.188   0.212  24.685  0.00  0.00    +0.329 C 
BRANCH  13   3
ATOM      3  O   UNL     1      -0.139  -1.058  24.192  0.00  0.00    -0.467 OA
ATOM     21  C   UNL     1      -1.154  -1.944  24.673  0.00  0.00    +0.280 C 
ENDBRANCH  13   3
ENDBRANCH   9  13
TORSDOF 4
ENDMDL
MODEL 4
REMARK VINA RESULT:       4.7      2.819      4.305
REMARK  Name = 7161554
REMARK  5 active torsions:
REMARK  status: ('A' for Active; 'I' for Inactive)
REMARK    1  A    between atoms: O_3  and  C_13
REMARK    2  A    between atoms: O_3  and  C_21
REMARK    3  A    between atoms: C_9  and  C_13
REMARK    4  A    between atoms: C_14  and  C_17
REMARK    5  A    between atoms: C_15  and  C_16
REMARK                            x       y       z     vdW  Elec       q    Type
REMARK                         _______ _______ _______ _____ _____    ______ ____
ROOT
ATOM      5  O   UNL     1       3.599   2.504  22.648  0.00  0.00    -0.269 OA
ATOM      6  O   UNL     1      -2.999   2.314  24.140  0.00  0.00    -0.270 OA
ATOM      7  N   UNL     1       1.756   1.346  23.454  0.00  0.00    -0.281 N 
ATOM      8  N   UNL     1      -0.878   1.415  24.534  0.00  0.00    -0.294 N 
ATOM      9  C   UNL     1       1.111   0.085  23.866  0.00  0.00    +0.202 C 
ATOM     10  C   UNL     1      -0.004   0.291  24.893  0.00  0.00    +0.142 C 
ATOM     11  C   UNL     1       0.856   2.469  23.161  0.00  0.00    +0.128 C 
ATOM     12  C   UNL     1      -0.172   2.665  24.266  0.00  0.00    +0.127 C 
ATOM     14  C   UNL     1       3.128   1.483  23.149  0.00  0.00    +0.254 C 
ATOM     15  C   UNL     1      -2.270   1.371  24.439  0.00  0.00    +0.247 C 
ENDROOT
BRANCH  15  16
ATOM      2  F   UNL     1      -4.928  -2.412  22.995  0.00  0.00    -0.205 F 
ATOM     16  C   UNL     1      -2.939   0.094  24.719  0.00  0.00    +0.040 A 
ATOM     18  C   UNL     1      -3.628  -0.563  23.703  0.00  0.00    +0.051 A 
ATOM     19  C   UNL     1      -2.882  -0.452  25.999  0.00  0.00    +0.013 A 
ATOM     23  C   UNL     1      -4.264  -1.776  23.969  0.00  0.00    +0.124 A 
ATOM     24  C   UNL     1      -3.517  -1.664  26.265  0.00  0.00    +0.004 A 
ATOM     26  C   UNL     1      -4.209  -2.327  25.250  0.00  0.00    +0.038 A 
ENDBRANCH  15  16
BRANCH  14  17
ATOM      1  S   UNL     1       5.632   0.643  23.839  0.00  0.00    -0.092 S 
ATOM     17  C   UNL     1       3.994   0.350  23.450  0.00  0.00    +0.074 A 
ATOM     20  C   UNL     1       3.680  -0.987  23.472  0.00  0.00    +0.021 A 
ATOM     22  C   UNL     1       4.806  -1.789  23.814  0.00  0.00    +0.008 A 
ATOM     25  C   UNL     1       5.934  -1.030  24.039  0.00  0.00    +0.046 A 
ENDBRANCH  14  17
BRANCH   9  13
ATOM      4  O   UNL     1       1.116  -0.436  21.513  0.00  0.00    -0.249 OA
ATOM     13  C   UNL     1       0.590  -0.555  22.611  0.00  0.00    +0.329 C 
BRANCH  13   3
ATOM      3  O   UNL     1      -0.536  -1.269  22.896  0.00  0.00    -0.467 OA
ATOM     21  C   UNL     1      -0.420  -2.193  23.982  0.00  0.00    +0.280 C 
ENDBRANCH  13   3
ENDBRANCH   9  13
TORSDOF 4
ENDMDL
