MODEL 1
REMARK VINA RESULT:      -3.1      0.000      0.000
REMARK  Name = 11911984
REMARK  7 active torsions:
REMARK  status: ('A' for Active; 'I' for Inactive)
REMARK    1  A    between atoms: N_5  and  C_17
REMARK    2  A    between atoms: C_6  and  C_12
REMARK    3  A    between atoms: C_7  and  C_11
REMARK    4  A    between atoms: C_11  and  C_13
REMARK    5  A    between atoms: C_12  and  C_15
REMARK    6  A    between atoms: C_14  and  C_16
REMARK    7  A    between atoms: C_17  and  C_20
REMARK                            x       y       z     vdW  Elec       q    Type
REMARK                         _______ _______ _______ _____ _____    ______ ____
ROOT
ATOM      2  O   UNL     1      -5.878   0.641  26.709  0.00  0.00    -0.270 OA
ATOM      4  N   UNL     1      -4.399   1.918  25.425  0.00  0.00    -0.297 N 
ATOM      6  C   UNL     1      -4.159   4.315  23.772  0.00  0.00    +0.004 C 
ATOM      7  C   UNL     1      -3.667   2.925  23.290  0.00  0.00    +0.010 C 
ATOM      8  C   UNL     1      -5.277   4.133  24.817  0.00  0.00    +0.023 C 
ATOM      9  C   UNL     1      -3.285   2.019  24.471  0.00  0.00    +0.112 C 
ATOM     10  C   UNL     1      -4.871   3.197  25.954  0.00  0.00    +0.108 C 
ATOM     14  C   UNL     1      -4.976   0.729  25.877  0.00  0.00    +0.247 C 
ENDROOT
BRANCH  14  16
ATOM     16  C   UNL     1      -4.489  -0.537  25.314  0.00  0.00    +0.037 A 
ATOM     18  C   UNL     1      -4.748  -0.846  23.981  0.00  0.00    +0.013 A 
ATOM     19  C   UNL     1      -3.770  -1.420  26.116  0.00  0.00    +0.013 A 
ATOM     21  C   UNL     1      -4.285  -2.049  23.447  0.00  0.00    +0.001 A 
ATOM     22  C   UNL     1      -3.306  -2.621  25.580  0.00  0.00    +0.001 A 
ATOM     23  C   UNL     1      -3.564  -2.936  24.246  0.00  0.00    +0.000 A 
ENDBRANCH  14  16
BRANCH   7  11
ATOM     11  C   UNL     1      -2.520   3.010  22.285  0.00  0.00    +0.002 C 
ATOM     13  C   UNL     1      -2.349   1.703  21.539  0.00  0.00    +0.004 C 
ENDBRANCH   7  11
BRANCH   6  12
ATOM     12  C   UNL     1      -3.046   5.217  24.316  0.00  0.00    +0.099 C 
BRANCH  12  15
ATOM      3  O   UNL     1      -2.293   4.222  26.388  0.00  0.00    -0.276 OA
ATOM      5  N   UNL     1      -0.940   4.094  24.502  0.00  0.00    -0.311 N 
ATOM     15  C   UNL     1      -2.080   4.463  25.203  0.00  0.00    +0.214 C 
ATOM     29  H   UNL     1      -0.857   4.333  23.519  0.00  0.00    +0.149 HD
BRANCH   5  17
ATOM     17  C   UNL     1       0.153   3.364  25.101  0.00  0.00    +0.139 C 
BRANCH  17  20
ATOM      1  F   UNL     1      -0.395  -2.187  24.413  0.00  0.00    -0.205 F 
ATOM     20  C   UNL     1       0.006   1.881  24.918  0.00  0.00    -0.030 A 
ATOM     24  C   UNL     1       0.504   1.279  23.768  0.00  0.00    +0.008 A 
ATOM     25  C   UNL     1      -0.625   1.125  25.898  0.00  0.00    +0.008 A 
ATOM     26  C   UNL     1       0.368  -0.099  23.597  0.00  0.00    +0.038 A 
ATOM     27  C   UNL     1      -0.760  -0.252  25.729  0.00  0.00    +0.038 A 
ATOM     28  C   UNL     1      -0.264  -0.865  24.578  0.00  0.00    +0.123 A 
ENDBRANCH  17  20
ENDBRANCH   5  17
ENDBRANCH  12  15
ENDBRANCH   6  12
TORSDOF 6
ENDMDL
MODEL 2
REMARK VINA RESULT:      -2.1      2.452      5.894
REMARK  Name = 11911984
REMARK  7 active torsions:
REMARK  status: ('A' for Active; 'I' for Inactive)
REMARK    1  A    between atoms: N_5  and  C_17
REMARK    2  A    between atoms: C_6  and  C_12
REMARK    3  A    between atoms: C_7  and  C_11
REMARK    4  A    between atoms: C_11  and  C_13
REMARK    5  A    between atoms: C_12  and  C_15
REMARK    6  A    between atoms: C_14  and  C_16
REMARK    7  A    between atoms: C_17  and  C_20
REMARK                            x       y       z     vdW  Elec       q    Type
REMARK                         _______ _______ _______ _____ _____    ______ ____
ROOT
ATOM      2  O   UNL     1       0.589   2.323  25.070  0.00  0.00    -0.270 OA
ATOM      4  N   UNL     1      -0.849   0.548  24.576  0.00  0.00    -0.297 N 
ATOM      6  C   UNL     1      -2.603  -1.475  25.744  0.00  0.00    +0.004 C 
ATOM      7  C   UNL     1      -1.509  -1.830  24.703  0.00  0.00    +0.010 C 
ATOM      8  C   UNL     1      -2.206  -0.186  26.490  0.00  0.00    +0.023 C 
ATOM      9  C   UNL     1      -1.196  -0.640  23.783  0.00  0.00    +0.112 C 
ATOM     10  C   UNL     1      -1.868   0.961  25.540  0.00  0.00    +0.108 C 
ATOM     14  C   UNL     1       0.317   1.304  24.439  0.00  0.00    +0.247 C 
ENDROOT
BRANCH  14  16
ATOM     16  C   UNL     1       1.326   0.852  23.472  0.00  0.00    +0.037 A 
ATOM     18  C   UNL     1       0.973  -0.052  22.474  0.00  0.00    +0.013 A 
ATOM     19  C   UNL     1       2.631   1.333  23.558  0.00  0.00    +0.013 A 
ATOM     21  C   UNL     1       1.932  -0.481  21.556  0.00  0.00    +0.001 A 
ATOM     22  C   UNL     1       3.589   0.904  22.639  0.00  0.00    +0.001 A 
ATOM     23  C   UNL     1       3.240  -0.002  21.638  0.00  0.00    +0.000 A 
ENDBRANCH  14  16
BRANCH   7  11
ATOM     11  C   UNL     1      -1.846  -3.073  23.880  0.00  0.00    +0.002 C 
ATOM     13  C   UNL     1      -3.257  -3.546  24.158  0.00  0.00    +0.004 C 
ENDBRANCH   7  11
BRANCH   6  12
ATOM     12  C   UNL     1      -4.011  -1.352  25.154  0.00  0.00    +0.099 C 
BRANCH  12  15
ATOM      3  O   UNL     1      -3.791   0.356  23.456  0.00  0.00    -0.276 OA
ATOM      5  N   UNL     1      -5.065   0.789  25.351  0.00  0.00    -0.311 N 
ATOM     15  C   UNL     1      -4.257   0.008  24.537  0.00  0.00    +0.214 C 
ATOM     29  H   UNL     1      -5.409   0.409  26.228  0.00  0.00    +0.149 HD
BRANCH   5  17
ATOM     17  C   UNL     1      -5.461   2.136  25.011  0.00  0.00    +0.139 C 
BRANCH  17  20
ATOM      1  F   UNL     1      -1.147   5.729  25.275  0.00  0.00    -0.205 F 
ATOM     20  C   UNL     1      -4.308   3.096  25.082  0.00  0.00    -0.030 A 
ATOM     24  C   UNL     1      -3.668   3.488  23.912  0.00  0.00    +0.008 A 
ATOM     25  C   UNL     1      -3.894   3.583  26.316  0.00  0.00    +0.008 A 
ATOM     26  C   UNL     1      -2.598   4.380  23.978  0.00  0.00    +0.038 A 
ATOM     27  C   UNL     1      -2.824   4.475  26.382  0.00  0.00    +0.038 A 
ATOM     28  C   UNL     1      -2.176   4.874  25.213  0.00  0.00    +0.123 A 
ENDBRANCH  17  20
ENDBRANCH   5  17
ENDBRANCH  12  15
ENDBRANCH   6  12
TORSDOF 6
ENDMDL
MODEL 3
REMARK VINA RESULT:      -2.1      2.394      6.149
REMARK  Name = 11911984
REMARK  7 active torsions:
REMARK  status: ('A' for Active; 'I' for Inactive)
REMARK    1  A    between atoms: N_5  and  C_17
REMARK    2  A    between atoms: C_6  and  C_12
REMARK    3  A    between atoms: C_7  and  C_11
REMARK    4  A    between atoms: C_11  and  C_13
REMARK    5  A    between atoms: C_12  and  C_15
REMARK    6  A    between atoms: C_14  and  C_16
REMARK    7  A    between atoms: C_17  and  C_20
REMARK                            x       y       z     vdW  Elec       q    Type
REMARK                         _______ _______ _______ _____ _____    ______ ____
ROOT
ATOM      2  O   UNL     1      -1.987   2.651  27.088  0.00  0.00    -0.270 OA
ATOM      4  N   UNL     1      -1.482   1.153  25.365  0.00  0.00    -0.297 N 
ATOM      6  C   UNL     1      -0.282  -1.440  24.758  0.00  0.00    +0.004 C 
ATOM      7  C   UNL     1       0.114  -0.147  23.998  0.00  0.00    +0.010 C 
ATOM      8  C   UNL     1      -0.809  -1.074  26.159  0.00  0.00    +0.023 C 
ATOM      9  C   UNL     1      -1.029   0.880  23.993  0.00  0.00    +0.112 C 
ATOM     10  C   UNL     1      -1.918  -0.025  26.114  0.00  0.00    +0.108 C 
ATOM     14  C   UNL     1      -1.567   2.416  25.956  0.00  0.00    +0.247 C 
ENDROOT
BRANCH  14  16
ATOM     16  C   UNL     1      -1.107   3.576  25.182  0.00  0.00    +0.037 A 
ATOM     18  C   UNL     1      -0.121   3.414  24.212  0.00  0.00    +0.013 A 
ATOM     19  C   UNL     1      -1.659   4.832  25.423  0.00  0.00    +0.013 A 
ATOM     21  C   UNL     1       0.315   4.516  23.476  0.00  0.00    +0.001 A 
ATOM     22  C   UNL     1      -1.222   5.933  24.686  0.00  0.00    +0.001 A 
ATOM     23  C   UNL     1      -0.235   5.775  23.713  0.00  0.00    +0.000 A 
ENDBRANCH  14  16
BRANCH   7  11
ATOM     11  C   UNL     1       0.602  -0.414  22.575  0.00  0.00    +0.002 C 
ATOM     13  C   UNL     1       2.045   0.014  22.404  0.00  0.00    +0.004 C 
ENDBRANCH   7  11
BRANCH   6  12
ATOM     12  C   UNL     1      -1.289  -2.321  24.010  0.00  0.00    +0.099 C 
BRANCH  12  15
ATOM      3  O   UNL     1      -3.159  -2.842  25.452  0.00  0.00    -0.276 OA
ATOM      5  N   UNL     1      -3.375  -1.156  23.866  0.00  0.00    -0.311 N 
ATOM     15  C   UNL     1      -2.696  -2.160  24.541  0.00  0.00    +0.214 C 
ATOM     29  H   UNL     1      -2.903  -0.640  23.129  0.00  0.00    +0.149 HD
BRANCH   5  17
ATOM     17  C   UNL     1      -4.740  -0.787  24.164  0.00  0.00    +0.139 C 
BRANCH  17  20
ATOM      1  F   UNL     1      -5.211   4.661  25.462  0.00  0.00    -0.205 F 
ATOM     20  C   UNL     1      -4.866   0.668  24.511  0.00  0.00    -0.030 A 
ATOM     24  C   UNL     1      -4.274   1.623  23.693  0.00  0.00    +0.008 A 
ATOM     25  C   UNL     1      -5.572   1.046  25.646  0.00  0.00    +0.008 A 
ATOM     26  C   UNL     1      -4.391   2.975  24.015  0.00  0.00    +0.038 A 
ATOM     27  C   UNL     1      -5.691   2.397  25.969  0.00  0.00    +0.038 A 
ATOM     28  C   UNL     1      -5.099   3.363  25.153  0.00  0.00    +0.123 A 
ENDBRANCH  17  20
ENDBRANCH   5  17
ENDBRANCH  12  15
ENDBRANCH   6  12
TORSDOF 6
ENDMDL
MODEL 4
REMARK VINA RESULT:      -1.5      2.574      5.606
REMARK  Name = 11911984
REMARK  7 active torsions:
REMARK  status: ('A' for Active; 'I' for Inactive)
REMARK    1  A    between atoms: N_5  and  C_17
REMARK    2  A    between atoms: C_6  and  C_12
REMARK    3  A    between atoms: C_7  and  C_11
REMARK    4  A    between atoms: C_11  and  C_13
REMARK    5  A    between atoms: C_12  and  C_15
REMARK    6  A    between atoms: C_14  and  C_16
REMARK    7  A    between atoms: C_17  and  C_20
REMARK                            x       y       z     vdW  Elec       q    Type
REMARK                         _______ _______ _______ _____ _____    ______ ____
ROOT
ATOM      2  O   UNL     1       0.463  -0.928  22.005  0.00  0.00    -0.270 OA
ATOM      4  N   UNL     1      -0.072   0.869  23.402  0.00  0.00    -0.297 N 
ATOM      6  C   UNL     1      -1.741   3.253  23.660  0.00  0.00    +0.004 C 
ATOM      7  C   UNL     1      -0.208   3.286  23.898  0.00  0.00    +0.010 C 
ATOM      8  C   UNL     1      -2.090   2.090  22.710  0.00  0.00    +0.023 C 
ATOM      9  C   UNL     1       0.324   1.918  24.353  0.00  0.00    +0.112 C 
ATOM     10  C   UNL     1      -1.512   0.756  23.178  0.00  0.00    +0.108 C 
ATOM     14  C   UNL     1       0.797  -0.021  22.766  0.00  0.00    +0.247 C 
ENDROOT
BRANCH  14  16
ATOM     16  C   UNL     1       2.239   0.130  23.002  0.00  0.00    +0.037 A 
ATOM     18  C   UNL     1       2.970  -0.934  23.524  0.00  0.00    +0.013 A 
ATOM     19  C   UNL     1       2.867   1.336  22.700  0.00  0.00    +0.013 A 
ATOM     21  C   UNL     1       4.339  -0.790  23.747  0.00  0.00    +0.001 A 
ATOM     22  C   UNL     1       4.237   1.478  22.923  0.00  0.00    +0.001 A 
ATOM     23  C   UNL     1       4.973   0.415  23.446  0.00  0.00    +0.000 A 
ENDBRANCH  14  16
BRANCH   7  11
ATOM     11  C   UNL     1       0.224   4.382  24.871  0.00  0.00    +0.002 C 
ATOM     13  C   UNL     1      -0.772   5.523  24.885  0.00  0.00    +0.004 C 
ENDBRANCH   7  11
BRANCH   6  12
ATOM     12  C   UNL     1      -2.571   3.174  24.945  0.00  0.00    +0.099 C 
BRANCH  12  15
ATOM      3  O   UNL     1      -4.698   2.312  24.183  0.00  0.00    -0.276 OA
ATOM      5  N   UNL     1      -3.390   1.025  25.609  0.00  0.00    -0.311 N 
ATOM     15  C   UNL     1      -3.680   2.149  24.850  0.00  0.00    +0.214 C 
ATOM     29  H   UNL     1      -2.515   0.979  26.124  0.00  0.00    +0.149 HD
BRANCH   5  17
ATOM     17  C   UNL     1      -4.274  -0.113  25.704  0.00  0.00    +0.139 C 
BRANCH  17  20
ATOM      1  F   UNL     1      -2.253  -4.584  22.962  0.00  0.00    -0.205 F 
ATOM     20  C   UNL     1      -3.735  -1.308  24.971  0.00  0.00    -0.030 A 
ATOM     24  C   UNL     1      -2.434  -1.734  25.216  0.00  0.00    +0.008 A 
ATOM     25  C   UNL     1      -4.540  -1.974  24.056  0.00  0.00    +0.008 A 
ATOM     26  C   UNL     1      -1.933  -2.843  24.536  0.00  0.00    +0.038 A 
ATOM     27  C   UNL     1      -4.040  -3.084  23.376  0.00  0.00    +0.038 A 
ATOM     28  C   UNL     1      -2.735  -3.519  23.616  0.00  0.00    +0.123 A 
ENDBRANCH  17  20
ENDBRANCH   5  17
ENDBRANCH  12  15
ENDBRANCH   6  12
TORSDOF 6
ENDMDL
MODEL 5
REMARK VINA RESULT:      -1.1      2.442      5.251
REMARK  Name = 11911984
REMARK  7 active torsions:
REMARK  status: ('A' for Active; 'I' for Inactive)
REMARK    1  A    between atoms: N_5  and  C_17
REMARK    2  A    between atoms: C_6  and  C_12
REMARK    3  A    between atoms: C_7  and  C_11
REMARK    4  A    between atoms: C_11  and  C_13
REMARK    5  A    between atoms: C_12  and  C_15
REMARK    6  A    between atoms: C_14  and  C_16
REMARK    7  A    between atoms: C_17  and  C_20
REMARK                            x       y       z     vdW  Elec       q    Type
REMARK                         _______ _______ _______ _____ _____    ______ ____
ROOT
ATOM      2  O   UNL     1      -0.128  -2.488  24.843  0.00  0.00    -0.270 OA
ATOM      4  N   UNL     1      -1.838  -0.894  24.769  0.00  0.00    -0.297 N 
ATOM      6  C   UNL     1      -4.642  -0.461  24.077  0.00  0.00    +0.004 C 
ATOM      7  C   UNL     1      -3.510   0.461  23.555  0.00  0.00    +0.010 C 
ATOM      8  C   UNL     1      -4.068  -1.857  24.391  0.00  0.00    +0.023 C 
ATOM      9  C   UNL     1      -2.306   0.475  24.510  0.00  0.00    +0.112 C 
ATOM     10  C   UNL     1      -2.851  -1.797  25.312  0.00  0.00    +0.108 C 
ATOM     14  C   UNL     1      -0.532  -1.355  24.585  0.00  0.00    +0.247 C 
ENDROOT
BRANCH  14  16
ATOM     16  C   UNL     1       0.458  -0.427  24.023  0.00  0.00    +0.037 A 
ATOM     18  C   UNL     1       0.414   0.922  24.364  0.00  0.00    +0.013 A 
ATOM     19  C   UNL     1       1.437  -0.902  23.153  0.00  0.00    +0.013 A 
ATOM     21  C   UNL     1       1.355   1.803  23.831  0.00  0.00    +0.001 A 
ATOM     22  C   UNL     1       2.377  -0.020  22.620  0.00  0.00    +0.001 A 
ATOM     23  C   UNL     1       2.336   1.332  22.959  0.00  0.00    +0.000 A 
ENDBRANCH  14  16
BRANCH   7  11
ATOM     11  C   UNL     1      -3.982   1.885  23.265  0.00  0.00    +0.002 C 
ATOM     13  C   UNL     1      -2.943   2.655  22.478  0.00  0.00    +0.004 C 
ENDBRANCH   7  11
BRANCH   6  12
ATOM     12  C   UNL     1      -5.399   0.100  25.285  0.00  0.00    +0.099 C 
BRANCH  12  15
ATOM      3  O   UNL     1      -6.322   2.195  24.504  0.00  0.00    -0.276 OA
ATOM      5  N   UNL     1      -4.634   2.217  26.102  0.00  0.00    -0.311 N 
ATOM     15  C   UNL     1      -5.527   1.607  25.232  0.00  0.00    +0.214 C 
ATOM     29  H   UNL     1      -4.018   1.643  26.671  0.00  0.00    +0.149 HD
BRANCH   5  17
ATOM     17  C   UNL     1      -4.536   3.650  26.257  0.00  0.00    +0.139 C 
BRANCH  17  20
ATOM      1  F   UNL     1       0.418   5.623  24.479  0.00  0.00    -0.205 F 
ATOM     20  C   UNL     1      -3.213   4.177  25.782  0.00  0.00    -0.030 A 
ATOM     24  C   UNL     1      -2.059   3.432  25.998  0.00  0.00    +0.008 A 
ATOM     25  C   UNL     1      -3.154   5.404  25.131  0.00  0.00    +0.008 A 
ATOM     26  C   UNL     1      -0.830   3.922  25.557  0.00  0.00    +0.038 A 
ATOM     27  C   UNL     1      -1.926   5.893  24.689  0.00  0.00    +0.038 A 
ATOM     28  C   UNL     1      -0.763   5.152  24.902  0.00  0.00    +0.123 A 
ENDBRANCH  17  20
ENDBRANCH   5  17
ENDBRANCH  12  15
ENDBRANCH   6  12
TORSDOF 6
ENDMDL
MODEL 6
REMARK VINA RESULT:      -0.9      2.995      5.301
REMARK  Name = 11911984
REMARK  7 active torsions:
REMARK  status: ('A' for Active; 'I' for Inactive)
REMARK    1  A    between atoms: N_5  and  C_17
REMARK    2  A    between atoms: C_6  and  C_12
REMARK    3  A    between atoms: C_7  and  C_11
REMARK    4  A    between atoms: C_11  and  C_13
REMARK    5  A    between atoms: C_12  and  C_15
REMARK    6  A    between atoms: C_14  and  C_16
REMARK    7  A    between atoms: C_17  and  C_20
REMARK                            x       y       z     vdW  Elec       q    Type
REMARK                         _______ _______ _______ _____ _____    ______ ____
ROOT
ATOM      2  O   UNL     1      -6.330   0.442  24.304  0.00  0.00    -0.270 OA
ATOM      4  N   UNL     1      -4.039   0.057  24.568  0.00  0.00    -0.297 N 
ATOM      6  C   UNL     1      -2.060  -1.692  25.815  0.00  0.00    +0.004 C 
ATOM      7  C   UNL     1      -2.003  -0.148  25.953  0.00  0.00    +0.010 C 
ATOM      8  C   UNL     1      -3.513  -2.134  25.552  0.00  0.00    +0.023 C 
ATOM      9  C   UNL     1      -2.668   0.552  24.758  0.00  0.00    +0.112 C 
ATOM     10  C   UNL     1      -4.149  -1.389  24.380  0.00  0.00    +0.108 C 
ATOM     14  C   UNL     1      -5.188   0.850  24.507  0.00  0.00    +0.247 C 
ENDROOT
BRANCH  14  16
ATOM     16  C   UNL     1      -5.044   2.296  24.716  0.00  0.00    +0.037 A 
ATOM     18  C   UNL     1      -4.053   2.998  24.035  0.00  0.00    +0.013 A 
ATOM     19  C   UNL     1      -5.900   2.958  25.592  0.00  0.00    +0.013 A 
ATOM     21  C   UNL     1      -3.916   4.373  24.232  0.00  0.00    +0.001 A 
ATOM     22  C   UNL     1      -5.763   4.333  25.789  0.00  0.00    +0.001 A 
ATOM     23  C   UNL     1      -4.772   5.040  25.109  0.00  0.00    +0.000 A 
ENDBRANCH  14  16
BRANCH   7  11
ATOM     11  C   UNL     1      -0.587   0.383  26.168  0.00  0.00    +0.002 C 
ATOM     13  C   UNL     1      -0.498   1.855  25.824  0.00  0.00    +0.004 C 
ENDBRANCH   7  11
BRANCH   6  12
ATOM     12  C   UNL     1      -1.117  -2.259  24.750  0.00  0.00    +0.099 C 
BRANCH  12  15
ATOM      3  O   UNL     1      -1.488  -0.682  22.955  0.00  0.00    -0.276 OA
ATOM      5  N   UNL     1       0.657  -0.956  23.807  0.00  0.00    -0.311 N 
ATOM     15  C   UNL     1      -0.705  -1.216  23.735  0.00  0.00    +0.214 C 
ATOM     29  H   UNL     1       1.224  -1.445  24.493  0.00  0.00    +0.149 HD
BRANCH   5  17
ATOM     17  C   UNL     1       1.325  -0.002  22.953  0.00  0.00    +0.139 C 
BRANCH  17  20
ATOM      1  F   UNL     1       6.908  -0.156  23.586  0.00  0.00    -0.205 F 
ATOM     20  C   UNL     1       2.816  -0.044  23.122  0.00  0.00    -0.030 A 
ATOM     24  C   UNL     1       3.579   1.062  22.764  0.00  0.00    +0.008 A 
ATOM     25  C   UNL     1       3.419  -1.186  23.634  0.00  0.00    +0.008 A 
ATOM     26  C   UNL     1       4.964   1.024  22.921  0.00  0.00    +0.038 A 
ATOM     27  C   UNL     1       4.803  -1.225  23.793  0.00  0.00    +0.038 A 
ATOM     28  C   UNL     1       5.577  -0.119  23.436  0.00  0.00    +0.123 A 
ENDBRANCH  17  20
ENDBRANCH   5  17
ENDBRANCH  12  15
ENDBRANCH   6  12
TORSDOF 6
ENDMDL
MODEL 7
REMARK VINA RESULT:      -0.3      1.766      4.528
REMARK  Name = 11911984
REMARK  7 active torsions:
REMARK  status: ('A' for Active; 'I' for Inactive)
REMARK    1  A    between atoms: N_5  and  C_17
REMARK    2  A    between atoms: C_6  and  C_12
REMARK    3  A    between atoms: C_7  and  C_11
REMARK    4  A    between atoms: C_11  and  C_13
REMARK    5  A    between atoms: C_12  and  C_15
REMARK    6  A    between atoms: C_14  and  C_16
REMARK    7  A    between atoms: C_17  and  C_20
REMARK                            x       y       z     vdW  Elec       q    Type
REMARK                         _______ _______ _______ _____ _____    ______ ____
ROOT
ATOM      2  O   UNL     1      -2.217   1.538  21.340  0.00  0.00    -0.270 OA
ATOM      4  N   UNL     1      -2.376   2.207  23.575  0.00  0.00    -0.297 N 
ATOM      6  C   UNL     1      -3.174   4.392  25.341  0.00  0.00    +0.004 C 
ATOM      7  C   UNL     1      -1.792   3.699  25.456  0.00  0.00    +0.010 C 
ATOM      8  C   UNL     1      -3.706   4.249  23.901  0.00  0.00    +0.023 C 
ATOM      9  C   UNL     1      -1.840   2.251  24.943  0.00  0.00    +0.112 C 
ATOM     10  C   UNL     1      -3.703   2.801  23.416  0.00  0.00    +0.108 C 
ATOM     14  C   UNL     1      -1.750   1.615  22.476  0.00  0.00    +0.247 C 
ENDROOT
BRANCH  14  16
ATOM     16  C   UNL     1      -0.412   1.041  22.666  0.00  0.00    +0.037 A 
ATOM     18  C   UNL     1       0.501   1.677  23.503  0.00  0.00    +0.013 A 
ATOM     19  C   UNL     1      -0.064  -0.137  22.009  0.00  0.00    +0.013 A 
ATOM     21  C   UNL     1       1.772   1.131  23.684  0.00  0.00    +0.001 A 
ATOM     22  C   UNL     1       1.207  -0.682  22.191  0.00  0.00    +0.001 A 
ATOM     23  C   UNL     1       2.125  -0.048  23.028  0.00  0.00    +0.000 A 
ENDBRANCH  14  16
BRANCH   7  11
ATOM     11  C   UNL     1      -1.211   3.749  26.868  0.00  0.00    +0.002 C 
ATOM     13  C   UNL     1      -0.116   2.718  27.046  0.00  0.00    +0.004 C 
ENDBRANCH   7  11
BRANCH   6  12
ATOM     12  C   UNL     1      -4.209   3.895  26.356  0.00  0.00    +0.099 C 
BRANCH  12  15
ATOM      3  O   UNL     1      -6.208   3.023  25.310  0.00  0.00    -0.276 OA
ATOM      5  N   UNL     1      -4.486   1.566  25.875  0.00  0.00    -0.311 N 
ATOM     15  C   UNL     1      -5.096   2.810  25.785  0.00  0.00    +0.214 C 
ATOM     29  H   UNL     1      -3.557   1.491  26.279  0.00  0.00    +0.149 HD
BRANCH   5  17
ATOM     17  C   UNL     1      -5.106   0.348  25.408  0.00  0.00    +0.139 C 
BRANCH  17  20
ATOM      1  F   UNL     1      -1.302  -3.482  23.842  0.00  0.00    -0.205 F 
ATOM     20  C   UNL     1      -4.090  -0.675  24.989  0.00  0.00    -0.030 A 
ATOM     24  C   UNL     1      -2.801  -0.613  25.505  0.00  0.00    +0.008 A 
ATOM     25  C   UNL     1      -4.449  -1.673  24.091  0.00  0.00    +0.008 A 
ATOM     26  C   UNL     1      -1.856  -1.564  25.116  0.00  0.00    +0.038 A 
ATOM     27  C   UNL     1      -3.506  -2.624  23.703  0.00  0.00    +0.038 A 
ATOM     28  C   UNL     1      -2.209  -2.570  24.216  0.00  0.00    +0.123 A 
ENDBRANCH  17  20
ENDBRANCH   5  17
ENDBRANCH  12  15
ENDBRANCH   6  12
TORSDOF 6
ENDMDL
MODEL 8
REMARK VINA RESULT:      -0.0      1.930      3.903
REMARK  Name = 11911984
REMARK  7 active torsions:
REMARK  status: ('A' for Active; 'I' for Inactive)
REMARK    1  A    between atoms: N_5  and  C_17
REMARK    2  A    between atoms: C_6  and  C_12
REMARK    3  A    between atoms: C_7  and  C_11
REMARK    4  A    between atoms: C_11  and  C_13
REMARK    5  A    between atoms: C_12  and  C_15
REMARK    6  A    between atoms: C_14  and  C_16
REMARK    7  A    between atoms: C_17  and  C_20
REMARK                            x       y       z     vdW  Elec       q    Type
REMARK                         _______ _______ _______ _____ _____    ______ ____
ROOT
ATOM      2  O   UNL     1      -3.904   4.804  26.934  0.00  0.00    -0.270 OA
ATOM      4  N   UNL     1      -2.502   3.494  25.598  0.00  0.00    -0.297 N 
ATOM      6  C   UNL     1      -0.364   3.583  23.610  0.00  0.00    +0.004 C 
ATOM      7  C   UNL     1      -1.652   2.743  23.403  0.00  0.00    +0.010 C 
ATOM      8  C   UNL     1      -0.660   4.754  24.568  0.00  0.00    +0.023 C 
ATOM      9  C   UNL     1      -2.273   2.320  24.743  0.00  0.00    +0.112 C 
ATOM     10  C   UNL     1      -1.311   4.296  25.872  0.00  0.00    +0.108 C 
ATOM     14  C   UNL     1      -3.721   3.848  26.183  0.00  0.00    +0.247 C 
ENDROOT
BRANCH  14  16
ATOM     16  C   UNL     1      -4.901   3.030  25.876  0.00  0.00    +0.037 A 
ATOM     18  C   UNL     1      -5.203   2.720  24.552  0.00  0.00    +0.013 A 
ATOM     19  C   UNL     1      -5.711   2.567  26.910  0.00  0.00    +0.013 A 
ATOM     21  C   UNL     1      -6.324   1.942  24.261  0.00  0.00    +0.001 A 
ATOM     22  C   UNL     1      -6.831   1.789  26.618  0.00  0.00    +0.001 A 
ATOM     23  C   UNL     1      -7.138   1.477  25.294  0.00  0.00    +0.000 A 
ENDBRANCH  14  16
BRANCH   7  11
ATOM     11  C   UNL     1      -1.436   1.528  22.503  0.00  0.00    +0.002 C 
ATOM     13  C   UNL     1      -2.742   0.810  22.233  0.00  0.00    +0.004 C 
ENDBRANCH   7  11
BRANCH   6  12
ATOM     12  C   UNL     1       0.840   2.771  24.099  0.00  0.00    +0.099 C 
BRANCH  12  15
ATOM      3  O   UNL     1       0.520   2.176  26.421  0.00  0.00    -0.276 OA
ATOM      5  N   UNL     1       0.111   0.592  24.770  0.00  0.00    -0.311 N 
ATOM     15  C   UNL     1       0.481   1.844  25.239  0.00  0.00    +0.214 C 
ATOM     29  H   UNL     1       0.103   0.414  23.770  0.00  0.00    +0.149 HD
BRANCH   5  17
ATOM     17  C   UNL     1      -0.280  -0.494  25.639  0.00  0.00    +0.139 C 
BRANCH  17  20
ATOM      1  F   UNL     1      -5.033  -2.956  23.924  0.00  0.00    -0.205 F 
ATOM     20  C   UNL     1      -1.549  -1.152  25.181  0.00  0.00    -0.030 A 
ATOM     24  C   UNL     1      -2.775  -0.601  25.536  0.00  0.00    +0.008 A 
ATOM     25  C   UNL     1      -1.486  -2.304  24.407  0.00  0.00    +0.008 A 
ATOM     26  C   UNL     1      -3.955  -1.212  25.110  0.00  0.00    +0.038 A 
ATOM     27  C   UNL     1      -2.665  -2.915  23.980  0.00  0.00    +0.038 A 
ATOM     28  C   UNL     1      -3.900  -2.369  24.332  0.00  0.00    +0.123 A 
ENDBRANCH  17  20
ENDBRANCH   5  17
ENDBRANCH  12  15
ENDBRANCH   6  12
TORSDOF 6
ENDMDL
MODEL 9
REMARK VINA RESULT:       0.4      2.667      5.184
REMARK  Name = 11911984
REMARK  7 active torsions:
REMARK  status: ('A' for Active; 'I' for Inactive)
REMARK    1  A    between atoms: N_5  and  C_17
REMARK    2  A    between atoms: C_6  and  C_12
REMARK    3  A    between atoms: C_7  and  C_11
REMARK    4  A    between atoms: C_11  and  C_13
REMARK    5  A    between atoms: C_12  and  C_15
REMARK    6  A    between atoms: C_14  and  C_16
REMARK    7  A    between atoms: C_17  and  C_20
REMARK                            x       y       z     vdW  Elec       q    Type
REMARK                         _______ _______ _______ _____ _____    ______ ____
ROOT
ATOM      2  O   UNL     1      -3.561   3.263  22.709  0.00  0.00    -0.270 OA
ATOM      4  N   UNL     1      -2.887   1.356  23.881  0.00  0.00    -0.297 N 
ATOM      6  C   UNL     1      -2.039  -1.424  23.592  0.00  0.00    +0.004 C 
ATOM      7  C   UNL     1      -3.170  -1.002  24.565  0.00  0.00    +0.010 C 
ATOM      8  C   UNL     1      -1.932  -0.398  22.447  0.00  0.00    +0.023 C 
ATOM      9  C   UNL     1      -3.000   0.451  25.034  0.00  0.00    +0.112 C 
ATOM     10  C   UNL     1      -1.802   1.037  22.955  0.00  0.00    +0.108 C 
ATOM     14  C   UNL     1      -3.683   2.481  23.650  0.00  0.00    +0.247 C 
ENDROOT
BRANCH  14  16
ATOM     16  C   UNL     1      -4.774   2.764  24.591  0.00  0.00    +0.037 A 
ATOM     18  C   UNL     1      -5.533   1.716  25.106  0.00  0.00    +0.013 A 
ATOM     19  C   UNL     1      -5.042   4.079  24.965  0.00  0.00    +0.013 A 
ATOM     21  C   UNL     1      -6.569   1.986  26.000  0.00  0.00    +0.001 A 
ATOM     22  C   UNL     1      -6.078   4.347  25.861  0.00  0.00    +0.001 A 
ATOM     23  C   UNL     1      -6.841   3.301  26.378  0.00  0.00    +0.000 A 
ENDBRANCH  14  16
BRANCH   7  11
ATOM     11  C   UNL     1      -3.313  -1.941  25.762  0.00  0.00    +0.002 C 
ATOM     13  C   UNL     1      -3.469  -3.378  25.313  0.00  0.00    +0.004 C 
ENDBRANCH   7  11
BRANCH   6  12
ATOM     12  C   UNL     1      -0.678  -1.630  24.267  0.00  0.00    +0.099 C 
BRANCH  12  15
ATOM      3  O   UNL     1       1.048  -0.386  23.117  0.00  0.00    -0.276 OA
ATOM      5  N   UNL     1       0.084   0.506  25.034  0.00  0.00    -0.311 N 
ATOM     15  C   UNL     1       0.252  -0.457  24.049  0.00  0.00    +0.214 C 
ATOM     29  H   UNL     1      -0.608   0.361  25.764  0.00  0.00    +0.149 HD
BRANCH   5  17
ATOM     17  C   UNL     1       0.844   1.734  25.076  0.00  0.00    +0.139 C 
BRANCH  17  20
ATOM      1  F   UNL     1      -2.477   6.259  25.364  0.00  0.00    -0.205 F 
ATOM     20  C   UNL     1      -0.044   2.943  25.154  0.00  0.00    -0.030 A 
ATOM     24  C   UNL     1       0.099   3.960  24.217  0.00  0.00    +0.008 A 
ATOM     25  C   UNL     1      -0.998   3.032  26.159  0.00  0.00    +0.008 A 
ATOM     26  C   UNL     1      -0.725   5.083  24.289  0.00  0.00    +0.038 A 
ATOM     27  C   UNL     1      -1.822   4.154  26.231  0.00  0.00    +0.038 A 
ATOM     28  C   UNL     1      -1.686   5.180  25.295  0.00  0.00    +0.123 A 
ENDBRANCH  17  20
ENDBRANCH   5  17
ENDBRANCH  12  15
ENDBRANCH   6  12
TORSDOF 6
ENDMDL
