MODEL 1
REMARK VINA RESULT:      -4.7      0.000      0.000
REMARK  Name = 45784205
REMARK  3 active torsions:
REMARK  status: ('A' for Active; 'I' for Inactive)
REMARK    1  A    between atoms: N_3  and  C_9
REMARK    2  A    between atoms: C_5  and  C_10
REMARK    3  A    between atoms: C_9  and  C_11
REMARK                            x       y       z     vdW  Elec       q    Type
REMARK                         _______ _______ _______ _____ _____    ______ ____
ROOT
ATOM      3  N   UNL     1       0.799  -0.444  23.758  0.00  0.00    -0.297 NA
ATOM      5  C   UNL     1      -0.989   0.192  25.136  0.00  0.00    +0.090 C 
ATOM      6  C   UNL     1      -1.275  -1.192  24.525  0.00  0.00    +0.029 C 
ATOM      7  C   UNL     1       0.156   0.761  24.288  0.00  0.00    +0.097 C 
ATOM      8  C   UNL     1      -0.304  -1.316  23.358  0.00  0.00    +0.085 C 
ENDROOT
BRANCH   5  10
ATOM      2  O   UNL     1      -3.405   0.516  25.106  0.00  0.00    -0.439 OA
ATOM      4  N   UNL     1      -2.201   2.420  25.356  0.00  0.00    -0.213 NA
ATOM     10  C   UNL     1      -2.184   1.114  25.207  0.00  0.00    +0.201 A 
ATOM     12  C   UNL     1      -4.281   1.559  25.200  0.00  0.00    +0.155 A 
ATOM     13  C   UNL     1      -3.541   2.723  25.353  0.00  0.00    +0.110 A 
ATOM     16  C   UNL     1      -5.669   1.504  25.155  0.00  0.00    +0.048 A 
ATOM     17  C   UNL     1      -4.217   3.945  25.474  0.00  0.00    +0.031 A 
ATOM     20  C   UNL     1      -6.327   2.733  25.277  0.00  0.00    +0.004 A 
ATOM     21  C   UNL     1      -5.619   3.929  25.433  0.00  0.00    +0.002 A 
ENDBRANCH   5  10
BRANCH   3   9
ATOM      9  C   UNL     1       1.703  -0.151  22.655  0.00  0.00    +0.122 C 
BRANCH   9  11
ATOM      1  F   UNL     1       3.465   2.064  22.539  0.00  0.00    -0.205 F 
ATOM     11  C   UNL     1       3.146  -0.225  23.079  0.00  0.00    +0.002 A 
ATOM     14  C   UNL     1       3.959   0.905  22.995  0.00  0.00    +0.128 A 
ATOM     15  C   UNL     1       3.669  -1.428  23.555  0.00  0.00    +0.008 A 
ATOM     18  C   UNL     1       5.296   0.833  23.387  0.00  0.00    +0.038 A 
ATOM     19  C   UNL     1       5.006  -1.499  23.947  0.00  0.00    +0.000 A 
ATOM     22  C   UNL     1       5.819  -0.369  23.865  0.00  0.00    +0.003 A 
ENDBRANCH   9  11
ENDBRANCH   3   9
TORSDOF 3
ENDMDL
MODEL 2
REMARK VINA RESULT:      -4.4     14.706     17.315
REMARK  Name = 45784205
REMARK  3 active torsions:
REMARK  status: ('A' for Active; 'I' for Inactive)
REMARK    1  A    between atoms: N_3  and  C_9
REMARK    2  A    between atoms: C_5  and  C_10
REMARK    3  A    between atoms: C_9  and  C_11
REMARK                            x       y       z     vdW  Elec       q    Type
REMARK                         _______ _______ _______ _____ _____    ______ ____
ROOT
ATOM      3  N   UNL     1      -7.412 -10.518  16.932  0.00  0.00    -0.297 NA
ATOM      5  C   UNL     1      -5.845 -10.683  15.194  0.00  0.00    +0.090 C 
ATOM      6  C   UNL     1      -5.285  -9.781  16.309  0.00  0.00    +0.029 C 
ATOM      7  C   UNL     1      -7.347 -10.781  15.492  0.00  0.00    +0.097 C 
ATOM      8  C   UNL     1      -6.495  -9.400  17.152  0.00  0.00    +0.085 C 
ENDROOT
BRANCH   5  10
ATOM      2  O   UNL     1      -4.306 -10.488  13.313  0.00  0.00    -0.439 OA
ATOM      4  N   UNL     1      -6.346  -9.564  12.963  0.00  0.00    -0.213 NA
ATOM     10  C   UNL     1      -5.553 -10.210  13.789  0.00  0.00    +0.201 A 
ATOM     12  C   UNL     1      -4.318  -9.960  12.055  0.00  0.00    +0.155 A 
ATOM     13  C   UNL     1      -5.568  -9.395  11.843  0.00  0.00    +0.110 A 
ATOM     16  C   UNL     1      -3.286  -9.967  11.125  0.00  0.00    +0.048 A 
ATOM     17  C   UNL     1      -5.835  -8.782  10.611  0.00  0.00    +0.031 A 
ATOM     20  C   UNL     1      -3.569  -9.351   9.901  0.00  0.00    +0.004 A 
ATOM     21  C   UNL     1      -4.816  -8.770   9.647  0.00  0.00    +0.002 A 
ENDBRANCH   5  10
BRANCH   3   9
ATOM      9  C   UNL     1      -8.764 -10.224  17.382  0.00  0.00    +0.122 C 
BRANCH   9  11
ATOM      1  F   UNL     1      -9.439  -7.600  18.209  0.00  0.00    -0.205 F 
ATOM     11  C   UNL     1      -9.449  -9.229  16.483  0.00  0.00    +0.002 A 
ATOM     14  C   UNL     1      -9.753  -7.953  16.955  0.00  0.00    +0.128 A 
ATOM     15  C   UNL     1      -9.780  -9.587  15.176  0.00  0.00    +0.008 A 
ATOM     18  C   UNL     1     -10.389  -7.033  16.120  0.00  0.00    +0.038 A 
ATOM     19  C   UNL     1     -10.416  -8.668  14.341  0.00  0.00    +0.000 A 
ATOM     22  C   UNL     1     -10.720  -7.391  14.813  0.00  0.00    +0.003 A 
ENDBRANCH   9  11
ENDBRANCH   3   9
TORSDOF 3
ENDMDL
MODEL 3
REMARK VINA RESULT:      -3.8      1.027      1.441
REMARK  Name = 45784205
REMARK  3 active torsions:
REMARK  status: ('A' for Active; 'I' for Inactive)
REMARK    1  A    between atoms: N_3  and  C_9
REMARK    2  A    between atoms: C_5  and  C_10
REMARK    3  A    between atoms: C_9  and  C_11
REMARK                            x       y       z     vdW  Elec       q    Type
REMARK                         _______ _______ _______ _____ _____    ______ ____
ROOT
ATOM      3  N   UNL     1       0.785  -0.482  23.882  0.00  0.00    -0.297 NA
ATOM      5  C   UNL     1      -0.929   0.303  25.277  0.00  0.00    +0.090 C 
ATOM      6  C   UNL     1      -1.187  -1.173  24.924  0.00  0.00    +0.029 C 
ATOM      7  C   UNL     1       0.121   0.768  24.260  0.00  0.00    +0.097 C 
ATOM      8  C   UNL     1      -0.299  -1.450  23.718  0.00  0.00    +0.085 C 
ENDROOT
BRANCH   5  10
ATOM      2  O   UNL     1      -3.354   0.528  25.176  0.00  0.00    -0.439 OA
ATOM      4  N   UNL     1      -2.234   2.484  25.409  0.00  0.00    -0.213 NA
ATOM     10  C   UNL     1      -2.161   1.177  25.294  0.00  0.00    +0.201 A 
ATOM     12  C   UNL     1      -4.273   1.536  25.221  0.00  0.00    +0.155 A 
ATOM     13  C   UNL     1      -3.584   2.733  25.364  0.00  0.00    +0.110 A 
ATOM     16  C   UNL     1      -5.656   1.425  25.141  0.00  0.00    +0.048 A 
ATOM     17  C   UNL     1      -4.311   3.929  25.436  0.00  0.00    +0.031 A 
ATOM     20  C   UNL     1      -6.366   2.628  25.215  0.00  0.00    +0.004 A 
ATOM     21  C   UNL     1      -5.710   3.856  25.359  0.00  0.00    +0.002 A 
ENDBRANCH   5  10
BRANCH   3   9
ATOM      9  C   UNL     1       1.590  -0.341  22.678  0.00  0.00    +0.122 C 
BRANCH   9  11
ATOM      1  F   UNL     1       3.142  -2.248  24.086  0.00  0.00    -0.205 F 
ATOM     11  C   UNL     1       3.048  -0.140  22.999  0.00  0.00    +0.002 A 
ATOM     14  C   UNL     1       3.752  -1.120  23.696  0.00  0.00    +0.128 A 
ATOM     15  C   UNL     1       3.692   1.031  22.598  0.00  0.00    +0.008 A 
ATOM     18  C   UNL     1       5.102  -0.931  23.994  0.00  0.00    +0.038 A 
ATOM     19  C   UNL     1       5.042   1.220  22.896  0.00  0.00    +0.000 A 
ATOM     22  C   UNL     1       5.747   0.240  23.592  0.00  0.00    +0.003 A 
ENDBRANCH   9  11
ENDBRANCH   3   9
TORSDOF 3
ENDMDL
MODEL 4
REMARK VINA RESULT:      -3.5      3.354      6.762
REMARK  Name = 45784205
REMARK  3 active torsions:
REMARK  status: ('A' for Active; 'I' for Inactive)
REMARK    1  A    between atoms: N_3  and  C_9
REMARK    2  A    between atoms: C_5  and  C_10
REMARK    3  A    between atoms: C_9  and  C_11
REMARK                            x       y       z     vdW  Elec       q    Type
REMARK                         _______ _______ _______ _____ _____    ______ ____
ROOT
ATOM      3  N   UNL     1      -0.349   3.504  25.276  0.00  0.00    -0.297 NA
ATOM      5  C   UNL     1      -0.235   1.162  25.233  0.00  0.00    +0.090 C 
ATOM      6  C   UNL     1       0.530   1.738  24.027  0.00  0.00    +0.029 C 
ATOM      7  C   UNL     1      -1.088   2.330  25.745  0.00  0.00    +0.097 C 
ATOM      8  C   UNL     1       0.049   3.178  23.907  0.00  0.00    +0.085 C 
ENDROOT
BRANCH   5  10
ATOM      2  O   UNL     1      -2.357   0.130  24.623  0.00  0.00    -0.439 OA
ATOM      4  N   UNL     1      -0.654  -1.331  24.941  0.00  0.00    -0.213 NA
ATOM     10  C   UNL     1      -1.047  -0.077  24.937  0.00  0.00    +0.201 A 
ATOM     12  C   UNL     1      -2.838  -1.129  24.408  0.00  0.00    +0.155 A 
ATOM     13  C   UNL     1      -1.793  -2.022  24.603  0.00  0.00    +0.110 A 
ATOM     16  C   UNL     1      -4.132  -1.492  24.056  0.00  0.00    +0.048 A 
ATOM     17  C   UNL     1      -2.033  -3.393  24.439  0.00  0.00    +0.031 A 
ATOM     20  C   UNL     1      -4.354  -2.864  23.897  0.00  0.00    +0.004 A 
ATOM     21  C   UNL     1      -3.328  -3.797  24.084  0.00  0.00    +0.002 A 
ENDBRANCH   5  10
BRANCH   3   9
ATOM      9  C   UNL     1      -1.141   4.724  25.348  0.00  0.00    +0.122 C 
BRANCH   9  11
ATOM      1  F   UNL     1      -2.789   4.213  27.595  0.00  0.00    -0.205 F 
ATOM     11  C   UNL     1      -2.616   4.441  25.239  0.00  0.00    +0.002 A 
ATOM     14  C   UNL     1      -3.369   4.197  26.387  0.00  0.00    +0.128 A 
ATOM     15  C   UNL     1      -3.228   4.422  23.985  0.00  0.00    +0.008 A 
ATOM     18  C   UNL     1      -4.735   3.934  26.282  0.00  0.00    +0.038 A 
ATOM     19  C   UNL     1      -4.594   4.158  23.881  0.00  0.00    +0.000 A 
ATOM     22  C   UNL     1      -5.347   3.916  25.029  0.00  0.00    +0.003 A 
ENDBRANCH   9  11
ENDBRANCH   3   9
TORSDOF 3
ENDMDL
MODEL 5
REMARK VINA RESULT:      -3.3      4.030      6.391
REMARK  Name = 45784205
REMARK  3 active torsions:
REMARK  status: ('A' for Active; 'I' for Inactive)
REMARK    1  A    between atoms: N_3  and  C_9
REMARK    2  A    between atoms: C_5  and  C_10
REMARK    3  A    between atoms: C_9  and  C_11
REMARK                            x       y       z     vdW  Elec       q    Type
REMARK                         _______ _______ _______ _____ _____    ______ ____
ROOT
ATOM      3  N   UNL     1      -4.819   3.852  25.330  0.00  0.00    -0.297 NA
ATOM      5  C   UNL     1      -5.149   1.673  24.528  0.00  0.00    +0.090 C 
ATOM      6  C   UNL     1      -5.984   1.884  25.804  0.00  0.00    +0.029 C 
ATOM      7  C   UNL     1      -4.143   2.831  24.526  0.00  0.00    +0.097 C 
ATOM      8  C   UNL     1      -5.391   3.123  26.462  0.00  0.00    +0.085 C 
ENDROOT
BRANCH   5  10
ATOM      2  O   UNL     1      -3.146   0.288  24.654  0.00  0.00    -0.439 OA
ATOM      4  N   UNL     1      -5.041  -0.839  24.127  0.00  0.00    -0.213 NA
ATOM     10  C   UNL     1      -4.488   0.318  24.419  0.00  0.00    +0.201 A 
ATOM     12  C   UNL     1      -2.822  -1.028  24.492  0.00  0.00    +0.155 A 
ATOM     13  C   UNL     1      -3.984  -1.715  24.170  0.00  0.00    +0.110 A 
ATOM     16  C   UNL     1      -1.567  -1.612  24.619  0.00  0.00    +0.048 A 
ATOM     17  C   UNL     1      -3.914  -3.098  23.951  0.00  0.00    +0.031 A 
ATOM     20  C   UNL     1      -1.516  -2.992  24.398  0.00  0.00    +0.004 A 
ATOM     21  C   UNL     1      -2.664  -3.722  24.070  0.00  0.00    +0.002 A 
ENDBRANCH   5  10
BRANCH   3   9
ATOM      9  C   UNL     1      -3.918   4.914  25.752  0.00  0.00    +0.122 C 
BRANCH   9  11
ATOM      1  F   UNL     1      -1.986   6.462  24.375  0.00  0.00    -0.205 F 
ATOM     11  C   UNL     1      -2.474   4.505  25.626  0.00  0.00    +0.002 A 
ATOM     14  C   UNL     1      -1.575   5.315  24.933  0.00  0.00    +0.128 A 
ATOM     15  C   UNL     1      -2.037   3.312  26.203  0.00  0.00    +0.008 A 
ATOM     18  C   UNL     1      -0.238   4.934  24.817  0.00  0.00    +0.038 A 
ATOM     19  C   UNL     1      -0.700   2.931  26.087  0.00  0.00    +0.000 A 
ATOM     22  C   UNL     1       0.199   3.742  25.396  0.00  0.00    +0.003 A 
ENDBRANCH   9  11
ENDBRANCH   3   9
TORSDOF 3
ENDMDL
MODEL 6
REMARK VINA RESULT:      -3.2     15.332     17.290
REMARK  Name = 45784205
REMARK  3 active torsions:
REMARK  status: ('A' for Active; 'I' for Inactive)
REMARK    1  A    between atoms: N_3  and  C_9
REMARK    2  A    between atoms: C_5  and  C_10
REMARK    3  A    between atoms: C_9  and  C_11
REMARK                            x       y       z     vdW  Elec       q    Type
REMARK                         _______ _______ _______ _____ _____    ______ ____
ROOT
ATOM      3  N   UNL     1      -1.849 -10.589  12.657  0.00  0.00    -0.297 NA
ATOM      5  C   UNL     1      -3.187 -10.278  10.756  0.00  0.00    +0.090 C 
ATOM      6  C   UNL     1      -2.002  -9.296  10.718  0.00  0.00    +0.029 C 
ATOM      7  C   UNL     1      -3.229 -10.780  12.205  0.00  0.00    +0.097 C 
ATOM      8  C   UNL     1      -1.462  -9.275  12.143  0.00  0.00    +0.085 C 
ENDROOT
BRANCH   5  10
ATOM      2  O   UNL     1      -5.601 -10.066  11.015  0.00  0.00    -0.439 OA
ATOM      4  N   UNL     1      -4.731  -8.890   9.284  0.00  0.00    -0.213 NA
ATOM     10  C   UNL     1      -4.504  -9.701  10.293  0.00  0.00    +0.201 A 
ATOM     12  C   UNL     1      -6.626  -9.415  10.391  0.00  0.00    +0.155 A 
ATOM     13  C   UNL     1      -6.090  -8.696   9.331  0.00  0.00    +0.110 A 
ATOM     16  C   UNL     1      -7.974  -9.442  10.726  0.00  0.00    +0.048 A 
ATOM     17  C   UNL     1      -6.948  -7.934   8.526  0.00  0.00    +0.031 A 
ATOM     20  C   UNL     1      -8.816  -8.677   9.912  0.00  0.00    +0.004 A 
ATOM     21  C   UNL     1      -8.316  -7.937   8.834  0.00  0.00    +0.002 A 
ENDBRANCH   5  10
BRANCH   3   9
ATOM      9  C   UNL     1      -1.721 -10.677  14.105  0.00  0.00    +0.122 C 
BRANCH   9  11
ATOM      1  F   UNL     1      -2.025 -10.779  16.919  0.00  0.00    -0.205 F 
ATOM     11  C   UNL     1      -3.057 -10.567  14.792  0.00  0.00    +0.002 A 
ATOM     14  C   UNL     1      -3.134 -10.626  16.183  0.00  0.00    +0.128 A 
ATOM     15  C   UNL     1      -4.217 -10.407  14.034  0.00  0.00    +0.008 A 
ATOM     18  C   UNL     1      -4.373 -10.525  16.817  0.00  0.00    +0.038 A 
ATOM     19  C   UNL     1      -5.456 -10.306  14.668  0.00  0.00    +0.000 A 
ATOM     22  C   UNL     1      -5.533 -10.364  16.059  0.00  0.00    +0.003 A 
ENDBRANCH   9  11
ENDBRANCH   3   9
TORSDOF 3
ENDMDL
MODEL 7
REMARK VINA RESULT:      -3.1      2.588      7.224
REMARK  Name = 45784205
REMARK  3 active torsions:
REMARK  status: ('A' for Active; 'I' for Inactive)
REMARK    1  A    between atoms: N_3  and  C_9
REMARK    2  A    between atoms: C_5  and  C_10
REMARK    3  A    between atoms: C_9  and  C_11
REMARK                            x       y       z     vdW  Elec       q    Type
REMARK                         _______ _______ _______ _____ _____    ______ ____
ROOT
ATOM      3  N   UNL     1      -2.601   0.131  24.447  0.00  0.00    -0.297 NA
ATOM      5  C   UNL     1      -0.619  -0.628  23.449  0.00  0.00    +0.090 C 
ATOM      6  C   UNL     1      -1.022  -1.585  24.585  0.00  0.00    +0.029 C 
ATOM      7  C   UNL     1      -1.452   0.637  23.692  0.00  0.00    +0.097 C 
ATOM      8  C   UNL     1      -2.032  -0.804  25.417  0.00  0.00    +0.085 C 
ENDROOT
BRANCH   5  10
ATOM      2  O   UNL     1       1.687  -1.331  23.810  0.00  0.00    -0.439 OA
ATOM      4  N   UNL     1       1.463   0.722  22.879  0.00  0.00    -0.213 NA
ATOM     10  C   UNL     1       0.863  -0.348  23.351  0.00  0.00    +0.201 A 
ATOM     12  C   UNL     1       2.937  -0.824  23.605  0.00  0.00    +0.155 A 
ATOM     13  C   UNL     1       2.797   0.433  23.035  0.00  0.00    +0.110 A 
ATOM     16  C   UNL     1       4.154  -1.427  23.900  0.00  0.00    +0.048 A 
ATOM     17  C   UNL     1       3.949   1.169  22.724  0.00  0.00    +0.031 A 
ATOM     20  C   UNL     1       5.293  -0.679  23.584  0.00  0.00    +0.004 A 
ATOM     21  C   UNL     1       5.195   0.593  23.008  0.00  0.00    +0.002 A 
ENDBRANCH   5  10
BRANCH   3   9
ATOM      9  C   UNL     1      -3.360   1.197  25.084  0.00  0.00    +0.122 C 
BRANCH   9  11
ATOM      1  F   UNL     1      -4.477   3.660  24.240  0.00  0.00    -0.205 F 
ATOM     11  C   UNL     1      -2.596   2.495  25.101  0.00  0.00    +0.002 A 
ATOM     14  C   UNL     1      -3.208   3.672  24.671  0.00  0.00    +0.128 A 
ATOM     15  C   UNL     1      -1.275   2.517  25.547  0.00  0.00    +0.008 A 
ATOM     18  C   UNL     1      -2.497   4.873  24.686  0.00  0.00    +0.038 A 
ATOM     19  C   UNL     1      -0.565   3.719  25.563  0.00  0.00    +0.000 A 
ATOM     22  C   UNL     1      -1.176   4.896  25.134  0.00  0.00    +0.003 A 
ENDBRANCH   9  11
ENDBRANCH   3   9
TORSDOF 3
ENDMDL
MODEL 8
REMARK VINA RESULT:      -2.9      2.408      8.301
REMARK  Name = 45784205
REMARK  3 active torsions:
REMARK  status: ('A' for Active; 'I' for Inactive)
REMARK    1  A    between atoms: N_3  and  C_9
REMARK    2  A    between atoms: C_5  and  C_10
REMARK    3  A    between atoms: C_9  and  C_11
REMARK                            x       y       z     vdW  Elec       q    Type
REMARK                         _______ _______ _______ _____ _____    ______ ____
ROOT
ATOM      3  N   UNL     1      -1.611   1.308  24.175  0.00  0.00    -0.297 NA
ATOM      5  C   UNL     1       0.233   0.185  23.259  0.00  0.00    +0.090 C 
ATOM      6  C   UNL     1      -0.484  -0.735  24.264  0.00  0.00    +0.029 C 
ATOM      7  C   UNL     1      -0.311   1.588  23.560  0.00  0.00    +0.097 C 
ATOM      8  C   UNL     1      -1.364   0.195  25.090  0.00  0.00    +0.085 C 
ENDROOT
BRANCH   5  10
ATOM      2  O   UNL     1       2.275  -1.094  23.625  0.00  0.00    -0.439 OA
ATOM      4  N   UNL     1       2.609   1.075  23.061  0.00  0.00    -0.213 NA
ATOM     10  C   UNL     1       1.742   0.117  23.300  0.00  0.00    +0.201 A 
ATOM     12  C   UNL     1       3.621  -0.872  23.587  0.00  0.00    +0.155 A 
ATOM     13  C   UNL     1       3.823   0.457  23.242  0.00  0.00    +0.110 A 
ATOM     16  C   UNL     1       4.637  -1.786  23.842  0.00  0.00    +0.048 A 
ATOM     17  C   UNL     1       5.135   0.938  23.135  0.00  0.00    +0.031 A 
ATOM     20  C   UNL     1       5.940  -1.289  23.731  0.00  0.00    +0.004 A 
ATOM     21  C   UNL     1       6.187   0.044  23.385  0.00  0.00    +0.002 A 
ENDBRANCH   5  10
BRANCH   3   9
ATOM      9  C   UNL     1      -2.166   2.471  24.853  0.00  0.00    +0.122 C 
BRANCH   9  11
ATOM      1  F   UNL     1      -3.732   4.468  26.111  0.00  0.00    -0.205 F 
ATOM     11  C   UNL     1      -3.657   2.354  25.035  0.00  0.00    +0.002 A 
ATOM     14  C   UNL     1      -4.366   3.376  25.664  0.00  0.00    +0.128 A 
ATOM     15  C   UNL     1      -4.326   1.221  24.573  0.00  0.00    +0.008 A 
ATOM     18  C   UNL     1      -5.747   3.265  25.833  0.00  0.00    +0.038 A 
ATOM     19  C   UNL     1      -5.706   1.109  24.742  0.00  0.00    +0.000 A 
ATOM     22  C   UNL     1      -6.417   2.131  25.370  0.00  0.00    +0.003 A 
ENDBRANCH   9  11
ENDBRANCH   3   9
TORSDOF 3
ENDMDL
MODEL 9
REMARK VINA RESULT:      -2.4      1.314      1.608
REMARK  Name = 45784205
REMARK  3 active torsions:
REMARK  status: ('A' for Active; 'I' for Inactive)
REMARK    1  A    between atoms: N_3  and  C_9
REMARK    2  A    between atoms: C_5  and  C_10
REMARK    3  A    between atoms: C_9  and  C_11
REMARK                            x       y       z     vdW  Elec       q    Type
REMARK                         _______ _______ _______ _____ _____    ______ ____
ROOT
ATOM      3  N   UNL     1       0.998   1.411  23.497  0.00  0.00    -0.297 NA
ATOM      5  C   UNL     1      -0.763   2.788  24.207  0.00  0.00    +0.090 C 
ATOM      6  C   UNL     1       0.204   2.541  25.380  0.00  0.00    +0.029 C 
ATOM      7  C   UNL     1      -0.397   1.717  23.171  0.00  0.00    +0.097 C 
ATOM      8  C   UNL     1       1.036   1.337  24.957  0.00  0.00    +0.085 C 
ENDROOT
BRANCH   5  10
ATOM      2  O   UNL     1      -2.843   1.558  24.530  0.00  0.00    -0.439 OA
ATOM      4  N   UNL     1      -2.987   3.782  24.944  0.00  0.00    -0.213 NA
ATOM     10  C   UNL     1      -2.227   2.773  24.579  0.00  0.00    +0.201 A 
ATOM     12  C   UNL     1      -4.126   1.834  24.905  0.00  0.00    +0.155 A 
ATOM     13  C   UNL     1      -4.211   3.196  25.157  0.00  0.00    +0.110 A 
ATOM     16  C   UNL     1      -5.183   0.940  25.023  0.00  0.00    +0.048 A 
ATOM     17  C   UNL     1      -5.441   3.734  25.563  0.00  0.00    +0.031 A 
ATOM     20  C   UNL     1      -6.402   1.493  25.429  0.00  0.00    +0.004 A 
ATOM     21  C   UNL     1      -6.531   2.862  25.694  0.00  0.00    +0.002 A 
ENDBRANCH   5  10
BRANCH   3   9
ATOM      9  C   UNL     1       1.458   0.181  22.868  0.00  0.00    +0.122 C 
BRANCH   9  11
ATOM      1  F   UNL     1       3.500   2.121  22.566  0.00  0.00    -0.205 F 
ATOM     11  C   UNL     1       2.906  -0.096  23.172  0.00  0.00    +0.002 A 
ATOM     14  C   UNL     1       3.861   0.906  23.001  0.00  0.00    +0.128 A 
ATOM     15  C   UNL     1       3.291  -1.357  23.626  0.00  0.00    +0.008 A 
ATOM     18  C   UNL     1       5.203   0.646  23.283  0.00  0.00    +0.038 A 
ATOM     19  C   UNL     1       4.633  -1.617  23.908  0.00  0.00    +0.000 A 
ATOM     22  C   UNL     1       5.588  -0.615  23.738  0.00  0.00    +0.003 A 
ENDBRANCH   9  11
ENDBRANCH   3   9
TORSDOF 3
ENDMDL
MODEL 10
REMARK VINA RESULT:      -2.0      2.956      7.542
REMARK  Name = 45784205
REMARK  3 active torsions:
REMARK  status: ('A' for Active; 'I' for Inactive)
REMARK    1  A    between atoms: N_3  and  C_9
REMARK    2  A    between atoms: C_5  and  C_10
REMARK    3  A    between atoms: C_9  and  C_11
REMARK                            x       y       z     vdW  Elec       q    Type
REMARK                         _______ _______ _______ _____ _____    ______ ____
ROOT
ATOM      3  N   UNL     1      -4.244  -0.730  24.726  0.00  0.00    -0.297 NA
ATOM      5  C   UNL     1      -1.986  -1.160  24.260  0.00  0.00    +0.090 C 
ATOM      6  C   UNL     1      -2.244  -1.338  25.767  0.00  0.00    +0.029 C 
ATOM      7  C   UNL     1      -3.211  -0.393  23.745  0.00  0.00    +0.097 C 
ATOM      8  C   UNL     1      -3.574  -0.642  26.024  0.00  0.00    +0.085 C 
ENDROOT
BRANCH   5  10
ATOM      2  O   UNL     1       0.151  -1.181  23.087  0.00  0.00    -0.439 OA
ATOM      4  N   UNL     1      -0.237   0.688  24.308  0.00  0.00    -0.213 NA
ATOM     10  C   UNL     1      -0.679  -0.485  23.915  0.00  0.00    +0.201 A 
ATOM     12  C   UNL     1       1.229  -0.356  22.947  0.00  0.00    +0.155 A 
ATOM     13  C   UNL     1       0.989   0.788  23.696  0.00  0.00    +0.110 A 
ATOM     16  C   UNL     1       2.378  -0.584  22.199  0.00  0.00    +0.048 A 
ATOM     17  C   UNL     1       1.957   1.801  23.716  0.00  0.00    +0.031 A 
ATOM     20  C   UNL     1       3.334   0.437  22.231  0.00  0.00    +0.004 A 
ATOM     21  C   UNL     1       3.131   1.606  22.973  0.00  0.00    +0.002 A 
ENDBRANCH   5  10
BRANCH   3   9
ATOM      9  C   UNL     1      -5.401   0.148  24.638  0.00  0.00    +0.122 C 
BRANCH   9  11
ATOM      1  F   UNL     1      -6.434   1.853  26.651  0.00  0.00    -0.205 F 
ATOM     11  C   UNL     1      -5.014   1.598  24.766  0.00  0.00    +0.002 A 
ATOM     14  C   UNL     1      -5.561   2.381  25.782  0.00  0.00    +0.128 A 
ATOM     15  C   UNL     1      -4.107   2.156  23.866  0.00  0.00    +0.008 A 
ATOM     18  C   UNL     1      -5.202   3.725  25.897  0.00  0.00    +0.038 A 
ATOM     19  C   UNL     1      -3.747   3.500  23.981  0.00  0.00    +0.000 A 
ATOM     22  C   UNL     1      -4.294   4.283  24.997  0.00  0.00    +0.003 A 
ENDBRANCH   9  11
ENDBRANCH   3   9
TORSDOF 3
ENDMDL
