MODEL 1
REMARK VINA RESULT:       1.7      0.000      0.000
REMARK  Name = 26744780
REMARK  7 active torsions:
REMARK  status: ('A' for Active; 'I' for Inactive)
REMARK    1  A    between atoms: O_6  and  C_26
REMARK    2  A    between atoms: N_7  and  C_17
REMARK    3  A    between atoms: C_12  and  C_18
REMARK    4  A    between atoms: C_17  and  C_19
REMARK    5  A    between atoms: C_22  and  C_25
REMARK    6  A    between atoms: C_23  and  C_26
REMARK    7  A    between atoms: C_31  and  C_32
REMARK                            x       y       z     vdW  Elec       q    Type
REMARK                         _______ _______ _______ _____ _____    ______ ____
ROOT
ATOM      7  N   UNL     1      -3.947   0.605  24.268  0.00  0.00    -0.278 NA
ATOM      8  N   UNL     1      -4.604  -2.974  23.482  0.00  0.00    -0.347 N 
ATOM      9  N   UNL     1      -3.493  -3.372  25.381  0.00  0.00    -0.240 NA
ATOM     12  C   UNL     1      -2.711   0.368  25.073  0.00  0.00    +0.152 C 
ATOM     13  C   UNL     1      -2.787  -0.983  25.870  0.00  0.00    +0.086 C 
ATOM     14  C   UNL     1      -4.271  -0.444  23.279  0.00  0.00    +0.140 C 
ATOM     15  C   UNL     1      -4.134  -1.772  23.914  0.00  0.00    +0.053 A 
ATOM     16  C   UNL     1      -3.453  -2.042  25.075  0.00  0.00    +0.065 A 
ATOM     20  C   UNL     1      -4.193  -3.909  24.401  0.00  0.00    +0.197 A 
ATOM     33  H   UNL     1      -5.147  -3.152  22.646  0.00  0.00    +0.167 HD
ENDROOT
BRANCH  12  18
ATOM      4  O   UNL     1      -1.455   1.239  23.148  0.00  0.00    -0.336 OA
ATOM     10  N   UNL     1      -0.193   0.125  24.626  0.00  0.00    -0.190 NA
ATOM     11  N   UNL     1      -0.147   1.271  22.646  0.00  0.00    -0.056 NA
ATOM     18  C   UNL     1      -1.393   0.547  24.315  0.00  0.00    +0.245 A 
ATOM     22  C   UNL     1       0.537   0.594  23.573  0.00  0.00    +0.202 A 
BRANCH  22  25
ATOM     25  C   UNL     1       1.951   0.368  23.476  0.00  0.00    +0.022 A 
ATOM     27  C   UNL     1       2.471  -0.905  23.707  0.00  0.00    +0.012 A 
ATOM     28  C   UNL     1       2.804   1.422  23.150  0.00  0.00    +0.012 A 
ATOM     29  C   UNL     1       3.845  -1.124  23.614  0.00  0.00    +0.013 A 
ATOM     30  C   UNL     1       4.178   1.202  23.057  0.00  0.00    +0.013 A 
ATOM     31  C   UNL     1       4.699  -0.071  23.288  0.00  0.00    +0.055 A 
BRANCH  31  32
ATOM      1  F   UNL     1       6.589  -0.611  21.925  0.00  0.00    -0.166 F 
ATOM      2  F   UNL     1       6.589  -1.340  23.973  0.00  0.00    -0.166 F 
ATOM      3  F   UNL     1       6.921   0.769  23.564  0.00  0.00    -0.166 F 
ATOM     32  C   UNL     1       6.168  -0.306  23.188  0.00  0.00    +0.417 C 
ENDBRANCH  31  32
ENDBRANCH  22  25
ENDBRANCH  12  18
BRANCH   7  17
ATOM     17  C   UNL     1      -4.028   1.938  23.679  0.00  0.00    +0.160 C 
BRANCH  17  19
ATOM      5  O   UNL     1      -2.465   3.693  24.309  0.00  0.00    -0.461 OA
ATOM     19  C   UNL     1      -3.587   3.006  24.645  0.00  0.00    +0.119 A 
ATOM     21  C   UNL     1      -4.089   3.457  25.844  0.00  0.00    +0.046 A 
ATOM     23  C   UNL     1      -2.248   4.594  25.303  0.00  0.00    +0.131 A 
ATOM     24  C   UNL     1      -3.220   4.489  26.271  0.00  0.00    +0.047 A 
BRANCH  23  26
ATOM     26  C   UNL     1      -1.071   5.461  25.150  0.00  0.00    +0.230 C 
BRANCH  26   6
ATOM      6  O   UNL     1      -0.171   4.908  24.187  0.00  0.00    -0.387 OA
ATOM     34  H   UNL     1       0.420   5.627  23.906  0.00  0.00    +0.210 HD
ENDBRANCH  26   6
ENDBRANCH  23  26
ENDBRANCH  17  19
ENDBRANCH   7  17
TORSDOF 7
ENDMDL
MODEL 2
REMARK VINA RESULT:       1.7      1.874      4.236
REMARK  Name = 26744780
REMARK  7 active torsions:
REMARK  status: ('A' for Active; 'I' for Inactive)
REMARK    1  A    between atoms: O_6  and  C_26
REMARK    2  A    between atoms: N_7  and  C_17
REMARK    3  A    between atoms: C_12  and  C_18
REMARK    4  A    between atoms: C_17  and  C_19
REMARK    5  A    between atoms: C_22  and  C_25
REMARK    6  A    between atoms: C_23  and  C_26
REMARK    7  A    between atoms: C_31  and  C_32
REMARK                            x       y       z     vdW  Elec       q    Type
REMARK                         _______ _______ _______ _____ _____    ______ ____
ROOT
ATOM      7  N   UNL     1      -4.253   0.784  23.286  0.00  0.00    -0.278 NA
ATOM      8  N   UNL     1      -5.760   2.383  26.291  0.00  0.00    -0.347 N 
ATOM      9  N   UNL     1      -5.128   4.298  25.324  0.00  0.00    -0.240 NA
ATOM     12  C   UNL     1      -3.280   1.881  22.992  0.00  0.00    +0.152 C 
ATOM     13  C   UNL     1      -3.864   3.290  23.367  0.00  0.00    +0.086 C 
ATOM     14  C   UNL     1      -4.697   0.690  24.693  0.00  0.00    +0.140 C 
ATOM     15  C   UNL     1      -5.045   2.040  25.185  0.00  0.00    +0.053 A 
ATOM     16  C   UNL     1      -4.665   3.229  24.613  0.00  0.00    +0.065 A 
ATOM     20  C   UNL     1      -5.784   3.756  26.332  0.00  0.00    +0.197 A 
ATOM     33  H   UNL     1      -6.189   1.755  26.959  0.00  0.00    +0.167 HD
ENDROOT
BRANCH  12  18
ATOM      4  O   UNL     1      -1.652   1.940  24.833  0.00  0.00    -0.336 OA
ATOM     10  N   UNL     1      -0.800   1.222  22.889  0.00  0.00    -0.190 NA
ATOM     11  N   UNL     1      -0.302   1.659  25.079  0.00  0.00    -0.056 NA
ATOM     18  C   UNL     1      -1.862   1.655  23.521  0.00  0.00    +0.245 A 
ATOM     22  C   UNL     1       0.132   1.241  23.886  0.00  0.00    +0.202 A 
BRANCH  22  25
ATOM     25  C   UNL     1       1.489   0.835  23.657  0.00  0.00    +0.022 A 
ATOM     27  C   UNL     1       1.832  -0.515  23.716  0.00  0.00    +0.012 A 
ATOM     28  C   UNL     1       2.464   1.791  23.376  0.00  0.00    +0.012 A 
ATOM     29  C   UNL     1       3.151  -0.910  23.494  0.00  0.00    +0.013 A 
ATOM     30  C   UNL     1       3.783   1.396  23.154  0.00  0.00    +0.013 A 
ATOM     31  C   UNL     1       4.127   0.046  23.212  0.00  0.00    +0.055 A 
BRANCH  31  32
ATOM      1  F   UNL     1       6.454   0.368  23.662  0.00  0.00    -0.166 F 
ATOM      2  F   UNL     1       5.900  -0.284  21.663  0.00  0.00    -0.166 F 
ATOM      3  F   UNL     1       5.789  -1.670  23.334  0.00  0.00    -0.166 F 
ATOM     32  C   UNL     1       5.537  -0.377  22.975  0.00  0.00    +0.417 C 
ENDBRANCH  31  32
ENDBRANCH  22  25
ENDBRANCH  12  18
BRANCH   7  17
ATOM     17  C   UNL     1      -3.857  -0.519  22.762  0.00  0.00    +0.160 C 
BRANCH  17  19
ATOM      5  O   UNL     1      -2.086  -1.241  24.266  0.00  0.00    -0.461 OA
ATOM     19  C   UNL     1      -3.364  -1.435  23.850  0.00  0.00    +0.119 A 
ATOM     21  C   UNL     1      -3.946  -2.470  24.545  0.00  0.00    +0.046 A 
ATOM     23  C   UNL     1      -1.849  -2.161  25.238  0.00  0.00    +0.131 A 
ATOM     24  C   UNL     1      -2.962  -2.941  25.447  0.00  0.00    +0.047 A 
BRANCH  23  26
ATOM     26  C   UNL     1      -0.509  -2.137  25.843  0.00  0.00    +0.230 C 
BRANCH  26   6
ATOM      6  O   UNL     1      -0.304  -0.906  26.540  0.00  0.00    -0.387 OA
ATOM     34  H   UNL     1      -1.118  -0.384  26.438  0.00  0.00    +0.210 HD
ENDBRANCH  26   6
ENDBRANCH  23  26
ENDBRANCH  17  19
ENDBRANCH   7  17
TORSDOF 7
ENDMDL
MODEL 3
REMARK VINA RESULT:       3.4      2.144      4.434
REMARK  Name = 26744780
REMARK  7 active torsions:
REMARK  status: ('A' for Active; 'I' for Inactive)
REMARK    1  A    between atoms: O_6  and  C_26
REMARK    2  A    between atoms: N_7  and  C_17
REMARK    3  A    between atoms: C_12  and  C_18
REMARK    4  A    between atoms: C_17  and  C_19
REMARK    5  A    between atoms: C_22  and  C_25
REMARK    6  A    between atoms: C_23  and  C_26
REMARK    7  A    between atoms: C_31  and  C_32
REMARK                            x       y       z     vdW  Elec       q    Type
REMARK                         _______ _______ _______ _____ _____    ______ ____
ROOT
ATOM      7  N   UNL     1      -4.793   1.802  24.541  0.00  0.00    -0.278 NA
ATOM      8  N   UNL     1      -3.413   3.881  27.303  0.00  0.00    -0.347 N 
ATOM      9  N   UNL     1      -3.102   5.414  25.705  0.00  0.00    -0.240 NA
ATOM     12  C   UNL     1      -4.016   2.457  23.444  0.00  0.00    +0.152 C 
ATOM     13  C   UNL     1      -3.794   3.986  23.724  0.00  0.00    +0.086 C 
ATOM     14  C   UNL     1      -4.191   1.896  25.887  0.00  0.00    +0.140 C 
ATOM     15  C   UNL     1      -3.743   3.285  26.125  0.00  0.00    +0.053 A 
ATOM     16  C   UNL     1      -3.540   4.241  25.161  0.00  0.00    +0.065 A 
ATOM     20  C   UNL     1      -3.033   5.166  26.999  0.00  0.00    +0.197 A 
ATOM     33  H   UNL     1      -3.436   3.465  28.225  0.00  0.00    +0.167 HD
ENDROOT
BRANCH  12  18
ATOM      4  O   UNL     1      -2.860   0.819  22.023  0.00  0.00    -0.336 OA
ATOM     10  N   UNL     1      -1.521   1.850  23.493  0.00  0.00    -0.190 NA
ATOM     11  N   UNL     1      -1.577   0.292  21.818  0.00  0.00    -0.056 NA
ATOM     18  C   UNL     1      -2.737   1.729  23.025  0.00  0.00    +0.245 A 
ATOM     22  C   UNL     1      -0.844   0.950  22.722  0.00  0.00    +0.202 A 
BRANCH  22  25
ATOM     25  C   UNL     1       0.564   0.730  22.880  0.00  0.00    +0.022 A 
ATOM     27  C   UNL     1       1.328   1.619  23.636  0.00  0.00    +0.012 A 
ATOM     28  C   UNL     1       1.170  -0.372  22.278  0.00  0.00    +0.012 A 
ATOM     29  C   UNL     1       2.698   1.407  23.790  0.00  0.00    +0.013 A 
ATOM     30  C   UNL     1       2.540  -0.584  22.431  0.00  0.00    +0.013 A 
ATOM     31  C   UNL     1       3.304   0.304  23.187  0.00  0.00    +0.055 A 
BRANCH  31  32
ATOM      1  F   UNL     1       5.460   0.092  22.173  0.00  0.00    -0.166 F 
ATOM      2  F   UNL     1       5.052  -1.127  23.926  0.00  0.00    -0.166 F 
ATOM      3  F   UNL     1       5.382   1.011  24.136  0.00  0.00    -0.166 F 
ATOM     32  C   UNL     1       4.769   0.077  23.351  0.00  0.00    +0.417 C 
ENDBRANCH  31  32
ENDBRANCH  22  25
ENDBRANCH  12  18
BRANCH   7  17
ATOM     17  C   UNL     1      -5.217   0.438  24.238  0.00  0.00    +0.160 C 
BRANCH  17  19
ATOM      5  O   UNL     1      -3.080  -0.128  25.256  0.00  0.00    -0.461 OA
ATOM     19  C   UNL     1      -4.119  -0.560  24.495  0.00  0.00    +0.119 A 
ATOM     21  C   UNL     1      -3.927  -1.867  24.111  0.00  0.00    +0.046 A 
ATOM     23  C   UNL     1      -2.216  -1.171  25.360  0.00  0.00    +0.131 A 
ATOM     24  C   UNL     1      -2.691  -2.264  24.674  0.00  0.00    +0.047 A 
BRANCH  23  26
ATOM     26  C   UNL     1      -1.000  -0.931  26.153  0.00  0.00    +0.230 C 
BRANCH  26   6
ATOM      6  O   UNL     1      -0.688   0.463  26.168  0.00  0.00    -0.387 OA
ATOM     34  H   UNL     1      -1.352   0.908  25.615  0.00  0.00    +0.210 HD
ENDBRANCH  26   6
ENDBRANCH  23  26
ENDBRANCH  17  19
ENDBRANCH   7  17
TORSDOF 7
ENDMDL
MODEL 4
REMARK VINA RESULT:       4.3      1.372      2.149
REMARK  Name = 26744780
REMARK  7 active torsions:
REMARK  status: ('A' for Active; 'I' for Inactive)
REMARK    1  A    between atoms: O_6  and  C_26
REMARK    2  A    between atoms: N_7  and  C_17
REMARK    3  A    between atoms: C_12  and  C_18
REMARK    4  A    between atoms: C_17  and  C_19
REMARK    5  A    between atoms: C_22  and  C_25
REMARK    6  A    between atoms: C_23  and  C_26
REMARK    7  A    between atoms: C_31  and  C_32
REMARK                            x       y       z     vdW  Elec       q    Type
REMARK                         _______ _______ _______ _____ _____    ______ ____
ROOT
ATOM      7  N   UNL     1      -2.943   0.739  24.022  0.00  0.00    -0.278 NA
ATOM      8  N   UNL     1      -4.383  -2.638  23.405  0.00  0.00    -0.347 N 
ATOM      9  N   UNL     1      -3.360  -3.187  25.317  0.00  0.00    -0.240 NA
ATOM     12  C   UNL     1      -1.778   0.270  24.832  0.00  0.00    +0.152 C 
ATOM     13  C   UNL     1      -2.139  -0.994  25.691  0.00  0.00    +0.086 C 
ATOM     14  C   UNL     1      -3.504  -0.256  23.084  0.00  0.00    +0.140 C 
ATOM     15  C   UNL     1      -3.653  -1.552  23.779  0.00  0.00    +0.053 A 
ATOM     16  C   UNL     1      -3.033  -1.914  24.949  0.00  0.00    +0.065 A 
ATOM     20  C   UNL     1      -4.175  -3.599  24.365  0.00  0.00    +0.197 A 
ATOM     33  H   UNL     1      -4.963  -2.729  22.581  0.00  0.00    +0.167 HD
ENDROOT
BRANCH  12  18
ATOM      4  O   UNL     1      -0.566  -0.033  22.715  0.00  0.00    -0.336 OA
ATOM     10  N   UNL     1       0.765   0.116  24.510  0.00  0.00    -0.190 NA
ATOM     11  N   UNL     1       0.746  -0.148  22.237  0.00  0.00    -0.056 NA
ATOM     18  C   UNL     1      -0.464   0.121  24.061  0.00  0.00    +0.245 A 
ATOM     22  C   UNL     1       1.473  -0.051  23.355  0.00  0.00    +0.202 A 
BRANCH  22  25
ATOM     25  C   UNL     1       2.906  -0.116  23.351  0.00  0.00    +0.022 A 
ATOM     27  C   UNL     1       3.652   0.973  22.901  0.00  0.00    +0.012 A 
ATOM     28  C   UNL     1       3.552  -1.268  23.798  0.00  0.00    +0.012 A 
ATOM     29  C   UNL     1       5.045   0.909  22.897  0.00  0.00    +0.013 A 
ATOM     30  C   UNL     1       4.946  -1.331  23.794  0.00  0.00    +0.013 A 
ATOM     31  C   UNL     1       5.693  -0.243  23.344  0.00  0.00    +0.055 A 
BRANCH  31  32
ATOM      1  F   UNL     1       7.698  -0.935  22.240  0.00  0.00    -0.166 F 
ATOM      2  F   UNL     1       7.681  -0.989  24.413  0.00  0.00    -0.166 F 
ATOM      3  F   UNL     1       7.785   0.915  23.368  0.00  0.00    -0.166 F 
ATOM     32  C   UNL     1       7.182  -0.310  23.339  0.00  0.00    +0.417 C 
ENDBRANCH  31  32
ENDBRANCH  22  25
ENDBRANCH  12  18
BRANCH   7  17
ATOM     17  C   UNL     1      -2.737   2.030  23.372  0.00  0.00    +0.160 C 
BRANCH  17  19
ATOM      5  O   UNL     1      -4.560   2.916  24.717  0.00  0.00    -0.461 OA
ATOM     19  C   UNL     1      -3.345   3.158  24.161  0.00  0.00    +0.119 A 
ATOM     21  C   UNL     1      -2.925   4.435  24.454  0.00  0.00    +0.046 A 
ATOM     23  C   UNL     1      -4.920   4.050  25.374  0.00  0.00    +0.131 A 
ATOM     24  C   UNL     1      -3.948   5.015  25.242  0.00  0.00    +0.047 A 
BRANCH  23  26
ATOM     26  C   UNL     1      -6.219   4.019  26.063  0.00  0.00    +0.230 C 
BRANCH  26   6
ATOM      6  O   UNL     1      -6.461   2.717  26.601  0.00  0.00    -0.387 OA
ATOM     34  H   UNL     1      -5.768   2.551  27.263  0.00  0.00    +0.210 HD
ENDBRANCH  26   6
ENDBRANCH  23  26
ENDBRANCH  17  19
ENDBRANCH   7  17
TORSDOF 7
ENDMDL
