MODEL 1
REMARK VINA RESULT:      30.7      0.000      0.000
REMARK  Name = 7050376
REMARK  4 active torsions:
REMARK  status: ('A' for Active; 'I' for Inactive)
REMARK    1  A    between atoms: N_7  and  C_10
REMARK    2  A    between atoms: C_15  and  C_18
REMARK    3  A    between atoms: C_25  and  C_29
REMARK    4  A    between atoms: C_28  and  C_31
REMARK                            x       y       z     vdW  Elec       q    Type
REMARK                         _______ _______ _______ _____ _____    ______ ____
ROOT
ATOM      2  O   UNL     1      -0.427   3.507  22.722  0.00  0.00    -0.273 OA
ATOM      3  O   UNL     1      -2.981  -0.888  24.243  0.00  0.00    -0.270 OA
ATOM      6  N   UNL     1      -1.205   0.585  24.065  0.00  0.00    -0.286 N 
ATOM      9  N   UNL     1      -2.475   3.228  23.671  0.00  0.00    -0.283 N 
ATOM     10  C   UNL     1       1.572   1.224  23.209  0.00  0.00    +0.077 C 
ATOM     11  C   UNL     1       0.936   1.784  24.492  0.00  0.00    +0.054 C 
ATOM     12  C   UNL     1      -0.596   1.847  24.465  0.00  0.00    +0.164 C 
ATOM     13  C   UNL     1       0.653   0.243  22.472  0.00  0.00    +0.041 C 
ATOM     14  C   UNL     1      -0.346  -0.411  23.417  0.00  0.00    +0.111 C 
ATOM     21  C   UNL     1      -1.144   2.903  23.520  0.00  0.00    +0.238 C 
ATOM     22  C   UNL     1      -2.511   0.241  24.400  0.00  0.00    +0.249 C 
ATOM     23  C   UNL     1      -3.414   1.289  24.947  0.00  0.00    +0.059 A 
ATOM     24  C   UNL     1      -3.435   2.623  24.510  0.00  0.00    +0.046 A 
ATOM     26  C   UNL     1      -4.419   0.835  25.822  0.00  0.00    +0.026 A 
ATOM     27  C   UNL     1      -4.500   3.451  24.906  0.00  0.00    +0.025 A 
ATOM     28  C   UNL     1      -5.441   1.685  26.243  0.00  0.00    +0.018 A 
ATOM     30  C   UNL     1      -5.490   2.990  25.773  0.00  0.00    +0.013 A 
ATOM     36  H   UNL     1      -2.774   4.075  23.192  0.00  0.00    +0.155 HD
ENDROOT
BRANCH  28  31
ATOM      5  O   UNL     1      -6.077   0.187  27.955  0.00  0.00    -0.463 OA
ATOM     31  C   UNL     1      -6.460   1.201  27.141  0.00  0.00    +0.135 A 
ATOM     32  C   UNL     1      -7.769   1.543  27.363  0.00  0.00    +0.050 A 
ATOM     33  C   UNL     1      -8.227   0.679  28.387  0.00  0.00    +0.042 A 
ATOM     34  C   UNL     1      -7.161  -0.126  28.713  0.00  0.00    +0.196 A 
ENDBRANCH  28  31
BRANCH  10   7
ATOM      1  O   UNL     1       3.751   0.660  21.371  0.00  0.00    -0.276 OA
ATOM      7  N   UNL     1       2.847   0.612  23.516  0.00  0.00    -0.312 N 
ATOM     18  C   UNL     1       3.828   0.383  22.565  0.00  0.00    +0.216 C 
ATOM     35  H   UNL     1       3.040   0.393  24.489  0.00  0.00    +0.149 HD
BRANCH  18  15
ATOM      4  O   UNL     1       9.959  -0.130  22.403  0.00  0.00    -0.276 OA
ATOM      8  N   UNL     1       7.925  -0.205  23.523  0.00  0.00    -0.302 N 
ATOM     15  C   UNL     1       5.057  -0.238  23.153  0.00  0.00    +0.078 C 
ATOM     16  C   UNL     1       6.016  -0.634  22.027  0.00  0.00    +0.032 C 
ATOM     17  C   UNL     1       5.729   0.738  24.122  0.00  0.00    +0.032 C 
ATOM     19  C   UNL     1       7.334  -1.162  22.587  0.00  0.00    +0.108 C 
ATOM     20  C   UNL     1       7.054   0.181  24.639  0.00  0.00    +0.108 C 
ATOM     25  C   UNL     1       9.235   0.235  23.332  0.00  0.00    +0.212 C 
ATOM     29  C   UNL     1       9.769   1.223  24.338  0.00  0.00    +0.109 C 
ENDBRANCH  18  15
ENDBRANCH  10   7
TORSDOF 3
ENDMDL
MODEL 2
REMARK VINA RESULT:      32.3      2.158      3.222
REMARK  Name = 7050376
REMARK  4 active torsions:
REMARK  status: ('A' for Active; 'I' for Inactive)
REMARK    1  A    between atoms: N_7  and  C_10
REMARK    2  A    between atoms: C_15  and  C_18
REMARK    3  A    between atoms: C_25  and  C_29
REMARK    4  A    between atoms: C_28  and  C_31
REMARK                            x       y       z     vdW  Elec       q    Type
REMARK                         _______ _______ _______ _____ _____    ______ ____
ROOT
ATOM      2  O   UNL     1       1.404  -0.531  20.617  0.00  0.00    -0.273 OA
ATOM      3  O   UNL     1      -0.151  -0.306  25.685  0.00  0.00    -0.270 OA
ATOM      6  N   UNL     1       1.238   0.054  23.870  0.00  0.00    -0.286 N 
ATOM      9  N   UNL     1      -0.585   0.076  21.539  0.00  0.00    -0.283 N 
ATOM     10  C   UNL     1       3.842  -0.298  22.473  0.00  0.00    +0.077 C 
ATOM     11  C   UNL     1       3.002   0.986  22.379  0.00  0.00    +0.054 C 
ATOM     12  C   UNL     1       1.503   0.785  22.637  0.00  0.00    +0.164 C 
ATOM     13  C   UNL     1       3.233  -1.334  23.426  0.00  0.00    +0.041 C 
ATOM     14  C   UNL     1       2.350  -0.680  24.481  0.00  0.00    +0.111 C 
ATOM     21  C   UNL     1       0.792   0.026  21.530  0.00  0.00    +0.238 C 
ATOM     22  C   UNL     1       0.028   0.144  24.551  0.00  0.00    +0.249 C 
ATOM     23  C   UNL     1      -1.133   0.785  23.877  0.00  0.00    +0.059 A 
ATOM     24  C   UNL     1      -1.434   0.643  22.513  0.00  0.00    +0.046 A 
ATOM     26  C   UNL     1      -2.063   1.414  24.727  0.00  0.00    +0.026 A 
ATOM     27  C   UNL     1      -2.689   1.071  22.046  0.00  0.00    +0.025 A 
ATOM     28  C   UNL     1      -3.283   1.876  24.235  0.00  0.00    +0.018 A 
ATOM     30  C   UNL     1      -3.603   1.692  22.897  0.00  0.00    +0.013 A 
ATOM     36  H   UNL     1      -1.039  -0.245  20.686  0.00  0.00    +0.155 HD
ENDROOT
BRANCH  28  31
ATOM      5  O   UNL     1      -5.343   1.803  25.391  0.00  0.00    -0.463 OA
ATOM     31  C   UNL     1      -4.223   2.518  25.121  0.00  0.00    +0.135 A 
ATOM     32  C   UNL     1      -4.242   3.725  25.771  0.00  0.00    +0.050 A 
ATOM     33  C   UNL     1      -5.459   3.757  26.494  0.00  0.00    +0.042 A 
ATOM     34  C   UNL     1      -6.092   2.566  26.229  0.00  0.00    +0.196 A 
ENDBRANCH  28  31
BRANCH  10   7
ATOM      1  O   UNL     1       5.589  -1.804  24.239  0.00  0.00    -0.276 OA
ATOM      7  N   UNL     1       5.199   0.027  22.856  0.00  0.00    -0.312 N 
ATOM     18  C   UNL     1       5.956  -0.759  23.710  0.00  0.00    +0.216 C 
ATOM     35  H   UNL     1       5.624   0.846  22.430  0.00  0.00    +0.149 HD
BRANCH  18  15
ATOM      4  O   UNL     1      11.056   1.552  21.154  0.00  0.00    -0.276 OA
ATOM      8  N   UNL     1       9.572   1.331  22.928  0.00  0.00    -0.302 N 
ATOM     15  C   UNL     1       7.333  -0.208  23.919  0.00  0.00    +0.078 C 
ATOM     16  C   UNL     1       8.270  -0.758  22.840  0.00  0.00    +0.032 C 
ATOM     17  C   UNL     1       7.300   1.322  23.882  0.00  0.00    +0.032 C 
ATOM     19  C   UNL     1       9.657  -0.130  22.944  0.00  0.00    +0.108 C 
ATOM     20  C   UNL     1       8.708   1.908  23.965  0.00  0.00    +0.108 C 
ATOM     25  C   UNL     1      10.311   2.059  21.995  0.00  0.00    +0.212 C 
ATOM     29  C   UNL     1      10.165   3.559  22.042  0.00  0.00    +0.109 C 
ENDBRANCH  18  15
ENDBRANCH  10   7
TORSDOF 3
ENDMDL
MODEL 3
REMARK VINA RESULT:      33.7      1.927     11.204
REMARK  Name = 7050376
REMARK  4 active torsions:
REMARK  status: ('A' for Active; 'I' for Inactive)
REMARK    1  A    between atoms: N_7  and  C_10
REMARK    2  A    between atoms: C_15  and  C_18
REMARK    3  A    between atoms: C_25  and  C_29
REMARK    4  A    between atoms: C_28  and  C_31
REMARK                            x       y       z     vdW  Elec       q    Type
REMARK                         _______ _______ _______ _____ _____    ______ ____
ROOT
ATOM      2  O   UNL     1       1.335  -2.567  24.655  0.00  0.00    -0.273 OA
ATOM      3  O   UNL     1       3.838   0.727  21.333  0.00  0.00    -0.270 OA
ATOM      6  N   UNL     1       2.308   0.097  22.951  0.00  0.00    -0.286 N 
ATOM      9  N   UNL     1       3.553  -2.239  24.274  0.00  0.00    -0.283 N 
ATOM     10  C   UNL     1      -0.493  -0.213  23.906  0.00  0.00    +0.077 C 
ATOM     11  C   UNL     1       0.674   0.171  24.830  0.00  0.00    +0.054 C 
ATOM     12  C   UNL     1       2.052  -0.286  24.334  0.00  0.00    +0.164 C 
ATOM     13  C   UNL     1      -0.070  -0.333  22.437  0.00  0.00    +0.041 C 
ATOM     14  C   UNL     1       1.163   0.509  22.134  0.00  0.00    +0.111 C 
ATOM     21  C   UNL     1       2.256  -1.789  24.405  0.00  0.00    +0.238 C 
ATOM     22  C   UNL     1       3.593   0.223  22.431  0.00  0.00    +0.249 C 
ATOM     23  C   UNL     1       4.742  -0.306  23.214  0.00  0.00    +0.059 A 
ATOM     24  C   UNL     1       4.710  -1.494  23.963  0.00  0.00    +0.046 A 
ATOM     26  C   UNL     1       5.970   0.354  23.021  0.00  0.00    +0.026 A 
ATOM     27  C   UNL     1       5.920  -2.028  24.440  0.00  0.00    +0.025 A 
ATOM     28  C   UNL     1       7.153  -0.166  23.544  0.00  0.00    +0.018 A 
ATOM     30  C   UNL     1       7.131  -1.366  24.241  0.00  0.00    +0.013 A 
ATOM     36  H   UNL     1       3.706  -3.210  24.537  0.00  0.00    +0.155 HD
ENDROOT
BRANCH  28  31
ATOM      5  O   UNL     1       9.259  -0.078  22.476  0.00  0.00    -0.463 OA
ATOM     31  C   UNL     1       8.401   0.526  23.335  0.00  0.00    +0.135 A 
ATOM     32  C   UNL     1       8.934   1.690  23.825  0.00  0.00    +0.050 A 
ATOM     33  C   UNL     1      10.210   1.815  23.226  0.00  0.00    +0.042 A 
ATOM     34  C   UNL     1      10.361   0.715  22.415  0.00  0.00    +0.196 A 
ENDBRANCH  28  31
BRANCH  10   7
ATOM      1  O   UNL     1      -0.298   2.681  24.074  0.00  0.00    -0.276 OA
ATOM      7  N   UNL     1      -1.576   0.735  24.059  0.00  0.00    -0.312 N 
ATOM     18  C   UNL     1      -1.381   2.105  24.130  0.00  0.00    +0.216 C 
ATOM     35  H   UNL     1      -2.523   0.369  24.060  0.00  0.00    +0.149 HD
BRANCH  18  15
ATOM      4  O   UNL     1      -7.513   1.836  24.589  0.00  0.00    -0.276 OA
ATOM      8  N   UNL     1      -5.473   2.878  24.974  0.00  0.00    -0.302 N 
ATOM     15  C   UNL     1      -2.669   2.857  24.262  0.00  0.00    +0.078 C 
ATOM     16  C   UNL     1      -3.730   2.210  23.367  0.00  0.00    +0.032 C 
ATOM     17  C   UNL     1      -3.125   2.868  25.724  0.00  0.00    +0.032 C 
ATOM     19  C   UNL     1      -5.092   2.871  23.561  0.00  0.00    +0.108 C 
ATOM     20  C   UNL     1      -4.500   3.517  25.870  0.00  0.00    +0.108 C 
ATOM     25  C   UNL     1      -6.697   2.338  25.366  0.00  0.00    +0.212 C 
ATOM     29  C   UNL     1      -7.014   2.381  26.840  0.00  0.00    +0.109 C 
ENDBRANCH  18  15
ENDBRANCH  10   7
TORSDOF 3
ENDMDL
MODEL 4
REMARK VINA RESULT:      34.3      2.395      3.725
REMARK  Name = 7050376
REMARK  4 active torsions:
REMARK  status: ('A' for Active; 'I' for Inactive)
REMARK    1  A    between atoms: N_7  and  C_10
REMARK    2  A    between atoms: C_15  and  C_18
REMARK    3  A    between atoms: C_25  and  C_29
REMARK    4  A    between atoms: C_28  and  C_31
REMARK                            x       y       z     vdW  Elec       q    Type
REMARK                         _______ _______ _______ _____ _____    ______ ____
ROOT
ATOM      2  O   UNL     1      -3.245  -1.974  24.735  0.00  0.00    -0.273 OA
ATOM      3  O   UNL     1      -2.247   2.864  26.674  0.00  0.00    -0.270 OA
ATOM      6  N   UNL     1      -1.921   0.996  25.347  0.00  0.00    -0.286 N 
ATOM      9  N   UNL     1      -4.617  -0.190  25.066  0.00  0.00    -0.283 N 
ATOM     10  C   UNL     1      -0.259  -1.304  24.453  0.00  0.00    +0.077 C 
ATOM     11  C   UNL     1      -1.171  -0.506  23.507  0.00  0.00    +0.054 C 
ATOM     12  C   UNL     1      -2.342   0.200  24.202  0.00  0.00    +0.164 C 
ATOM     13  C   UNL     1      -0.237  -0.733  25.876  0.00  0.00    +0.041 C 
ATOM     14  C   UNL     1      -0.583   0.750  25.893  0.00  0.00    +0.111 C 
ATOM     21  C   UNL     1      -3.408  -0.753  24.715  0.00  0.00    +0.238 C 
ATOM     22  C   UNL     1      -2.669   2.061  25.839  0.00  0.00    +0.249 C 
ATOM     23  C   UNL     1      -4.070   2.235  25.368  0.00  0.00    +0.059 A 
ATOM     24  C   UNL     1      -4.961   1.177  25.125  0.00  0.00    +0.046 A 
ATOM     26  C   UNL     1      -4.551   3.558  25.353  0.00  0.00    +0.026 A 
ATOM     27  C   UNL     1      -6.325   1.466  24.942  0.00  0.00    +0.025 A 
ATOM     28  C   UNL     1      -5.899   3.828  25.122  0.00  0.00    +0.018 A 
ATOM     30  C   UNL     1      -6.789   2.780  24.930  0.00  0.00    +0.013 A 
ATOM     36  H   UNL     1      -5.382  -0.848  25.198  0.00  0.00    +0.155 HD
ENDROOT
BRANCH  28  31
ATOM      5  O   UNL     1      -6.644   5.717  26.329  0.00  0.00    -0.463 OA
ATOM     31  C   UNL     1      -6.372   5.191  25.110  0.00  0.00    +0.135 A 
ATOM     32  C   UNL     1      -6.617   6.101  24.115  0.00  0.00    +0.050 A 
ATOM     33  C   UNL     1      -7.073   7.273  24.765  0.00  0.00    +0.042 A 
ATOM     34  C   UNL     1      -7.071   6.988  26.110  0.00  0.00    +0.196 A 
ENDBRANCH  28  31
BRANCH  10   7
ATOM      1  O   UNL     1       1.207   0.795  23.078  0.00  0.00    -0.276 OA
ATOM      7  N   UNL     1       1.078  -1.379  23.902  0.00  0.00    -0.312 N 
ATOM     18  C   UNL     1       1.695  -0.318  23.261  0.00  0.00    +0.216 C 
ATOM     35  H   UNL     1       1.597  -2.240  24.047  0.00  0.00    +0.149 HD
BRANCH  18  15
ATOM      4  O   UNL     1       7.708   0.946  23.619  0.00  0.00    -0.276 OA
ATOM      8  N   UNL     1       5.939  -0.512  23.242  0.00  0.00    -0.302 N 
ATOM     15  C   UNL     1       3.083  -0.654  22.810  0.00  0.00    +0.078 C 
ATOM     16  C   UNL     1       3.868   0.639  22.570  0.00  0.00    +0.032 C 
ATOM     17  C   UNL     1       3.780  -1.526  23.858  0.00  0.00    +0.032 C 
ATOM     19  C   UNL     1       5.324   0.342  22.225  0.00  0.00    +0.108 C 
ATOM     20  C   UNL     1       5.239  -1.779  23.486  0.00  0.00    +0.108 C 
ATOM     25  C   UNL     1       7.120  -0.109  23.865  0.00  0.00    +0.212 C 
ATOM     29  C   UNL     1       7.688  -1.044  24.904  0.00  0.00    +0.109 C 
ENDBRANCH  18  15
ENDBRANCH  10   7
TORSDOF 3
ENDMDL
MODEL 5
REMARK VINA RESULT:      34.7      1.969      2.758
REMARK  Name = 7050376
REMARK  4 active torsions:
REMARK  status: ('A' for Active; 'I' for Inactive)
REMARK    1  A    between atoms: N_7  and  C_10
REMARK    2  A    between atoms: C_15  and  C_18
REMARK    3  A    between atoms: C_25  and  C_29
REMARK    4  A    between atoms: C_28  and  C_31
REMARK                            x       y       z     vdW  Elec       q    Type
REMARK                         _______ _______ _______ _____ _____    ______ ____
ROOT
ATOM      2  O   UNL     1      -3.237   3.833  23.110  0.00  0.00    -0.273 OA
ATOM      3  O   UNL     1      -4.760  -1.013  24.643  0.00  0.00    -0.270 OA
ATOM      6  N   UNL     1      -3.275   0.695  24.159  0.00  0.00    -0.286 N 
ATOM      9  N   UNL     1      -4.836   3.173  24.587  0.00  0.00    -0.283 N 
ATOM     10  C   UNL     1      -0.992   1.797  22.601  0.00  0.00    +0.077 C 
ATOM     11  C   UNL     1      -1.227   2.111  24.088  0.00  0.00    +0.054 C 
ATOM     12  C   UNL     1      -2.686   1.971  24.542  0.00  0.00    +0.164 C 
ATOM     13  C   UNL     1      -2.009   0.795  22.040  0.00  0.00    +0.041 C 
ATOM     14  C   UNL     1      -2.587  -0.094  23.133  0.00  0.00    +0.111 C 
ATOM     21  C   UNL     1      -3.601   3.049  23.987  0.00  0.00    +0.238 C 
ATOM     22  C   UNL     1      -4.367   0.143  24.821  0.00  0.00    +0.249 C 
ATOM     23  C   UNL     1      -5.136   0.988  25.774  0.00  0.00    +0.059 A 
ATOM     24  C   UNL     1      -5.415   2.350  25.576  0.00  0.00    +0.046 A 
ATOM     26  C   UNL     1      -5.759   0.304  26.835  0.00  0.00    +0.026 A 
ATOM     27  C   UNL     1      -6.365   2.976  26.402  0.00  0.00    +0.025 A 
ATOM     28  C   UNL     1      -6.662   0.954  27.674  0.00  0.00    +0.018 A 
ATOM     30  C   UNL     1      -6.977   2.287  27.449  0.00  0.00    +0.013 A 
ATOM     36  H   UNL     1      -5.348   4.023  24.359  0.00  0.00    +0.155 HD
ENDROOT
BRANCH  28  31
ATOM      5  O   UNL     1      -6.824   0.534  29.993  0.00  0.00    -0.463 OA
ATOM     31  C   UNL     1      -7.290   0.235  28.756  0.00  0.00    +0.135 A 
ATOM     32  C   UNL     1      -8.280  -0.711  28.818  0.00  0.00    +0.050 A 
ATOM     33  C   UNL     1      -8.437  -1.019  30.190  0.00  0.00    +0.042 A 
ATOM     34  C   UNL     1      -7.529  -0.236  30.864  0.00  0.00    +0.196 A 
ENDBRANCH  28  31
BRANCH  10   7
ATOM      1  O   UNL     1       0.200  -0.648  23.624  0.00  0.00    -0.276 OA
ATOM      7  N   UNL     1       0.363   1.329  22.404  0.00  0.00    -0.312 N 
ATOM     18  C   UNL     1       0.841   0.142  22.935  0.00  0.00    +0.216 C 
ATOM     35  H   UNL     1       0.967   1.880  21.801  0.00  0.00    +0.149 HD
BRANCH  18  15
ATOM      4  O   UNL     1       6.788   1.150  24.160  0.00  0.00    -0.276 OA
ATOM      8  N   UNL     1       5.065  -0.143  23.289  0.00  0.00    -0.302 N 
ATOM     15  C   UNL     1       2.267  -0.117  22.559  0.00  0.00    +0.078 C 
ATOM     16  C   UNL     1       3.073   1.178  22.697  0.00  0.00    +0.032 C 
ATOM     17  C   UNL     1       2.854  -1.219  23.444  0.00  0.00    +0.032 C 
ATOM     19  C   UNL     1       4.557   0.933  22.438  0.00  0.00    +0.108 C 
ATOM     20  C   UNL     1       4.343  -1.416  23.168  0.00  0.00    +0.108 C 
ATOM     25  C   UNL     1       6.178   0.080  24.100  0.00  0.00    +0.212 C 
ATOM     29  C   UNL     1       6.637  -1.079  24.949  0.00  0.00    +0.109 C 
ENDBRANCH  18  15
ENDBRANCH  10   7
TORSDOF 3
ENDMDL
