MODEL 1
REMARK VINA RESULT:      -2.6      0.000      0.000
REMARK  Name = 26743244
REMARK  8 active torsions:
REMARK  status: ('A' for Active; 'I' for Inactive)
REMARK    1  A    between atoms: N_5  and  C_29
REMARK    2  A    between atoms: C_7  and  C_11
REMARK    3  A    between atoms: C_8  and  C_12
REMARK    4  A    between atoms: C_11  and  C_17
REMARK    5  A    between atoms: C_12  and  C_19
REMARK    6  A    between atoms: C_14  and  C_18
REMARK    7  A    between atoms: C_18  and  C_23
REMARK    8  A    between atoms: C_29  and  C_30
REMARK                            x       y       z     vdW  Elec       q    Type
REMARK                         _______ _______ _______ _____ _____    ______ ____
ROOT
ATOM      3  N   UNL     1      -0.379  -7.963  12.833  0.00  0.00    -0.316 NA
ATOM      7  C   UNL     1      -1.633 -10.517  13.615  0.00  0.00    +0.004 C 
ATOM      8  C   UNL     1      -1.386 -10.124  12.139  0.00  0.00    +0.012 C 
ATOM      9  C   UNL     1      -0.637  -9.758  14.509  0.00  0.00    +0.019 C 
ATOM     10  C   UNL     1      -1.362  -8.598  11.953  0.00  0.00    +0.085 C 
ATOM     13  C   UNL     1      -0.641  -8.254  14.240  0.00  0.00    +0.081 C 
ATOM     36  H   UNL     1      -0.399  -6.953  12.687  0.00  0.00    +0.122 HD
ENDROOT
BRANCH   7  11
ATOM     11  C   UNL     1      -3.073 -10.290  14.089  0.00  0.00    +0.100 C 
BRANCH  11  17
ATOM      2  O   UNL     1      -2.118 -10.436  16.252  0.00  0.00    -0.276 OA
ATOM      4  N   UNL     1      -4.431 -10.618  16.126  0.00  0.00    -0.299 N 
ATOM      5  N   UNL     1      -6.979 -10.180  17.360  0.00  0.00    -0.295 NA
ATOM     17  C   UNL     1      -3.156 -10.455  15.585  0.00  0.00    +0.216 C 
ATOM     24  C   UNL     1      -4.594 -10.780  17.569  0.00  0.00    +0.123 C 
ATOM     25  C   UNL     1      -5.665 -10.778  15.352  0.00  0.00    +0.123 C 
ATOM     27  C   UNL     1      -5.736  -9.912  18.098  0.00  0.00    +0.103 C 
ATOM     28  C   UNL     1      -6.790  -9.915  15.925  0.00  0.00    +0.103 C 
BRANCH   5  29
ATOM     29  C   UNL     1      -8.076  -9.373  17.891  0.00  0.00    +0.119 C 
BRANCH  29  30
ATOM     30  C   UNL     1      -8.999  -8.896  16.807  0.00  0.00    -0.033 A 
ATOM     31  C   UNL     1      -9.576  -7.628  16.892  0.00  0.00    +0.005 A 
ATOM     32  C   UNL     1      -9.279  -9.719  15.717  0.00  0.00    +0.005 A 
ATOM     33  C   UNL     1     -10.434  -7.184  15.885  0.00  0.00    +0.000 A 
ATOM     34  C   UNL     1     -10.137  -9.275  14.710  0.00  0.00    +0.000 A 
ATOM     35  C   UNL     1     -10.714  -8.007  14.795  0.00  0.00    +0.000 A 
ENDBRANCH  29  30
ENDBRANCH   5  29
ENDBRANCH  11  17
ENDBRANCH   7  11
BRANCH   8  12
ATOM     12  C   UNL     1      -2.383 -10.766  11.174  0.00  0.00    +0.064 C 
BRANCH  12  19
ATOM      1  O   UNL     1      -5.203  -8.529  11.195  0.00  0.00    -0.359 OA
ATOM      6  N   UNL     1      -4.278  -9.346  11.831  0.00  0.00    -0.083 NA
ATOM     19  C   UNL     1      -3.511  -9.831  10.849  0.00  0.00    +0.084 A 
ATOM     23  C   UNL     1      -4.970  -8.544   9.858  0.00  0.00    +0.138 A 
ATOM     26  C   UNL     1      -3.902  -9.358   9.585  0.00  0.00    +0.071 A 
BRANCH  23  18
ATOM     18  C   UNL     1      -5.864  -7.727   9.028  0.00  0.00    +0.080 C 
BRANCH  18  14
ATOM     14  C   UNL     1      -7.133  -8.465   8.606  0.00  0.00    -0.004 C 
ATOM     15  C   UNL     1      -7.386  -9.674   9.519  0.00  0.00    +0.004 C 
ATOM     16  C   UNL     1      -8.338  -7.516   8.610  0.00  0.00    +0.004 C 
ATOM     20  C   UNL     1      -8.679 -10.397   9.151  0.00  0.00    +0.000 C 
ATOM     21  C   UNL     1      -9.630  -8.244   8.244  0.00  0.00    +0.000 C 
ATOM     22  C   UNL     1      -9.873  -9.448   9.146  0.00  0.00    +0.000 C 
ENDBRANCH  18  14
ENDBRANCH  23  18
ENDBRANCH  12  19
ENDBRANCH   8  12
TORSDOF 8
ENDMDL
MODEL 2
REMARK VINA RESULT:       0.8     13.841     17.606
REMARK  Name = 26743244
REMARK  8 active torsions:
REMARK  status: ('A' for Active; 'I' for Inactive)
REMARK    1  A    between atoms: N_5  and  C_29
REMARK    2  A    between atoms: C_7  and  C_11
REMARK    3  A    between atoms: C_8  and  C_12
REMARK    4  A    between atoms: C_11  and  C_17
REMARK    5  A    between atoms: C_12  and  C_19
REMARK    6  A    between atoms: C_14  and  C_18
REMARK    7  A    between atoms: C_18  and  C_23
REMARK    8  A    between atoms: C_29  and  C_30
REMARK                            x       y       z     vdW  Elec       q    Type
REMARK                         _______ _______ _______ _____ _____    ______ ____
ROOT
ATOM      3  N   UNL     1      -3.607   0.702  22.621  0.00  0.00    -0.316 NA
ATOM      7  C   UNL     1      -4.944  -0.832  24.757  0.00  0.00    +0.004 C 
ATOM      8  C   UNL     1      -5.314   0.633  24.423  0.00  0.00    +0.012 C 
ATOM      9  C   UNL     1      -4.318  -1.487  23.514  0.00  0.00    +0.019 C 
ATOM     10  C   UNL     1      -4.129   1.391  23.803  0.00  0.00    +0.085 C 
ATOM     13  C   UNL     1      -3.175  -0.658  22.931  0.00  0.00    +0.081 C 
ATOM     36  H   UNL     1      -2.820   1.230  22.244  0.00  0.00    +0.122 HD
ENDROOT
BRANCH   7  11
ATOM     11  C   UNL     1      -4.023  -0.981  25.974  0.00  0.00    +0.100 C 
BRANCH  11  17
ATOM      2  O   UNL     1      -3.231  -3.202  25.741  0.00  0.00    -0.276 OA
ATOM      4  N   UNL     1      -1.687  -1.507  25.369  0.00  0.00    -0.299 N 
ATOM      5  N   UNL     1       0.652  -0.605  23.982  0.00  0.00    -0.295 NA
ATOM     17  C   UNL     1      -2.951  -2.001  25.688  0.00  0.00    +0.216 C 
ATOM     24  C   UNL     1      -0.596  -2.433  25.074  0.00  0.00    +0.123 C 
ATOM     25  C   UNL     1      -1.290  -0.097  25.427  0.00  0.00    +0.123 C 
ATOM     27  C   UNL     1       0.186  -1.992  23.837  0.00  0.00    +0.103 C 
ATOM     28  C   UNL     1      -0.490   0.301  24.185  0.00  0.00    +0.103 C 
BRANCH   5  29
ATOM     29  C   UNL     1       1.427  -0.199  22.812  0.00  0.00    +0.119 C 
BRANCH  29  30
ATOM     30  C   UNL     1       2.901  -0.168  23.097  0.00  0.00    -0.033 A 
ATOM     31  C   UNL     1       3.643   0.979  22.809  0.00  0.00    +0.005 A 
ATOM     32  C   UNL     1       3.528  -1.284  23.650  0.00  0.00    +0.005 A 
ATOM     33  C   UNL     1       5.012   1.008  23.074  0.00  0.00    +0.000 A 
ATOM     34  C   UNL     1       4.897  -1.255  23.916  0.00  0.00    +0.000 A 
ATOM     35  C   UNL     1       5.639  -0.108  23.628  0.00  0.00    +0.000 A 
ENDBRANCH  29  30
ENDBRANCH   5  29
ENDBRANCH  11  17
ENDBRANCH   7  11
BRANCH   8  12
ATOM     12  C   UNL     1      -5.873   1.398  25.623  0.00  0.00    +0.064 C 
BRANCH  12  19
ATOM      1  O   UNL     1      -5.219   4.930  25.867  0.00  0.00    -0.359 OA
ATOM      6  N   UNL     1      -6.077   3.841  25.783  0.00  0.00    -0.083 NA
ATOM     19  C   UNL     1      -5.278   2.772  25.720  0.00  0.00    +0.084 A 
ATOM     23  C   UNL     1      -3.935   4.489  25.851  0.00  0.00    +0.138 A 
ATOM     26  C   UNL     1      -3.917   3.122  25.759  0.00  0.00    +0.071 A 
BRANCH  23  18
ATOM     18  C   UNL     1      -2.888   5.516  25.932  0.00  0.00    +0.080 C 
BRANCH  18  14
ATOM     14  C   UNL     1      -1.495   4.980  25.608  0.00  0.00    -0.004 C 
ATOM     15  C   UNL     1      -1.292   3.590  26.226  0.00  0.00    +0.004 C 
ATOM     16  C   UNL     1      -1.269   4.942  24.091  0.00  0.00    +0.004 C 
ATOM     20  C   UNL     1       0.075   3.009  25.872  0.00  0.00    +0.000 C 
ATOM     21  C   UNL     1       0.099   4.359  23.740  0.00  0.00    +0.000 C 
ATOM     22  C   UNL     1       0.300   2.982  24.363  0.00  0.00    +0.000 C 
ENDBRANCH  18  14
ENDBRANCH  23  18
ENDBRANCH  12  19
ENDBRANCH   8  12
TORSDOF 8
ENDMDL
