MODEL 1
REMARK VINA RESULT:       0.4      0.000      0.000
REMARK  Name = 26763048
REMARK  9 active torsions:
REMARK  status: ('A' for Active; 'I' for Inactive)
REMARK    1  A    between atoms: N_7  and  C_12
REMARK    2  A    between atoms: N_8  and  C_21
REMARK    3  A    between atoms: N_8  and  C_22
REMARK    4  A    between atoms: N_9  and  C_23
REMARK    5  A    between atoms: C_11  and  C_16
REMARK    6  A    between atoms: C_16  and  C_18
REMARK    7  A    between atoms: C_18  and  C_20
REMARK    8  A    between atoms: C_21  and  C_24
REMARK    9  A    between atoms: C_22  and  C_25
REMARK                            x       y       z     vdW  Elec       q    Type
REMARK                         _______ _______ _______ _____ _____    ______ ____
ROOT
ATOM      2  O   UNL     1      -3.944  -1.610  25.536  0.00  0.00    -0.274 OA
ATOM      5  N   UNL     1      -3.503   1.608  24.136  0.00  0.00    -0.285 NA
ATOM      6  N   UNL     1      -5.040   0.349  26.015  0.00  0.00    -0.313 N 
ATOM     10  C   UNL     1      -3.770   0.180  23.941  0.00  0.00    +0.145 C 
ATOM     11  C   UNL     1      -4.745   2.309  24.470  0.00  0.00    +0.075 C 
ATOM     12  C   UNL     1      -1.866   0.873  22.637  0.00  0.00    +0.090 C 
ATOM     13  C   UNL     1      -2.445  -0.329  23.392  0.00  0.00    +0.052 C 
ATOM     14  C   UNL     1      -2.837   2.026  22.903  0.00  0.00    +0.107 C 
ATOM     15  C   UNL     1      -5.196   1.785  25.840  0.00  0.00    +0.123 C 
ATOM     17  C   UNL     1      -4.213  -0.445  25.244  0.00  0.00    +0.230 C 
ATOM     29  H   UNL     1      -5.421  -0.060  26.863  0.00  0.00    +0.149 HD
ENDROOT
BRANCH  12   7
ATOM      3  O   UNL     1       0.490  -0.701  22.216  0.00  0.00    -0.253 OA
ATOM      7  N   UNL     1      -0.531   1.179  23.092  0.00  0.00    -0.295 N 
ATOM      9  N   UNL     1       1.728   0.903  23.403  0.00  0.00    -0.269 N 
ATOM     19  C   UNL     1       0.571   0.353  22.843  0.00  0.00    +0.304 C 
ATOM     30  H   UNL     1      -0.398   1.994  23.682  0.00  0.00    +0.151 HD
ATOM     31  H   UNL     1       1.634   1.788  23.895  0.00  0.00    +0.156 HD
BRANCH   9  23
ATOM      1  S   UNL     1       5.021  -1.237  23.629  0.00  0.00    -0.103 S 
ATOM     23  C   UNL     1       3.041   0.379  23.372  0.00  0.00    +0.042 A 
ATOM     26  C   UNL     1       4.190   1.086  22.913  0.00  0.00    +0.031 A 
ATOM     27  C   UNL     1       3.350  -0.897  23.790  0.00  0.00    +0.068 A 
ATOM     28  C   UNL     1       5.334   0.324  22.999  0.00  0.00    +0.047 A 
ENDBRANCH   9  23
ENDBRANCH  12   7
BRANCH  11  16
ATOM     16  C   UNL     1      -4.577   3.829  24.532  0.00  0.00    +0.029 C 
BRANCH  16  18
ATOM     18  C   UNL     1      -3.694   4.237  25.707  0.00  0.00    +0.097 C 
BRANCH  18  20
ATOM      4  O   UNL     1      -2.315   5.942  24.735  0.00  0.00    -0.276 OA
ATOM      8  N   UNL     1      -1.235   4.018  25.454  0.00  0.00    -0.302 N 
ATOM     20  C   UNL     1      -2.363   4.822  25.251  0.00  0.00    +0.216 C 
BRANCH   8  21
ATOM     21  C   UNL     1      -1.243   2.688  26.060  0.00  0.00    +0.104 C 
ATOM     24  C   UNL     1       0.155   2.245  26.438  0.00  0.00    +0.024 C 
ENDBRANCH   8  21
BRANCH   8  22
ATOM     22  C   UNL     1       0.075   4.502  25.037  0.00  0.00    +0.104 C 
ATOM     25  C   UNL     1       0.162   4.640  23.531  0.00  0.00    +0.024 C 
ENDBRANCH   8  22
ENDBRANCH  18  20
ENDBRANCH  16  18
ENDBRANCH  11  16
TORSDOF 7
ENDMDL
MODEL 2
REMARK VINA RESULT:       2.1      2.091      4.458
REMARK  Name = 26763048
REMARK  9 active torsions:
REMARK  status: ('A' for Active; 'I' for Inactive)
REMARK    1  A    between atoms: N_7  and  C_12
REMARK    2  A    between atoms: N_8  and  C_21
REMARK    3  A    between atoms: N_8  and  C_22
REMARK    4  A    between atoms: N_9  and  C_23
REMARK    5  A    between atoms: C_11  and  C_16
REMARK    6  A    between atoms: C_16  and  C_18
REMARK    7  A    between atoms: C_18  and  C_20
REMARK    8  A    between atoms: C_21  and  C_24
REMARK    9  A    between atoms: C_22  and  C_25
REMARK                            x       y       z     vdW  Elec       q    Type
REMARK                         _______ _______ _______ _____ _____    ______ ____
ROOT
ATOM      2  O   UNL     1      -5.247   5.531  24.635  0.00  0.00    -0.274 OA
ATOM      5  N   UNL     1      -3.795   2.430  25.519  0.00  0.00    -0.285 NA
ATOM      6  N   UNL     1      -6.217   3.455  24.771  0.00  0.00    -0.313 N 
ATOM     10  C   UNL     1      -4.067   3.831  25.856  0.00  0.00    +0.145 C 
ATOM     11  C   UNL     1      -4.942   1.596  25.882  0.00  0.00    +0.075 C 
ATOM     12  C   UNL     1      -1.700   3.383  25.933  0.00  0.00    +0.090 C 
ATOM     13  C   UNL     1      -2.714   4.491  25.627  0.00  0.00    +0.052 C 
ATOM     14  C   UNL     1      -2.537   2.129  26.201  0.00  0.00    +0.107 C 
ATOM     15  C   UNL     1      -6.104   2.019  24.973  0.00  0.00    +0.123 C 
ATOM     17  C   UNL     1      -5.196   4.357  25.001  0.00  0.00    +0.230 C 
ATOM     29  H   UNL     1      -7.031   3.790  24.265  0.00  0.00    +0.149 HD
ENDROOT
BRANCH  12   7
ATOM      3  O   UNL     1       0.192   1.255  25.623  0.00  0.00    -0.253 OA
ATOM      7  N   UNL     1      -0.787   3.195  24.833  0.00  0.00    -0.295 N 
ATOM      9  N   UNL     1       0.865   2.202  23.583  0.00  0.00    -0.269 N 
ATOM     19  C   UNL     1       0.110   2.124  24.757  0.00  0.00    +0.304 C 
ATOM     30  H   UNL     1      -0.742   3.912  24.115  0.00  0.00    +0.151 HD
ATOM     31  H   UNL     1       0.680   2.984  22.960  0.00  0.00    +0.156 HD
BRANCH   9  23
ATOM      1  S   UNL     1       4.178   0.369  22.516  0.00  0.00    -0.103 S 
ATOM     23  C   UNL     1       1.872   1.315  23.137  0.00  0.00    +0.042 A 
ATOM     26  C   UNL     1       1.643  -0.014  22.677  0.00  0.00    +0.031 A 
ATOM     27  C   UNL     1       3.208   1.653  23.102  0.00  0.00    +0.068 A 
ATOM     28  C   UNL     1       2.812  -0.642  22.308  0.00  0.00    +0.047 A 
ENDBRANCH   9  23
ENDBRANCH  12   7
BRANCH  11  16
ATOM     16  C   UNL     1      -4.674   0.099  25.709  0.00  0.00    +0.029 C 
BRANCH  16  18
ATOM     18  C   UNL     1      -4.372  -0.241  24.253  0.00  0.00    +0.097 C 
BRANCH  18  20
ATOM      4  O   UNL     1      -2.160   0.371  23.558  0.00  0.00    -0.276 OA
ATOM      8  N   UNL     1      -2.435  -1.788  24.360  0.00  0.00    -0.302 N 
ATOM     20  C   UNL     1      -2.890  -0.509  24.020  0.00  0.00    +0.216 C 
BRANCH   8  21
ATOM     21  C   UNL     1      -3.261  -2.861  24.910  0.00  0.00    +0.104 C 
ATOM     24  C   UNL     1      -4.193  -3.434  23.864  0.00  0.00    +0.024 C 
ENDBRANCH   8  21
BRANCH   8  22
ATOM     22  C   UNL     1      -1.032  -2.127  24.159  0.00  0.00    +0.104 C 
ATOM     25  C   UNL     1      -0.234  -1.971  25.436  0.00  0.00    +0.024 C 
ENDBRANCH   8  22
ENDBRANCH  18  20
ENDBRANCH  16  18
ENDBRANCH  11  16
TORSDOF 7
ENDMDL
MODEL 3
REMARK VINA RESULT:       2.2      2.874      3.738
REMARK  Name = 26763048
REMARK  9 active torsions:
REMARK  status: ('A' for Active; 'I' for Inactive)
REMARK    1  A    between atoms: N_7  and  C_12
REMARK    2  A    between atoms: N_8  and  C_21
REMARK    3  A    between atoms: N_8  and  C_22
REMARK    4  A    between atoms: N_9  and  C_23
REMARK    5  A    between atoms: C_11  and  C_16
REMARK    6  A    between atoms: C_16  and  C_18
REMARK    7  A    between atoms: C_18  and  C_20
REMARK    8  A    between atoms: C_21  and  C_24
REMARK    9  A    between atoms: C_22  and  C_25
REMARK                            x       y       z     vdW  Elec       q    Type
REMARK                         _______ _______ _______ _____ _____    ______ ____
ROOT
ATOM      2  O   UNL     1      -1.324  -2.834  24.976  0.00  0.00    -0.274 OA
ATOM      5  N   UNL     1      -2.640   0.330  24.101  0.00  0.00    -0.285 NA
ATOM      6  N   UNL     1      -3.483  -2.067  25.110  0.00  0.00    -0.313 N 
ATOM     10  C   UNL     1      -1.884  -0.866  23.715  0.00  0.00    +0.145 C 
ATOM     11  C   UNL     1      -4.076   0.085  23.955  0.00  0.00    +0.075 C 
ATOM     12  C   UNL     1      -0.574   1.121  23.339  0.00  0.00    +0.090 C 
ATOM     13  C   UNL     1      -0.449  -0.361  23.711  0.00  0.00    +0.052 C 
ATOM     14  C   UNL     1      -2.079   1.397  23.272  0.00  0.00    +0.107 C 
ATOM     15  C   UNL     1      -4.450  -0.987  24.988  0.00  0.00    +0.123 C 
ATOM     17  C   UNL     1      -2.171  -1.991  24.683  0.00  0.00    +0.230 C 
ATOM     29  H   UNL     1      -3.736  -2.852  25.703  0.00  0.00    +0.149 HD
ENDROOT
BRANCH  12   7
ATOM      3  O   UNL     1      -0.239   0.566  26.129  0.00  0.00    -0.253 OA
ATOM      7  N   UNL     1       0.082   1.959  24.312  0.00  0.00    -0.295 N 
ATOM      9  N   UNL     1       0.884   2.615  26.362  0.00  0.00    -0.269 N 
ATOM     19  C   UNL     1       0.204   1.613  25.663  0.00  0.00    +0.304 C 
ATOM     30  H   UNL     1       0.407   2.875  24.019  0.00  0.00    +0.151 HD
ATOM     31  H   UNL     1       1.192   3.428  25.834  0.00  0.00    +0.156 HD
BRANCH   9  23
ATOM      1  S   UNL     1       0.977   2.545  30.294  0.00  0.00    -0.103 S 
ATOM     23  C   UNL     1       1.209   2.645  27.738  0.00  0.00    +0.042 A 
ATOM     26  C   UNL     1       2.514   2.873  28.263  0.00  0.00    +0.031 A 
ATOM     27  C   UNL     1       0.277   2.451  28.735  0.00  0.00    +0.068 A 
ATOM     28  C   UNL     1       2.530   2.846  29.639  0.00  0.00    +0.047 A 
ENDBRANCH   9  23
ENDBRANCH  12   7
BRANCH  11  16
ATOM     16  C   UNL     1      -4.924   1.338  24.186  0.00  0.00    +0.029 C 
BRANCH  16  18
ATOM     18  C   UNL     1      -4.312   2.226  25.264  0.00  0.00    +0.097 C 
BRANCH  18  20
ATOM      4  O   UNL     1      -4.064   3.909  23.574  0.00  0.00    -0.276 OA
ATOM      8  N   UNL     1      -2.783   4.168  25.491  0.00  0.00    -0.302 N 
ATOM     20  C   UNL     1      -3.719   3.506  24.687  0.00  0.00    +0.216 C 
BRANCH   8  21
ATOM     21  C   UNL     1      -2.344   3.730  26.814  0.00  0.00    +0.104 C 
ATOM     24  C   UNL     1      -3.283   4.215  27.897  0.00  0.00    +0.024 C 
ENDBRANCH   8  21
BRANCH   8  22
ATOM     22  C   UNL     1      -2.163   5.395  25.007  0.00  0.00    +0.104 C 
ATOM     25  C   UNL     1      -0.695   5.190  24.695  0.00  0.00    +0.024 C 
ENDBRANCH   8  22
ENDBRANCH  18  20
ENDBRANCH  16  18
ENDBRANCH  11  16
TORSDOF 7
ENDMDL
MODEL 4
REMARK VINA RESULT:       3.0      1.988      4.777
REMARK  Name = 26763048
REMARK  9 active torsions:
REMARK  status: ('A' for Active; 'I' for Inactive)
REMARK    1  A    between atoms: N_7  and  C_12
REMARK    2  A    between atoms: N_8  and  C_21
REMARK    3  A    between atoms: N_8  and  C_22
REMARK    4  A    between atoms: N_9  and  C_23
REMARK    5  A    between atoms: C_11  and  C_16
REMARK    6  A    between atoms: C_16  and  C_18
REMARK    7  A    between atoms: C_18  and  C_20
REMARK    8  A    between atoms: C_21  and  C_24
REMARK    9  A    between atoms: C_22  and  C_25
REMARK                            x       y       z     vdW  Elec       q    Type
REMARK                         _______ _______ _______ _____ _____    ______ ____
ROOT
ATOM      2  O   UNL     1      -2.423   6.215  23.482  0.00  0.00    -0.274 OA
ATOM      5  N   UNL     1      -2.992   3.158  25.167  0.00  0.00    -0.285 NA
ATOM      6  N   UNL     1      -4.131   4.704  23.221  0.00  0.00    -0.313 N 
ATOM     10  C   UNL     1      -2.759   4.604  25.234  0.00  0.00    +0.145 C 
ATOM     11  C   UNL     1      -4.412   2.888  24.936  0.00  0.00    +0.075 C 
ATOM     12  C   UNL     1      -1.119   3.420  26.544  0.00  0.00    +0.090 C 
ATOM     13  C   UNL     1      -1.311   4.682  25.695  0.00  0.00    +0.052 C 
ATOM     14  C   UNL     1      -2.431   2.641  26.415  0.00  0.00    +0.107 C 
ATOM     15  C   UNL     1      -4.743   3.422  23.535  0.00  0.00    +0.123 C 
ATOM     17  C   UNL     1      -3.045   5.234  23.890  0.00  0.00    +0.230 C 
ATOM     29  H   UNL     1      -4.404   5.148  22.349  0.00  0.00    +0.149 HD
ENDROOT
BRANCH  12   7
ATOM      3  O   UNL     1      -0.711   2.393  23.901  0.00  0.00    -0.253 OA
ATOM      7  N   UNL     1       0.010   2.650  26.083  0.00  0.00    -0.295 N 
ATOM      9  N   UNL     1       1.326   1.470  24.616  0.00  0.00    -0.269 N 
ATOM     19  C   UNL     1       0.134   2.183  24.769  0.00  0.00    +0.304 C 
ATOM     30  H   UNL     1       0.713   2.371  26.760  0.00  0.00    +0.151 HD
ATOM     31  H   UNL     1       1.927   1.382  25.431  0.00  0.00    +0.156 HD
BRANCH   9  23
ATOM      1  S   UNL     1       3.403   0.115  21.561  0.00  0.00    -0.103 S 
ATOM     23  C   UNL     1       1.818   0.842  23.448  0.00  0.00    +0.042 A 
ATOM     26  C   UNL     1       1.059  -0.019  22.604  0.00  0.00    +0.031 A 
ATOM     27  C   UNL     1       3.111   1.003  22.996  0.00  0.00    +0.068 A 
ATOM     28  C   UNL     1       1.799  -0.485  21.540  0.00  0.00    +0.047 A 
ENDBRANCH   9  23
ENDBRANCH  12   7
BRANCH  11  16
ATOM     16  C   UNL     1      -4.760   1.400  25.013  0.00  0.00    +0.029 C 
BRANCH  16  18
ATOM     18  C   UNL     1      -3.923   0.587  24.030  0.00  0.00    +0.097 C 
BRANCH  18  20
ATOM      4  O   UNL     1      -4.969  -1.554  23.764  0.00  0.00    -0.276 OA
ATOM      8  N   UNL     1      -3.065  -1.487  25.088  0.00  0.00    -0.302 N 
ATOM     20  C   UNL     1      -4.046  -0.912  24.272  0.00  0.00    +0.216 C 
BRANCH   8  21
ATOM     21  C   UNL     1      -1.955  -0.768  25.710  0.00  0.00    +0.104 C 
ATOM     24  C   UNL     1      -0.627  -1.424  25.398  0.00  0.00    +0.024 C 
ENDBRANCH   8  21
BRANCH   8  22
ATOM     22  C   UNL     1      -3.117  -2.915  25.375  0.00  0.00    +0.104 C 
ATOM     25  C   UNL     1      -3.052  -3.739  24.106  0.00  0.00    +0.024 C 
ENDBRANCH   8  22
ENDBRANCH  18  20
ENDBRANCH  16  18
ENDBRANCH  11  16
TORSDOF 7
ENDMDL
MODEL 5
REMARK VINA RESULT:       3.1      1.791      4.344
REMARK  Name = 26763048
REMARK  9 active torsions:
REMARK  status: ('A' for Active; 'I' for Inactive)
REMARK    1  A    between atoms: N_7  and  C_12
REMARK    2  A    between atoms: N_8  and  C_21
REMARK    3  A    between atoms: N_8  and  C_22
REMARK    4  A    between atoms: N_9  and  C_23
REMARK    5  A    between atoms: C_11  and  C_16
REMARK    6  A    between atoms: C_16  and  C_18
REMARK    7  A    between atoms: C_18  and  C_20
REMARK    8  A    between atoms: C_21  and  C_24
REMARK    9  A    between atoms: C_22  and  C_25
REMARK                            x       y       z     vdW  Elec       q    Type
REMARK                         _______ _______ _______ _____ _____    ______ ____
ROOT
ATOM      2  O   UNL     1      -4.476   5.363  23.418  0.00  0.00    -0.274 OA
ATOM      5  N   UNL     1      -3.108   2.576  25.110  0.00  0.00    -0.285 NA
ATOM      6  N   UNL     1      -5.496   3.414  24.075  0.00  0.00    -0.313 N 
ATOM     10  C   UNL     1      -3.352   4.021  25.063  0.00  0.00    +0.145 C 
ATOM     11  C   UNL     1      -4.279   1.888  25.658  0.00  0.00    +0.075 C 
ATOM     12  C   UNL     1      -0.997   3.564  25.300  0.00  0.00    +0.090 C 
ATOM     13  C   UNL     1      -1.982   4.572  24.695  0.00  0.00    +0.052 C 
ATOM     14  C   UNL     1      -1.866   2.440  25.870  0.00  0.00    +0.107 C 
ATOM     15  C   UNL     1      -5.419   2.079  24.648  0.00  0.00    +0.123 C 
ATOM     17  C   UNL     1      -4.457   4.326  24.079  0.00  0.00    +0.230 C 
ATOM     29  H   UNL     1      -6.295   3.620  23.483  0.00  0.00    +0.149 HD
ENDROOT
BRANCH  12   7
ATOM      3  O   UNL     1       1.067   1.617  25.687  0.00  0.00    -0.253 OA
ATOM      7  N   UNL     1      -0.074   3.077  24.304  0.00  0.00    -0.295 N 
ATOM      9  N   UNL     1       1.652   1.843  23.424  0.00  0.00    -0.269 N 
ATOM     19  C   UNL     1       0.910   2.120  24.576  0.00  0.00    +0.304 C 
ATOM     30  H   UNL     1      -0.092   3.500  23.381  0.00  0.00    +0.151 HD
ATOM     31  H   UNL     1       1.401   2.342  22.575  0.00  0.00    +0.156 HD
BRANCH   9  23
ATOM      1  S   UNL     1       4.079  -1.246  23.222  0.00  0.00    -0.103 S 
ATOM     23  C   UNL     1       2.730   0.939  23.282  0.00  0.00    +0.042 A 
ATOM     26  C   UNL     1       4.063   1.307  22.938  0.00  0.00    +0.031 A 
ATOM     27  C   UNL     1       2.599  -0.421  23.465  0.00  0.00    +0.068 A 
ATOM     28  C   UNL     1       4.900   0.215  22.871  0.00  0.00    +0.047 A 
ENDBRANCH   9  23
ENDBRANCH  12   7
BRANCH  11  16
ATOM     16  C   UNL     1      -4.043   0.393  25.887  0.00  0.00    +0.029 C 
BRANCH  16  18
ATOM     18  C   UNL     1      -4.314  -0.408  24.618  0.00  0.00    +0.097 C 
BRANCH  18  20
ATOM      4  O   UNL     1      -3.958  -2.779  24.681  0.00  0.00    -0.276 OA
ATOM      8  N   UNL     1      -2.091  -1.460  24.288  0.00  0.00    -0.302 N 
ATOM     20  C   UNL     1      -3.453  -1.663  24.535  0.00  0.00    +0.216 C 
BRANCH   8  21
ATOM     21  C   UNL     1      -1.448  -0.160  24.108  0.00  0.00    +0.104 C 
ATOM     24  C   UNL     1      -1.777   0.438  22.757  0.00  0.00    +0.024 C 
ENDBRANCH   8  21
BRANCH   8  22
ATOM     22  C   UNL     1      -1.198  -2.609  24.203  0.00  0.00    +0.104 C 
ATOM     25  C   UNL     1      -0.123  -2.558  25.269  0.00  0.00    +0.024 C 
ENDBRANCH   8  22
ENDBRANCH  18  20
ENDBRANCH  16  18
ENDBRANCH  11  16
TORSDOF 7
ENDMDL
MODEL 6
REMARK VINA RESULT:       4.3      1.903      3.336
REMARK  Name = 26763048
REMARK  9 active torsions:
REMARK  status: ('A' for Active; 'I' for Inactive)
REMARK    1  A    between atoms: N_7  and  C_12
REMARK    2  A    between atoms: N_8  and  C_21
REMARK    3  A    between atoms: N_8  and  C_22
REMARK    4  A    between atoms: N_9  and  C_23
REMARK    5  A    between atoms: C_11  and  C_16
REMARK    6  A    between atoms: C_16  and  C_18
REMARK    7  A    between atoms: C_18  and  C_20
REMARK    8  A    between atoms: C_21  and  C_24
REMARK    9  A    between atoms: C_22  and  C_25
REMARK                            x       y       z     vdW  Elec       q    Type
REMARK                         _______ _______ _______ _____ _____    ______ ____
ROOT
ATOM      2  O   UNL     1      -2.460  -2.645  24.413  0.00  0.00    -0.274 OA
ATOM      5  N   UNL     1      -0.668   0.401  24.553  0.00  0.00    -0.285 NA
ATOM      6  N   UNL     1      -2.776  -0.831  25.783  0.00  0.00    -0.313 N 
ATOM     10  C   UNL     1      -1.433  -0.571  23.765  0.00  0.00    +0.145 C 
ATOM     11  C   UNL     1      -1.580   1.313  25.246  0.00  0.00    +0.075 C 
ATOM     12  C   UNL     1       0.730  -0.191  22.774  0.00  0.00    +0.090 C 
ATOM     13  C   UNL     1      -0.347  -1.266  22.958  0.00  0.00    +0.052 C 
ATOM     14  C   UNL     1       0.246   1.012  23.588  0.00  0.00    +0.107 C 
ATOM     15  C   UNL     1      -2.353   0.473  26.271  0.00  0.00    +0.123 C 
ATOM     17  C   UNL     1      -2.229  -1.467  24.686  0.00  0.00    +0.230 C 
ATOM     29  H   UNL     1      -3.381  -1.379  26.387  0.00  0.00    +0.149 HD
ENDROOT
BRANCH  12   7
ATOM      3  O   UNL     1       3.257   1.097  22.378  0.00  0.00    -0.253 OA
ATOM      7  N   UNL     1       2.017  -0.661  23.224  0.00  0.00    -0.295 N 
ATOM      9  N   UNL     1       4.292  -0.662  23.538  0.00  0.00    -0.269 N 
ATOM     19  C   UNL     1       3.210   0.031  22.988  0.00  0.00    +0.304 C 
ATOM     30  H   UNL     1       2.070  -1.572  23.668  0.00  0.00    +0.151 HD
ATOM     31  H   UNL     1       4.093  -1.536  24.017  0.00  0.00    +0.156 HD
BRANCH   9  23
ATOM      1  S   UNL     1       8.184  -0.352  23.047  0.00  0.00    -0.103 S 
ATOM     23  C   UNL     1       5.659  -0.297  23.516  0.00  0.00    +0.042 A 
ATOM     26  C   UNL     1       6.197   0.881  24.111  0.00  0.00    +0.031 A 
ATOM     27  C   UNL     1       6.630  -1.058  22.903  0.00  0.00    +0.068 A 
ATOM     28  C   UNL     1       7.559   0.975  23.931  0.00  0.00    +0.047 A 
ENDBRANCH   9  23
ENDBRANCH  12   7
BRANCH  11  16
ATOM     16  C   UNL     1      -0.855   2.456  25.962  0.00  0.00    +0.029 C 
BRANCH  16  18
ATOM     18  C   UNL     1      -1.457   3.807  25.592  0.00  0.00    +0.097 C 
BRANCH  18  20
ATOM      4  O   UNL     1      -3.207   4.111  27.202  0.00  0.00    -0.276 OA
ATOM      8  N   UNL     1      -3.866   3.806  24.999  0.00  0.00    -0.302 N 
ATOM     20  C   UNL     1      -2.915   3.924  26.019  0.00  0.00    +0.216 C 
BRANCH   8  21
ATOM     21  C   UNL     1      -3.569   3.584  23.586  0.00  0.00    +0.104 C 
ATOM     24  C   UNL     1      -3.764   2.133  23.200  0.00  0.00    +0.024 C 
ENDBRANCH   8  21
BRANCH   8  22
ATOM     22  C   UNL     1      -5.284   3.897  25.327  0.00  0.00    +0.104 C 
ATOM     25  C   UNL     1      -5.814   2.587  25.869  0.00  0.00    +0.024 C 
ENDBRANCH   8  22
ENDBRANCH  18  20
ENDBRANCH  16  18
ENDBRANCH  11  16
TORSDOF 7
ENDMDL
