MODEL 1
REMARK VINA RESULT:      -5.4      0.000      0.000
REMARK  Name = 25390203
REMARK  10 active torsions:
REMARK  status: ('A' for Active; 'I' for Inactive)
REMARK    1  A    between atoms: O_3  and  C_9
REMARK    2  A    between atoms: O_4  and  C_11
REMARK    3  A    between atoms: N_7  and  C_14
REMARK    4  A    between atoms: N_8  and  C_16
REMARK    5  A    between atoms: N_8  and  C_18
REMARK    6  A    between atoms: C_10  and  C_13
REMARK    7  A    between atoms: C_12  and  C_14
REMARK    8  A    between atoms: C_13  and  C_15
REMARK    9  A    between atoms: C_16  and  C_19
REMARK   10  A    between atoms: C_17  and  C_20
REMARK                            x       y       z     vdW  Elec       q    Type
REMARK                         _______ _______ _______ _____ _____    ______ ____
ROOT
ATOM      2  O   UNL     1      -2.261   3.169  26.530  0.00  0.00    -0.366 OA
ATOM      9  C   UNL     1      -1.149   4.098  24.643  0.00  0.00    +0.175 C 
ATOM     10  C   UNL     1      -0.982   3.190  25.856  0.00  0.00    +0.159 C 
ATOM     11  C   UNL     1      -2.622   3.937  24.330  0.00  0.00    +0.176 C 
ATOM     12  C   UNL     1      -3.225   3.869  25.724  0.00  0.00    +0.167 C 
ENDROOT
BRANCH   9   3
ATOM      3  O   UNL     1      -0.874   5.438  25.051  0.00  0.00    -0.387 OA
ATOM     31  H   UNL     1      -1.722   5.846  25.299  0.00  0.00    +0.210 HD
ENDBRANCH   9   3
BRANCH  11   4
ATOM      4  O   UNL     1      -3.154   5.004  23.574  0.00  0.00    -0.387 OA
ATOM     32  H   UNL     1      -3.443   4.641  22.720  0.00  0.00    +0.210 HD
ENDBRANCH  11   4
BRANCH  10  13
ATOM     13  C   UNL     1      -0.629   1.756  25.483  0.00  0.00    +0.130 C 
BRANCH  13  15
ATOM      5  O   UNL     1       0.937   2.677  23.920  0.00  0.00    -0.276 OA
ATOM      8  N   UNL     1       0.461   0.418  23.698  0.00  0.00    -0.300 N 
ATOM     15  C   UNL     1       0.329   1.674  24.301  0.00  0.00    +0.218 C 
ATOM     18  C   UNL     1      -0.270  -0.754  24.166  0.00  0.00    +0.132 C 
BRANCH   8  16
ATOM     16  C   UNL     1       1.342   0.186  22.557  0.00  0.00    +0.142 C 
BRANCH  16  19
ATOM     19  C   UNL     1       2.770  -0.006  22.978  0.00  0.00    -0.030 A 
ATOM     21  C   UNL     1       3.686   1.036  22.839  0.00  0.00    +0.005 A 
ATOM     22  C   UNL     1       3.181  -1.230  23.509  0.00  0.00    +0.005 A 
ATOM     25  C   UNL     1       5.012   0.857  23.231  0.00  0.00    +0.000 A 
ATOM     26  C   UNL     1       4.507  -1.409  23.901  0.00  0.00    +0.000 A 
ATOM     29  C   UNL     1       5.423  -0.366  23.763  0.00  0.00    +0.000 A 
ENDBRANCH  16  19
ENDBRANCH   8  16
ENDBRANCH  13  15
ENDBRANCH  10  13
BRANCH  12  14
ATOM     14  C   UNL     1      -4.556   3.140  25.770  0.00  0.00    +0.138 C 
BRANCH  14   7
ATOM      6  O   UNL     1      -3.773   1.570  23.497  0.00  0.00    -0.270 OA
ATOM      7  N   UNL     1      -4.370   1.720  25.734  0.00  0.00    -0.309 N 
ATOM     17  C   UNL     1      -3.987   1.037  24.582  0.00  0.00    +0.244 C 
ATOM     33  H   UNL     1      -4.478   1.223  26.611  0.00  0.00    +0.149 HD
BRANCH  17  20
ATOM      1  F   UNL     1      -4.689  -3.442  22.824  0.00  0.00    -0.205 F 
ATOM     20  C   UNL     1      -3.863  -0.438  24.703  0.00  0.00    +0.039 A 
ATOM     23  C   UNL     1      -4.344  -1.264  23.688  0.00  0.00    +0.051 A 
ATOM     24  C   UNL     1      -3.266  -0.998  25.833  0.00  0.00    +0.013 A 
ATOM     27  C   UNL     1      -4.228  -2.649  23.801  0.00  0.00    +0.124 A 
ATOM     28  C   UNL     1      -3.150  -2.383  25.946  0.00  0.00    +0.004 A 
ATOM     30  C   UNL     1      -3.631  -3.209  24.930  0.00  0.00    +0.038 A 
ENDBRANCH  17  20
ENDBRANCH  14   7
ENDBRANCH  12  14
TORSDOF 9
ENDMDL
MODEL 2
REMARK VINA RESULT:      -5.3      2.272      6.213
REMARK  Name = 25390203
REMARK  10 active torsions:
REMARK  status: ('A' for Active; 'I' for Inactive)
REMARK    1  A    between atoms: O_3  and  C_9
REMARK    2  A    between atoms: O_4  and  C_11
REMARK    3  A    between atoms: N_7  and  C_14
REMARK    4  A    between atoms: N_8  and  C_16
REMARK    5  A    between atoms: N_8  and  C_18
REMARK    6  A    between atoms: C_10  and  C_13
REMARK    7  A    between atoms: C_12  and  C_14
REMARK    8  A    between atoms: C_13  and  C_15
REMARK    9  A    between atoms: C_16  and  C_19
REMARK   10  A    between atoms: C_17  and  C_20
REMARK                            x       y       z     vdW  Elec       q    Type
REMARK                         _______ _______ _______ _____ _____    ______ ____
ROOT
ATOM      2  O   UNL     1      -2.028   3.157  23.275  0.00  0.00    -0.366 OA
ATOM      9  C   UNL     1      -2.249   4.118  25.440  0.00  0.00    +0.175 C 
ATOM     10  C   UNL     1      -2.915   3.971  24.076  0.00  0.00    +0.159 C 
ATOM     11  C   UNL     1      -1.444   2.838  25.537  0.00  0.00    +0.176 C 
ATOM     12  C   UNL     1      -0.958   2.674  24.107  0.00  0.00    +0.167 C 
ENDROOT
BRANCH   9   3
ATOM      3  O   UNL     1      -1.378   5.247  25.388  0.00  0.00    -0.387 OA
ATOM     31  H   UNL     1      -1.388   5.581  24.475  0.00  0.00    +0.210 HD
ENDBRANCH   9   3
BRANCH  11   4
ATOM      4  O   UNL     1      -0.374   2.918  26.455  0.00  0.00    -0.387 OA
ATOM     32  H   UNL     1      -0.248   3.857  26.674  0.00  0.00    +0.210 HD
ENDBRANCH  11   4
BRANCH  10  13
ATOM     13  C   UNL     1      -4.262   3.263  24.144  0.00  0.00    +0.130 C 
BRANCH  13  15
ATOM      5  O   UNL     1      -3.494   1.320  22.970  0.00  0.00    -0.276 OA
ATOM      8  N   UNL     1      -4.823   0.946  24.834  0.00  0.00    -0.300 N 
ATOM     15  C   UNL     1      -4.149   1.761  23.918  0.00  0.00    +0.218 C 
ATOM     18  C   UNL     1      -5.593   1.490  25.946  0.00  0.00    +0.132 C 
BRANCH   8  16
ATOM     16  C   UNL     1      -4.806  -0.512  24.745  0.00  0.00    +0.142 C 
BRANCH  16  19
ATOM     19  C   UNL     1      -3.429  -1.072  24.952  0.00  0.00    -0.030 A 
ATOM     21  C   UNL     1      -2.966  -2.105  24.138  0.00  0.00    +0.005 A 
ATOM     22  C   UNL     1      -2.611  -0.557  25.960  0.00  0.00    +0.005 A 
ATOM     25  C   UNL     1      -1.686  -2.625  24.330  0.00  0.00    +0.000 A 
ATOM     26  C   UNL     1      -1.332  -1.077  26.151  0.00  0.00    +0.000 A 
ATOM     29  C   UNL     1      -0.868  -2.110  25.338  0.00  0.00    +0.000 A 
ENDBRANCH  16  19
ENDBRANCH   8  16
ENDBRANCH  13  15
ENDBRANCH  10  13
BRANCH  12  14
ATOM     14  C   UNL     1      -0.635   1.237  23.741  0.00  0.00    +0.138 C 
BRANCH  14   7
ATOM      6  O   UNL     1       0.931  -0.345  21.927  0.00  0.00    -0.270 OA
ATOM      7  N   UNL     1       0.774   0.986  23.821  0.00  0.00    -0.309 N 
ATOM     17  C   UNL     1       1.455   0.203  22.894  0.00  0.00    +0.244 C 
ATOM     33  H   UNL     1       1.279   1.454  24.566  0.00  0.00    +0.149 HD
BRANCH  17  20
ATOM      1  F   UNL     1       5.225  -2.580  24.192  0.00  0.00    -0.205 F 
ATOM     20  C   UNL     1       2.910   0.018  23.132  0.00  0.00    +0.039 A 
ATOM     23  C   UNL     1       3.395  -1.218  23.559  0.00  0.00    +0.051 A 
ATOM     24  C   UNL     1       3.791   1.081  22.930  0.00  0.00    +0.013 A 
ATOM     27  C   UNL     1       4.760  -1.392  23.783  0.00  0.00    +0.124 A 
ATOM     28  C   UNL     1       5.156   0.906  23.154  0.00  0.00    +0.004 A 
ATOM     30  C   UNL     1       5.641  -0.330  23.581  0.00  0.00    +0.038 A 
ENDBRANCH  17  20
ENDBRANCH  14   7
ENDBRANCH  12  14
TORSDOF 9
ENDMDL
MODEL 3
REMARK VINA RESULT:      -4.4      2.596      7.062
REMARK  Name = 25390203
REMARK  10 active torsions:
REMARK  status: ('A' for Active; 'I' for Inactive)
REMARK    1  A    between atoms: O_3  and  C_9
REMARK    2  A    between atoms: O_4  and  C_11
REMARK    3  A    between atoms: N_7  and  C_14
REMARK    4  A    between atoms: N_8  and  C_16
REMARK    5  A    between atoms: N_8  and  C_18
REMARK    6  A    between atoms: C_10  and  C_13
REMARK    7  A    between atoms: C_12  and  C_14
REMARK    8  A    between atoms: C_13  and  C_15
REMARK    9  A    between atoms: C_16  and  C_19
REMARK   10  A    between atoms: C_17  and  C_20
REMARK                            x       y       z     vdW  Elec       q    Type
REMARK                         _______ _______ _______ _____ _____    ______ ____
ROOT
ATOM      2  O   UNL     1      -2.482  -0.042  25.457  0.00  0.00    -0.366 OA
ATOM      9  C   UNL     1      -3.335  -2.213  24.988  0.00  0.00    +0.175 C 
ATOM     10  C   UNL     1      -3.665  -0.860  25.609  0.00  0.00    +0.159 C 
ATOM     11  C   UNL     1      -2.313  -1.835  23.935  0.00  0.00    +0.176 C 
ATOM     12  C   UNL     1      -1.525  -0.751  24.651  0.00  0.00    +0.167 C 
ENDROOT
BRANCH   9   3
ATOM      3  O   UNL     1      -2.732  -3.027  25.993  0.00  0.00    -0.387 OA
ATOM     31  H   UNL     1      -2.237  -3.730  25.539  0.00  0.00    +0.210 HD
ENDBRANCH   9   3
BRANCH  11   4
ATOM      4  O   UNL     1      -1.492  -2.914  23.540  0.00  0.00    -0.387 OA
ATOM     32  H   UNL     1      -1.795  -3.205  22.663  0.00  0.00    +0.210 HD
ENDBRANCH  11   4
BRANCH  10  13
ATOM     13  C   UNL     1      -4.816  -0.148  24.910  0.00  0.00    +0.130 C 
BRANCH  13  15
ATOM      5  O   UNL     1      -3.811   1.487  23.475  0.00  0.00    -0.276 OA
ATOM      8  N   UNL     1      -4.923   2.294  25.344  0.00  0.00    -0.300 N 
ATOM     15  C   UNL     1      -4.465   1.276  24.500  0.00  0.00    +0.218 C 
ATOM     18  C   UNL     1      -5.694   2.019  26.551  0.00  0.00    +0.132 C 
BRANCH   8  16
ATOM     16  C   UNL     1      -4.664   3.706  25.079  0.00  0.00    +0.142 C 
BRANCH  16  19
ATOM     19  C   UNL     1      -3.197   4.025  25.112  0.00  0.00    -0.030 A 
ATOM     21  C   UNL     1      -2.731   5.223  24.572  0.00  0.00    +0.005 A 
ATOM     22  C   UNL     1      -2.300   3.121  25.683  0.00  0.00    +0.005 A 
ATOM     25  C   UNL     1      -1.368   5.519  24.603  0.00  0.00    +0.000 A 
ATOM     26  C   UNL     1      -0.938   3.417  25.714  0.00  0.00    +0.000 A 
ATOM     29  C   UNL     1      -0.471   4.615  25.174  0.00  0.00    +0.000 A 
ENDBRANCH  16  19
ENDBRANCH   8  16
ENDBRANCH  13  15
ENDBRANCH  10  13
BRANCH  12  14
ATOM     14  C   UNL     1      -0.836   0.217  23.705  0.00  0.00    +0.138 C 
BRANCH  14   7
ATOM      6  O   UNL     1       1.078  -0.276  21.623  0.00  0.00    -0.270 OA
ATOM      7  N   UNL     1       0.588   0.156  23.849  0.00  0.00    -0.309 N 
ATOM     17  C   UNL     1       1.445  -0.089  22.780  0.00  0.00    +0.244 C 
ATOM     33  H   UNL     1       0.963   0.356  24.770  0.00  0.00    +0.149 HD
BRANCH  17  20
ATOM      1  F   UNL     1       5.367  -2.538  24.284  0.00  0.00    -0.205 F 
ATOM     20  C   UNL     1       2.895  -0.147  23.099  0.00  0.00    +0.039 A 
ATOM     23  C   UNL     1       3.462  -1.338  23.551  0.00  0.00    +0.051 A 
ATOM     24  C   UNL     1       3.689   0.990  22.947  0.00  0.00    +0.013 A 
ATOM     27  C   UNL     1       4.823  -1.393  23.851  0.00  0.00    +0.124 A 
ATOM     28  C   UNL     1       5.050   0.935  23.247  0.00  0.00    +0.004 A 
ATOM     30  C   UNL     1       5.617  -0.256  23.700  0.00  0.00    +0.038 A 
ENDBRANCH  17  20
ENDBRANCH  14   7
ENDBRANCH  12  14
TORSDOF 9
ENDMDL
MODEL 4
REMARK VINA RESULT:      -4.1      2.611      6.810
REMARK  Name = 25390203
REMARK  10 active torsions:
REMARK  status: ('A' for Active; 'I' for Inactive)
REMARK    1  A    between atoms: O_3  and  C_9
REMARK    2  A    between atoms: O_4  and  C_11
REMARK    3  A    between atoms: N_7  and  C_14
REMARK    4  A    between atoms: N_8  and  C_16
REMARK    5  A    between atoms: N_8  and  C_18
REMARK    6  A    between atoms: C_10  and  C_13
REMARK    7  A    between atoms: C_12  and  C_14
REMARK    8  A    between atoms: C_13  and  C_15
REMARK    9  A    between atoms: C_16  and  C_19
REMARK   10  A    between atoms: C_17  and  C_20
REMARK                            x       y       z     vdW  Elec       q    Type
REMARK                         _______ _______ _______ _____ _____    ______ ____
ROOT
ATOM      2  O   UNL     1      -0.797   4.081  24.419  0.00  0.00    -0.366 OA
ATOM      9  C   UNL     1      -1.887   3.020  26.249  0.00  0.00    +0.175 C 
ATOM     10  C   UNL     1      -1.959   4.189  25.273  0.00  0.00    +0.159 C 
ATOM     11  C   UNL     1      -1.133   1.983  25.442  0.00  0.00    +0.176 C 
ATOM     12  C   UNL     1      -0.119   2.845  24.708  0.00  0.00    +0.167 C 
ENDROOT
BRANCH   9   3
ATOM      3  O   UNL     1      -1.112   3.430  27.375  0.00  0.00    -0.387 OA
ATOM     31  H   UNL     1      -0.330   3.899  27.035  0.00  0.00    +0.210 HD
ENDBRANCH   9   3
BRANCH  11   4
ATOM      4  O   UNL     1      -0.511   0.997  26.240  0.00  0.00    -0.387 OA
ATOM     32  H   UNL     1      -1.187   0.639  26.840  0.00  0.00    +0.210 HD
ENDBRANCH  11   4
BRANCH  10  13
ATOM     13  C   UNL     1      -3.195   4.148  24.384  0.00  0.00    +0.130 C 
BRANCH  13  15
ATOM      5  O   UNL     1      -4.985   3.354  25.766  0.00  0.00    -0.276 OA
ATOM      8  N   UNL     1      -4.201   1.891  24.144  0.00  0.00    -0.300 N 
ATOM     15  C   UNL     1      -4.211   3.107  24.837  0.00  0.00    +0.218 C 
ATOM     18  C   UNL     1      -3.276   1.623  23.050  0.00  0.00    +0.132 C 
BRANCH   8  16
ATOM     16  C   UNL     1      -5.117   0.800  24.466  0.00  0.00    +0.142 C 
BRANCH  16  19
ATOM     19  C   UNL     1      -4.393  -0.496  24.686  0.00  0.00    -0.030 A 
ATOM     21  C   UNL     1      -4.488  -1.518  23.742  0.00  0.00    +0.005 A 
ATOM     22  C   UNL     1      -3.623  -0.677  25.836  0.00  0.00    +0.005 A 
ATOM     25  C   UNL     1      -3.814  -2.722  23.946  0.00  0.00    +0.000 A 
ATOM     26  C   UNL     1      -2.949  -1.881  26.040  0.00  0.00    +0.000 A 
ATOM     29  C   UNL     1      -3.044  -2.904  25.096  0.00  0.00    +0.000 A 
ENDBRANCH  16  19
ENDBRANCH   8  16
ENDBRANCH  13  15
ENDBRANCH  10  13
BRANCH  12  14
ATOM     14  C   UNL     1       0.379   2.221  23.417  0.00  0.00    +0.138 C 
BRANCH  14   7
ATOM      6  O   UNL     1       1.309  -0.138  22.070  0.00  0.00    -0.270 OA
ATOM      7  N   UNL     1       1.638   1.565  23.611  0.00  0.00    -0.309 N 
ATOM     17  C   UNL     1       2.009   0.420  22.912  0.00  0.00    +0.244 C 
ATOM     33  H   UNL     1       2.288   2.005  24.254  0.00  0.00    +0.149 HD
BRANCH  17  20
ATOM      1  F   UNL     1       6.823   0.870  23.428  0.00  0.00    -0.205 F 
ATOM     20  C   UNL     1       3.337  -0.155  23.247  0.00  0.00    +0.039 A 
ATOM     23  C   UNL     1       4.479   0.642  23.178  0.00  0.00    +0.051 A 
ATOM     24  C   UNL     1       3.442  -1.492  23.631  0.00  0.00    +0.013 A 
ATOM     27  C   UNL     1       5.726   0.103  23.493  0.00  0.00    +0.124 A 
ATOM     28  C   UNL     1       4.689  -2.031  23.946  0.00  0.00    +0.004 A 
ATOM     30  C   UNL     1       5.831  -1.234  23.876  0.00  0.00    +0.038 A 
ENDBRANCH  17  20
ENDBRANCH  14   7
ENDBRANCH  12  14
TORSDOF 9
ENDMDL
MODEL 5
REMARK VINA RESULT:      -2.5      3.100      5.670
REMARK  Name = 25390203
REMARK  10 active torsions:
REMARK  status: ('A' for Active; 'I' for Inactive)
REMARK    1  A    between atoms: O_3  and  C_9
REMARK    2  A    between atoms: O_4  and  C_11
REMARK    3  A    between atoms: N_7  and  C_14
REMARK    4  A    between atoms: N_8  and  C_16
REMARK    5  A    between atoms: N_8  and  C_18
REMARK    6  A    between atoms: C_10  and  C_13
REMARK    7  A    between atoms: C_12  and  C_14
REMARK    8  A    between atoms: C_13  and  C_15
REMARK    9  A    between atoms: C_16  and  C_19
REMARK   10  A    between atoms: C_17  and  C_20
REMARK                            x       y       z     vdW  Elec       q    Type
REMARK                         _______ _______ _______ _____ _____    ______ ____
ROOT
ATOM      2  O   UNL     1      -1.342  -2.537  23.501  0.00  0.00    -0.366 OA
ATOM      9  C   UNL     1      -0.131  -1.337  25.160  0.00  0.00    +0.175 C 
ATOM     10  C   UNL     1      -0.078  -1.876  23.735  0.00  0.00    +0.159 C 
ATOM     11  C   UNL     1      -1.615  -1.103  25.353  0.00  0.00    +0.176 C 
ATOM     12  C   UNL     1      -2.209  -2.297  24.624  0.00  0.00    +0.167 C 
ENDROOT
BRANCH   9   3
ATOM      3  O   UNL     1       0.327  -2.363  26.039  0.00  0.00    -0.387 OA
ATOM     31  H   UNL     1      -0.388  -3.019  26.118  0.00  0.00    +0.210 HD
ENDBRANCH   9   3
BRANCH  11   4
ATOM      4  O   UNL     1      -2.003  -1.064  26.710  0.00  0.00    -0.387 OA
ATOM     32  H   UNL     1      -1.221  -1.286  27.244  0.00  0.00    +0.210 HD
ENDBRANCH  11   4
BRANCH  10  13
ATOM     13  C   UNL     1       0.074  -0.780  22.688  0.00  0.00    +0.130 C 
BRANCH  13  15
ATOM      5  O   UNL     1       1.979   0.472  23.428  0.00  0.00    -0.276 OA
ATOM      8  N   UNL     1      -0.066   1.564  23.495  0.00  0.00    -0.300 N 
ATOM     15  C   UNL     1       0.760   0.465  23.235  0.00  0.00    +0.218 C 
ATOM     18  C   UNL     1      -1.505   1.531  23.260  0.00  0.00    +0.132 C 
BRANCH   8  16
ATOM     16  C   UNL     1       0.449   2.825  24.020  0.00  0.00    +0.142 C 
BRANCH  16  19
ATOM     19  C   UNL     1      -0.590   3.574  24.803  0.00  0.00    -0.030 A 
ATOM     21  C   UNL     1      -0.910   4.887  24.460  0.00  0.00    +0.005 A 
ATOM     22  C   UNL     1      -1.235   2.956  25.876  0.00  0.00    +0.005 A 
ATOM     25  C   UNL     1      -1.875   5.583  25.187  0.00  0.00    +0.000 A 
ATOM     26  C   UNL     1      -2.200   3.652  26.603  0.00  0.00    +0.000 A 
ATOM     29  C   UNL     1      -2.520   4.965  26.260  0.00  0.00    +0.000 A 
ENDBRANCH  16  19
ENDBRANCH   8  16
ENDBRANCH  13  15
ENDBRANCH  10  13
BRANCH  12  14
ATOM     14  C   UNL     1      -3.626  -2.059  24.134  0.00  0.00    +0.138 C 
BRANCH  14   7
ATOM      6  O   UNL     1      -4.697  -0.528  26.314  0.00  0.00    -0.270 OA
ATOM      7  N   UNL     1      -3.943  -0.661  24.124  0.00  0.00    -0.309 N 
ATOM     17  C   UNL     1      -4.461   0.003  25.232  0.00  0.00    +0.244 C 
ATOM     33  H   UNL     1      -3.721  -0.149  23.277  0.00  0.00    +0.149 HD
BRANCH  17  20
ATOM      1  F   UNL     1      -3.943   4.175  22.788  0.00  0.00    -0.205 F 
ATOM     20  C   UNL     1      -4.760   1.447  25.052  0.00  0.00    +0.039 A 
ATOM     23  C   UNL     1      -4.200   2.148  23.984  0.00  0.00    +0.051 A 
ATOM     24  C   UNL     1      -5.601   2.103  25.951  0.00  0.00    +0.013 A 
ATOM     27  C   UNL     1      -4.481   3.503  23.815  0.00  0.00    +0.124 A 
ATOM     28  C   UNL     1      -5.882   3.459  25.782  0.00  0.00    +0.004 A 
ATOM     30  C   UNL     1      -5.321   4.159  24.714  0.00  0.00    +0.038 A 
ENDBRANCH  17  20
ENDBRANCH  14   7
ENDBRANCH  12  14
TORSDOF 9
ENDMDL
MODEL 6
REMARK VINA RESULT:      -2.1      2.718      4.753
REMARK  Name = 25390203
REMARK  10 active torsions:
REMARK  status: ('A' for Active; 'I' for Inactive)
REMARK    1  A    between atoms: O_3  and  C_9
REMARK    2  A    between atoms: O_4  and  C_11
REMARK    3  A    between atoms: N_7  and  C_14
REMARK    4  A    between atoms: N_8  and  C_16
REMARK    5  A    between atoms: N_8  and  C_18
REMARK    6  A    between atoms: C_10  and  C_13
REMARK    7  A    between atoms: C_12  and  C_14
REMARK    8  A    between atoms: C_13  and  C_15
REMARK    9  A    between atoms: C_16  and  C_19
REMARK   10  A    between atoms: C_17  and  C_20
REMARK                            x       y       z     vdW  Elec       q    Type
REMARK                         _______ _______ _______ _____ _____    ______ ____
ROOT
ATOM      2  O   UNL     1      -1.836  -2.218  23.882  0.00  0.00    -0.366 OA
ATOM      9  C   UNL     1      -0.145  -1.291  25.274  0.00  0.00    +0.175 C 
ATOM     10  C   UNL     1      -0.502  -1.662  23.839  0.00  0.00    +0.159 C 
ATOM     11  C   UNL     1      -1.505  -0.998  25.872  0.00  0.00    +0.176 C 
ATOM     12  C   UNL     1      -2.365  -2.063  25.210  0.00  0.00    +0.167 C 
ENDROOT
BRANCH   9   3
ATOM      3  O   UNL     1       0.433  -2.438  25.897  0.00  0.00    -0.387 OA
ATOM     31  H   UNL     1       0.651  -3.072  25.192  0.00  0.00    +0.210 HD
ENDBRANCH   9   3
BRANCH  11   4
ATOM      4  O   UNL     1      -1.530  -1.096  27.280  0.00  0.00    -0.387 OA
ATOM     32  H   UNL     1      -0.632  -1.327  27.573  0.00  0.00    +0.210 HD
ENDBRANCH  11   4
BRANCH  10  13
ATOM     13  C   UNL     1      -0.530  -0.461  22.903  0.00  0.00    +0.130 C 
BRANCH  13  15
ATOM      5  O   UNL     1       1.324  -0.666  21.398  0.00  0.00    -0.276 OA
ATOM      8  N   UNL     1       1.526   0.919  23.079  0.00  0.00    -0.300 N 
ATOM     15  C   UNL     1       0.852  -0.089  22.381  0.00  0.00    +0.218 C 
ATOM     18  C   UNL     1       0.949   1.586  24.240  0.00  0.00    +0.132 C 
BRANCH   8  16
ATOM     16  C   UNL     1       2.858   1.381  22.695  0.00  0.00    +0.142 C 
BRANCH  16  19
ATOM     19  C   UNL     1       3.938   0.477  23.214  0.00  0.00    -0.030 A 
ATOM     21  C   UNL     1       3.668  -0.873  23.441  0.00  0.00    +0.005 A 
ATOM     22  C   UNL     1       5.212   0.987  23.469  0.00  0.00    +0.005 A 
ATOM     25  C   UNL     1       4.671  -1.713  23.922  0.00  0.00    +0.000 A 
ATOM     26  C   UNL     1       6.215   0.146  23.951  0.00  0.00    +0.000 A 
ATOM     29  C   UNL     1       5.945  -1.203  24.178  0.00  0.00    +0.000 A 
ENDBRANCH  16  19
ENDBRANCH   8  16
ENDBRANCH  13  15
ENDBRANCH  10  13
BRANCH  12  14
ATOM     14  C   UNL     1      -3.835  -1.689  25.136  0.00  0.00    +0.138 C 
BRANCH  14   7
ATOM      6  O   UNL     1      -3.594   0.483  23.274  0.00  0.00    -0.270 OA
ATOM      7  N   UNL     1      -4.030  -0.297  25.415  0.00  0.00    -0.309 N 
ATOM     17  C   UNL     1      -3.892   0.694  24.447  0.00  0.00    +0.244 C 
ATOM     33  H   UNL     1      -4.331  -0.058  26.354  0.00  0.00    +0.149 HD
BRANCH  17  20
ATOM      1  F   UNL     1      -2.150   5.048  25.733  0.00  0.00    -0.205 F 
ATOM     20  C   UNL     1      -4.102   2.092  24.903  0.00  0.00    +0.039 A 
ATOM     23  C   UNL     1      -3.006   2.930  25.109  0.00  0.00    +0.051 A 
ATOM     24  C   UNL     1      -5.394   2.566  25.127  0.00  0.00    +0.013 A 
ATOM     27  C   UNL     1      -3.203   4.243  25.537  0.00  0.00    +0.124 A 
ATOM     28  C   UNL     1      -5.591   3.879  25.555  0.00  0.00    +0.004 A 
ATOM     30  C   UNL     1      -4.496   4.717  25.761  0.00  0.00    +0.038 A 
ENDBRANCH  17  20
ENDBRANCH  14   7
ENDBRANCH  12  14
TORSDOF 9
ENDMDL
