MODEL 1
REMARK VINA RESULT:       2.1      0.000      0.000
REMARK  Name = 7682015
REMARK  5 active torsions:
REMARK  status: ('A' for Active; 'I' for Inactive)
REMARK    1  A    between atoms: N_7  and  C_16
REMARK    2  A    between atoms: N_9  and  C_29
REMARK    3  A    between atoms: C_12  and  C_17
REMARK    4  A    between atoms: C_20  and  C_24
REMARK    5  A    between atoms: C_22  and  C_25
REMARK                            x       y       z     vdW  Elec       q    Type
REMARK                         _______ _______ _______ _____ _____    ______ ____
ROOT
ATOM      2  O   UNL     1      -2.148  -1.273  26.983  0.00  0.00    -0.268 OA
ATOM      4  O   UNL     1       2.031   0.199  21.385  0.00  0.00    -0.268 OA
ATOM      5  N   UNL     1       0.975  -0.313  23.412  0.00  0.00    -0.282 N 
ATOM      6  N   UNL     1      -1.338  -1.202  24.817  0.00  0.00    -0.293 N 
ATOM     12  C   UNL     1      -0.357   0.048  22.913  0.00  0.00    +0.179 C 
ATOM     13  C   UNL     1      -1.466  -0.892  23.386  0.00  0.00    +0.140 C 
ATOM     14  C   UNL     1       1.065  -0.712  24.828  0.00  0.00    +0.128 C 
ATOM     15  C   UNL     1      -0.024  -1.710  25.200  0.00  0.00    +0.127 C 
ATOM     20  C   UNL     1      -2.334  -1.020  25.792  0.00  0.00    +0.263 C 
ATOM     22  C   UNL     1       2.081  -0.133  22.569  0.00  0.00    +0.267 C 
ENDROOT
BRANCH  20  24
ATOM      9  N   UNL     1      -4.440  -1.133  24.440  0.00  0.00    -0.346 N 
ATOM     24  C   UNL     1      -3.622  -0.505  25.343  0.00  0.00    +0.104 A 
ATOM     26  C   UNL     1      -4.238   0.667  25.726  0.00  0.00    +0.032 A 
ATOM     27  C   UNL     1      -5.567  -0.380  24.240  0.00  0.00    +0.086 A 
ATOM     28  C   UNL     1      -5.469   0.746  25.028  0.00  0.00    +0.020 A 
ATOM     29  C   UNL     1      -4.170  -2.396  23.789  0.00  0.00    +0.149 C 
ENDBRANCH  20  24
BRANCH  22  25
ATOM     10  N   UNL     1       4.235   0.736  23.163  0.00  0.00    -0.247 NA
ATOM     11  N   UNL     1       5.057  -1.776  24.102  0.00  0.00    -0.259 NA
ATOM     25  C   UNL     1       3.424  -0.340  23.127  0.00  0.00    +0.144 A 
ATOM     30  C   UNL     1       3.828  -1.574  23.589  0.00  0.00    +0.143 A 
ATOM     31  C   UNL     1       5.465   0.533  23.677  0.00  0.00    +0.131 A 
ATOM     32  C   UNL     1       5.868  -0.701  24.138  0.00  0.00    +0.130 A 
ENDBRANCH  22  25
BRANCH  12  17
ATOM      1  O   UNL     1       0.322   2.234  23.598  0.00  0.00    -0.274 OA
ATOM      7  N   UNL     1      -1.951   1.744  23.481  0.00  0.00    -0.302 N 
ATOM     17  C   UNL     1      -0.602   1.461  23.359  0.00  0.00    +0.236 C 
ATOM     33  H   UNL     1      -2.630   1.026  23.246  0.00  0.00    +0.150 HD
BRANCH   7  16
ATOM      3  O   UNL     1      -1.315   2.589  26.001  0.00  0.00    -0.274 OA
ATOM      8  N   UNL     1      -3.191   3.889  26.103  0.00  0.00    -0.314 N 
ATOM     16  C   UNL     1      -2.451   3.022  23.915  0.00  0.00    +0.159 C 
ATOM     18  C   UNL     1      -3.880   3.239  23.436  0.00  0.00    +0.033 C 
ATOM     19  C   UNL     1      -4.439   4.510  24.053  0.00  0.00    +0.021 C 
ATOM     21  C   UNL     1      -4.452   4.364  25.564  0.00  0.00    +0.104 C 
ATOM     23  C   UNL     1      -2.277   3.105  25.428  0.00  0.00    +0.233 C 
ATOM     34  H   UNL     1      -3.051   3.998  27.102  0.00  0.00    +0.149 HD
ENDBRANCH   7  16
ENDBRANCH  12  17
TORSDOF 4
ENDMDL
