MODEL 1
REMARK VINA RESULT:      -3.7      0.000      0.000
REMARK  Name = 71693927
REMARK  7 active torsions:
REMARK  status: ('A' for Active; 'I' for Inactive)
REMARK    1  A    between atoms: O_4  and  C_10
REMARK    2  A    between atoms: O_5  and  C_12
REMARK    3  A    between atoms: N_7  and  C_9
REMARK    4  A    between atoms: C_8  and  C_13
REMARK    5  A    between atoms: C_14  and  C_18
REMARK    6  A    between atoms: C_16  and  C_21
REMARK    7  A    between atoms: C_26  and  C_27
REMARK                            x       y       z     vdW  Elec       q    Type
REMARK                         _______ _______ _______ _____ _____    ______ ____
ROOT
ATOM      8  C   UNL     1      -2.246  -0.149  25.481  0.00  0.00    +0.045 C 
ATOM      9  C   UNL     1      -1.643  -0.974  24.322  0.00  0.00    +0.112 C 
ATOM     10  C   UNL     1      -2.075  -2.405  24.641  0.00  0.00    +0.164 C 
ATOM     11  C   UNL     1      -3.426  -0.991  26.030  0.00  0.00    +0.044 C 
ATOM     12  C   UNL     1      -3.503  -2.232  25.141  0.00  0.00    +0.145 C 
ENDROOT
BRANCH   8  13
ATOM     13  C   UNL     1      -2.621   1.259  25.072  0.00  0.00    -0.039 A 
ATOM     14  C   UNL     1      -1.766   2.332  25.324  0.00  0.00    -0.047 A 
ATOM     15  C   UNL     1      -3.843   1.477  24.434  0.00  0.00    +0.004 A 
ATOM     17  C   UNL     1      -2.132   3.622  24.938  0.00  0.00    +0.003 A 
ATOM     18  C   UNL     1      -0.454   2.125  26.005  0.00  0.00    +0.044 C 
ATOM     19  C   UNL     1      -4.210   2.766  24.048  0.00  0.00    +0.000 A 
ATOM     20  C   UNL     1      -3.353   3.839  24.300  0.00  0.00    +0.000 A 
ENDBRANCH   8  13
BRANCH   9   7
ATOM      6  O   UNL     1      -0.133   0.374  22.285  0.00  0.00    -0.270 OA
ATOM      7  N   UNL     1      -0.209  -0.847  24.256  0.00  0.00    -0.305 N 
ATOM     16  C   UNL     1       0.435  -0.173  23.228  0.00  0.00    +0.244 C 
ATOM     28  H   UNL     1       0.326  -1.296  24.991  0.00  0.00    +0.149 HD
BRANCH  16  21
ATOM     21  C   UNL     1       1.919  -0.153  23.290  0.00  0.00    +0.037 A 
ATOM     22  C   UNL     1       2.615  -1.282  23.724  0.00  0.00    +0.013 A 
ATOM     23  C   UNL     1       2.617   0.995  22.917  0.00  0.00    +0.013 A 
ATOM     24  C   UNL     1       4.008  -1.263  23.783  0.00  0.00    +0.013 A 
ATOM     25  C   UNL     1       4.012   1.014  22.976  0.00  0.00    +0.013 A 
ATOM     26  C   UNL     1       4.706  -0.115  23.410  0.00  0.00    +0.055 A 
BRANCH  26  27
ATOM      1  F   UNL     1       6.715   1.140  23.741  0.00  0.00    -0.166 F 
ATOM      2  F   UNL     1       6.799  -0.491  22.314  0.00  0.00    -0.166 F 
ATOM      3  F   UNL     1       6.691  -0.919  24.443  0.00  0.00    -0.166 F 
ATOM     27  C   UNL     1       6.196  -0.095  23.474  0.00  0.00    +0.417 C 
ENDBRANCH  26  27
ENDBRANCH  16  21
ENDBRANCH   9   7
BRANCH  10   4
ATOM      4  O   UNL     1      -2.029  -3.245  23.504  0.00  0.00    -0.387 OA
ATOM     29  H   UNL     1      -2.928  -3.589  23.359  0.00  0.00    +0.210 HD
ENDBRANCH  10   4
BRANCH  12   5
ATOM      5  O   UNL     1      -4.393  -1.965  24.062  0.00  0.00    -0.389 OA
ATOM     30  H   UNL     1      -5.158  -2.558  24.159  0.00  0.00    +0.210 HD
ENDBRANCH  12   5
TORSDOF 6
ENDMDL
MODEL 2
REMARK VINA RESULT:      -1.6      0.357      1.613
REMARK  Name = 71693927
REMARK  7 active torsions:
REMARK  status: ('A' for Active; 'I' for Inactive)
REMARK    1  A    between atoms: O_4  and  C_10
REMARK    2  A    between atoms: O_5  and  C_12
REMARK    3  A    between atoms: N_7  and  C_9
REMARK    4  A    between atoms: C_8  and  C_13
REMARK    5  A    between atoms: C_14  and  C_18
REMARK    6  A    between atoms: C_16  and  C_21
REMARK    7  A    between atoms: C_26  and  C_27
REMARK                            x       y       z     vdW  Elec       q    Type
REMARK                         _______ _______ _______ _____ _____    ______ ____
ROOT
ATOM      8  C   UNL     1      -2.197  -0.190  25.489  0.00  0.00    +0.045 C 
ATOM      9  C   UNL     1      -1.592  -0.984  24.310  0.00  0.00    +0.112 C 
ATOM     10  C   UNL     1      -2.023  -2.423  24.591  0.00  0.00    +0.164 C 
ATOM     11  C   UNL     1      -3.379  -1.047  26.012  0.00  0.00    +0.044 C 
ATOM     12  C   UNL     1      -3.453  -2.264  25.091  0.00  0.00    +0.145 C 
ENDROOT
BRANCH   8  13
ATOM     13  C   UNL     1      -2.573   1.229  25.117  0.00  0.00    -0.039 A 
ATOM     14  C   UNL     1      -3.903   1.583  24.889  0.00  0.00    -0.047 A 
ATOM     15  C   UNL     1      -1.566   2.189  25.004  0.00  0.00    +0.004 A 
ATOM     17  C   UNL     1      -4.226   2.896  24.548  0.00  0.00    +0.003 A 
ATOM     18  C   UNL     1      -4.997   0.574  25.004  0.00  0.00    +0.044 C 
ATOM     19  C   UNL     1      -1.890   3.502  24.663  0.00  0.00    +0.000 A 
ATOM     20  C   UNL     1      -3.220   3.856  24.436  0.00  0.00    +0.000 A 
ENDBRANCH   8  13
BRANCH   9   7
ATOM      6  O   UNL     1      -0.066   0.268  22.224  0.00  0.00    -0.270 OA
ATOM      7  N   UNL     1      -0.157  -0.855  24.252  0.00  0.00    -0.305 N 
ATOM     16  C   UNL     1       0.495  -0.229  23.197  0.00  0.00    +0.244 C 
ATOM     28  H   UNL     1       0.373  -1.264  25.013  0.00  0.00    +0.149 HD
BRANCH  16  21
ATOM     21  C   UNL     1       1.978  -0.200  23.273  0.00  0.00    +0.037 A 
ATOM     22  C   UNL     1       2.676   0.938  22.871  0.00  0.00    +0.013 A 
ATOM     23  C   UNL     1       2.673  -1.314  23.746  0.00  0.00    +0.013 A 
ATOM     24  C   UNL     1       4.069   0.965  22.941  0.00  0.00    +0.013 A 
ATOM     25  C   UNL     1       4.067  -1.288  23.816  0.00  0.00    +0.013 A 
ATOM     26  C   UNL     1       4.763  -0.149  23.414  0.00  0.00    +0.055 A 
BRANCH  26  27
ATOM      1  F   UNL     1       6.764   1.114  23.770  0.00  0.00    -0.166 F 
ATOM      2  F   UNL     1       6.866  -0.504  22.330  0.00  0.00    -0.166 F 
ATOM      3  F   UNL     1       6.746  -0.950  24.454  0.00  0.00    -0.166 F 
ATOM     27  C   UNL     1       6.253  -0.121  23.488  0.00  0.00    +0.417 C 
ENDBRANCH  26  27
ENDBRANCH  16  21
ENDBRANCH   9   7
BRANCH  10   4
ATOM      4  O   UNL     1      -1.973  -3.233  23.433  0.00  0.00    -0.387 OA
ATOM     29  H   UNL     1      -2.754  -3.814  23.449  0.00  0.00    +0.210 HD
ENDBRANCH  10   4
BRANCH  12   5
ATOM      5  O   UNL     1      -4.340  -1.969  24.017  0.00  0.00    -0.389 OA
ATOM     30  H   UNL     1      -5.239  -2.200  24.308  0.00  0.00    +0.210 HD
ENDBRANCH  12   5
TORSDOF 6
ENDMDL
MODEL 3
REMARK VINA RESULT:       0.2      1.729      3.431
REMARK  Name = 71693927
REMARK  7 active torsions:
REMARK  status: ('A' for Active; 'I' for Inactive)
REMARK    1  A    between atoms: O_4  and  C_10
REMARK    2  A    between atoms: O_5  and  C_12
REMARK    3  A    between atoms: N_7  and  C_9
REMARK    4  A    between atoms: C_8  and  C_13
REMARK    5  A    between atoms: C_14  and  C_18
REMARK    6  A    between atoms: C_16  and  C_21
REMARK    7  A    between atoms: C_26  and  C_27
REMARK                            x       y       z     vdW  Elec       q    Type
REMARK                         _______ _______ _______ _____ _____    ______ ____
ROOT
ATOM      8  C   UNL     1      -2.446   1.045  23.746  0.00  0.00    +0.045 C 
ATOM      9  C   UNL     1      -1.532   1.696  24.808  0.00  0.00    +0.112 C 
ATOM     10  C   UNL     1      -1.799   3.191  24.641  0.00  0.00    +0.164 C 
ATOM     11  C   UNL     1      -3.570   2.076  23.468  0.00  0.00    +0.044 C 
ATOM     12  C   UNL     1      -3.305   3.249  24.411  0.00  0.00    +0.145 C 
ENDROOT
BRANCH   8  13
ATOM     13  C   UNL     1      -2.944  -0.325  24.153  0.00  0.00    -0.039 A 
ATOM     14  C   UNL     1      -2.443  -0.964  25.287  0.00  0.00    -0.047 A 
ATOM     15  C   UNL     1      -3.920  -0.950  23.375  0.00  0.00    +0.004 A 
ATOM     17  C   UNL     1      -2.917  -2.226  25.644  0.00  0.00    +0.003 A 
ATOM     18  C   UNL     1      -1.399  -0.316  26.136  0.00  0.00    +0.044 C 
ATOM     19  C   UNL     1      -4.394  -2.212  23.731  0.00  0.00    +0.000 A 
ATOM     20  C   UNL     1      -3.893  -2.850  24.867  0.00  0.00    +0.000 A 
ENDBRANCH   8  13
BRANCH   9   7
ATOM      6  O   UNL     1      -0.393   0.466  22.476  0.00  0.00    -0.270 OA
ATOM      7  N   UNL     1      -0.143   1.372  24.597  0.00  0.00    -0.305 N 
ATOM     16  C   UNL     1       0.316   0.776  23.430  0.00  0.00    +0.244 C 
ATOM     28  H   UNL     1       0.498   1.579  25.355  0.00  0.00    +0.149 HD
BRANCH  16  21
ATOM     21  C   UNL     1       1.771   0.482  23.377  0.00  0.00    +0.037 A 
ATOM     22  C   UNL     1       2.235  -0.805  23.651  0.00  0.00    +0.013 A 
ATOM     23  C   UNL     1       2.675   1.495  23.055  0.00  0.00    +0.013 A 
ATOM     24  C   UNL     1       3.601  -1.080  23.602  0.00  0.00    +0.013 A 
ATOM     25  C   UNL     1       4.043   1.220  23.006  0.00  0.00    +0.013 A 
ATOM     26  C   UNL     1       4.505  -0.067  23.280  0.00  0.00    +0.055 A 
BRANCH  26  27
ATOM      1  F   UNL     1       6.738   0.599  23.817  0.00  0.00    -0.166 F 
ATOM      2  F   UNL     1       6.455  -0.482  21.958  0.00  0.00    -0.166 F 
ATOM      3  F   UNL     1       6.289  -1.528  23.857  0.00  0.00    -0.166 F 
ATOM     27  C   UNL     1       5.966  -0.361  23.228  0.00  0.00    +0.417 C 
ENDBRANCH  26  27
ENDBRANCH  16  21
ENDBRANCH   9   7
BRANCH  10   4
ATOM      4  O   UNL     1      -1.429   3.933  25.787  0.00  0.00    -0.387 OA
ATOM     29  H   UNL     1      -1.987   3.630  26.524  0.00  0.00    +0.210 HD
ENDBRANCH  10   4
BRANCH  12   5
ATOM      5  O   UNL     1      -4.016   3.027  25.624  0.00  0.00    -0.389 OA
ATOM     30  H   UNL     1      -4.402   2.136  25.579  0.00  0.00    +0.210 HD
ENDBRANCH  12   5
TORSDOF 6
ENDMDL
