MODEL 1
REMARK VINA RESULT:       9.6      0.000      0.000
REMARK  Name = 7142890
REMARK  7 active torsions:
REMARK  status: ('A' for Active; 'I' for Inactive)
REMARK    1  A    between atoms: O_4  and  C_27
REMARK    2  A    between atoms: O_4  and  C_29
REMARK    3  A    between atoms: O_5  and  C_28
REMARK    4  A    between atoms: O_5  and  C_30
REMARK    5  A    between atoms: N_8  and  C_19
REMARK    6  A    between atoms: C_18  and  C_21
REMARK    7  A    between atoms: C_24  and  C_28
REMARK                            x       y       z     vdW  Elec       q    Type
REMARK                         _______ _______ _______ _____ _____    ______ ____
ROOT
ATOM      1  O   UNL     1      -2.185   1.602  21.684  0.00  0.00    -0.266 OA
ATOM      2  O   UNL     1      -2.249   5.237  25.361  0.00  0.00    -0.270 OA
ATOM      6  N   UNL     1      -3.858   3.633  25.921  0.00  0.00    -0.297 N 
ATOM      7  N   UNL     1      -3.476   1.477  23.627  0.00  0.00    -0.310 N 
ATOM      9  C   UNL     1      -5.440   3.055  24.089  0.00  0.00    +0.027 C 
ATOM     10  C   UNL     1      -4.820   1.350  25.753  0.00  0.00    +0.054 C 
ATOM     11  C   UNL     1      -5.982   1.905  24.930  0.00  0.00    +0.018 C 
ATOM     12  C   UNL     1      -4.862   4.158  24.995  0.00  0.00    +0.113 C 
ATOM     13  C   UNL     1      -4.393   2.503  23.113  0.00  0.00    +0.130 C 
ATOM     14  C   UNL     1      -4.279   2.450  26.689  0.00  0.00    +0.117 C 
ATOM     15  C   UNL     1      -3.705   0.849  24.855  0.00  0.00    +0.027 A 
ATOM     16  C   UNL     1      -2.921  -0.168  25.253  0.00  0.00    +0.024 A 
ATOM     17  C   UNL     1      -2.417   1.091  22.779  0.00  0.00    +0.273 A 
ATOM     18  C   UNL     1      -2.607   4.249  26.000  0.00  0.00    +0.247 C 
ATOM     19  C   UNL     1      -1.549  -0.026  23.271  0.00  0.00    +0.099 A 
ATOM     20  C   UNL     1      -1.821  -0.610  24.443  0.00  0.00    +0.030 A 
ENDROOT
BRANCH  18  21
ATOM     21  C   UNL     1      -1.610   3.667  26.904  0.00  0.00    +0.037 A 
ATOM     22  C   UNL     1      -0.480   3.036  26.383  0.00  0.00    +0.016 A 
ATOM     23  C   UNL     1      -1.791   3.744  28.284  0.00  0.00    +0.016 A 
ATOM     25  C   UNL     1       0.469   2.482  27.242  0.00  0.00    +0.046 A 
ATOM     26  C   UNL     1      -0.842   3.190  29.145  0.00  0.00    +0.046 A 
ATOM     27  C   UNL     1       0.287   2.559  28.623  0.00  0.00    +0.120 A 
BRANCH  27   4
ATOM      4  O   UNL     1       1.212   2.017  29.463  0.00  0.00    -0.495 OA
ATOM     29  C   UNL     1       2.533   2.552  29.405  0.00  0.00    +0.277 C 
ENDBRANCH  27   4
ENDBRANCH  18  21
BRANCH  19   8
ATOM      3  O   UNL     1       1.154   0.918  23.440  0.00  0.00    -0.272 OA
ATOM      8  N   UNL     1      -0.504  -0.417  22.488  0.00  0.00    -0.278 N 
ATOM     24  C   UNL     1       0.785   0.079  22.621  0.00  0.00    +0.255 C 
ATOM     36  H   UNL     1      -0.734  -0.927  21.638  0.00  0.00    +0.155 HD
BRANCH  24  28
ATOM     28  C   UNL     1       1.727  -0.543  21.611  0.00  0.00    +0.324 C 
BRANCH  28   5
ATOM      5  O   UNL     1       2.936   0.183  21.541  0.00  0.00    -0.483 OA
BRANCH   5  30
ATOM     30  C   UNL     1       3.859  -0.038  22.535  0.00  0.00    +0.121 A 
ATOM     31  C   UNL     1       4.692   0.998  22.956  0.00  0.00    +0.045 A 
ATOM     32  C   UNL     1       3.964  -1.299  23.122  0.00  0.00    +0.045 A 
ATOM     33  C   UNL     1       5.630   0.774  23.964  0.00  0.00    +0.004 A 
ATOM     34  C   UNL     1       4.902  -1.523  24.130  0.00  0.00    +0.004 A 
ATOM     35  C   UNL     1       5.735  -0.488  24.551  0.00  0.00    +0.000 A 
ENDBRANCH   5  30
ENDBRANCH  28   5
ENDBRANCH  24  28
ENDBRANCH  19   8
TORSDOF 6
ENDMDL
MODEL 2
REMARK VINA RESULT:      11.1      2.204      6.475
REMARK  Name = 7142890
REMARK  7 active torsions:
REMARK  status: ('A' for Active; 'I' for Inactive)
REMARK    1  A    between atoms: O_4  and  C_27
REMARK    2  A    between atoms: O_4  and  C_29
REMARK    3  A    between atoms: O_5  and  C_28
REMARK    4  A    between atoms: O_5  and  C_30
REMARK    5  A    between atoms: N_8  and  C_19
REMARK    6  A    between atoms: C_18  and  C_21
REMARK    7  A    between atoms: C_24  and  C_28
REMARK                            x       y       z     vdW  Elec       q    Type
REMARK                         _______ _______ _______ _____ _____    ______ ____
ROOT
ATOM      1  O   UNL     1      -4.322   1.378  26.151  0.00  0.00    -0.266 OA
ATOM      2  O   UNL     1      -0.249  -1.775  26.604  0.00  0.00    -0.270 OA
ATOM      6  N   UNL     1      -1.544  -2.544  24.814  0.00  0.00    -0.297 N 
ATOM      7  N   UNL     1      -3.834  -0.354  24.661  0.00  0.00    -0.310 N 
ATOM      9  C   UNL     1      -3.965  -2.826  25.322  0.00  0.00    +0.027 C 
ATOM     10  C   UNL     1      -3.256  -2.200  23.048  0.00  0.00    +0.054 C 
ATOM     11  C   UNL     1      -4.240  -3.060  23.840  0.00  0.00    +0.018 C 
ATOM     12  C   UNL     1      -2.518  -3.224  25.669  0.00  0.00    +0.113 C 
ATOM     13  C   UNL     1      -4.253  -1.356  25.651  0.00  0.00    +0.130 C 
ATOM     14  C   UNL     1      -1.813  -2.637  23.370  0.00  0.00    +0.117 C 
ATOM     15  C   UNL     1      -3.430  -0.729  23.376  0.00  0.00    +0.027 A 
ATOM     16  C   UNL     1      -3.162   0.207  22.450  0.00  0.00    +0.024 A 
ATOM     17  C   UNL     1      -3.955   0.999  25.039  0.00  0.00    +0.273 A 
ATOM     18  C   UNL     1      -0.478  -1.857  25.399  0.00  0.00    +0.247 C 
ATOM     19  C   UNL     1      -3.620   2.011  23.987  0.00  0.00    +0.099 A 
ATOM     20  C   UNL     1      -3.259   1.604  22.765  0.00  0.00    +0.030 A 
ENDROOT
BRANCH  18  21
ATOM     21  C   UNL     1       0.451  -1.148  24.514  0.00  0.00    +0.037 A 
ATOM     22  C   UNL     1       0.072   0.059  23.927  0.00  0.00    +0.016 A 
ATOM     23  C   UNL     1       1.714  -1.681  24.257  0.00  0.00    +0.016 A 
ATOM     25  C   UNL     1       0.955   0.734  23.085  0.00  0.00    +0.046 A 
ATOM     26  C   UNL     1       2.598  -1.006  23.414  0.00  0.00    +0.046 A 
ATOM     27  C   UNL     1       2.218   0.201  22.828  0.00  0.00    +0.120 A 
BRANCH  27   4
ATOM      4  O   UNL     1       3.081   0.859  22.005  0.00  0.00    -0.495 OA
ATOM     29  C   UNL     1       4.418   1.031  22.469  0.00  0.00    +0.277 C 
ENDBRANCH  27   4
ENDBRANCH  18  21
BRANCH  19   8
ATOM      3  O   UNL     1      -5.755   3.268  25.431  0.00  0.00    -0.272 OA
ATOM      8  N   UNL     1      -3.708   3.332  24.318  0.00  0.00    -0.278 N 
ATOM     24  C   UNL     1      -4.771   3.880  25.020  0.00  0.00    +0.255 C 
ATOM     36  H   UNL     1      -3.075   3.967  23.837  0.00  0.00    +0.155 HD
BRANCH  24  28
ATOM     28  C   UNL     1      -4.587   5.367  25.235  0.00  0.00    +0.324 C 
BRANCH  28   5
ATOM      5  O   UNL     1      -3.473   5.618  26.067  0.00  0.00    -0.483 OA
BRANCH   5  30
ATOM     30  C   UNL     1      -2.330   4.896  25.818  0.00  0.00    +0.121 A 
ATOM     31  C   UNL     1      -2.066   3.735  26.544  0.00  0.00    +0.045 A 
ATOM     32  C   UNL     1      -1.432   5.327  24.841  0.00  0.00    +0.045 A 
ATOM     33  C   UNL     1      -0.905   3.004  26.293  0.00  0.00    +0.004 A 
ATOM     34  C   UNL     1      -0.271   4.596  24.590  0.00  0.00    +0.004 A 
ATOM     35  C   UNL     1      -0.007   3.435  25.316  0.00  0.00    +0.000 A 
ENDBRANCH   5  30
ENDBRANCH  28   5
ENDBRANCH  24  28
ENDBRANCH  19   8
TORSDOF 6
ENDMDL
MODEL 3
REMARK VINA RESULT:      11.2      2.504      4.281
REMARK  Name = 7142890
REMARK  7 active torsions:
REMARK  status: ('A' for Active; 'I' for Inactive)
REMARK    1  A    between atoms: O_4  and  C_27
REMARK    2  A    between atoms: O_4  and  C_29
REMARK    3  A    between atoms: O_5  and  C_28
REMARK    4  A    between atoms: O_5  and  C_30
REMARK    5  A    between atoms: N_8  and  C_19
REMARK    6  A    between atoms: C_18  and  C_21
REMARK    7  A    between atoms: C_24  and  C_28
REMARK                            x       y       z     vdW  Elec       q    Type
REMARK                         _______ _______ _______ _____ _____    ______ ____
ROOT
ATOM      1  O   UNL     1       0.066  -1.382  22.599  0.00  0.00    -0.266 OA
ATOM      2  O   UNL     1      -4.922  -0.019  22.660  0.00  0.00    -0.270 OA
ATOM      6  N   UNL     1      -4.454  -1.089  24.688  0.00  0.00    -0.297 N 
ATOM      7  N   UNL     1      -1.340  -1.642  24.446  0.00  0.00    -0.310 N 
ATOM      9  C   UNL     1      -3.305  -3.286  24.470  0.00  0.00    +0.027 C 
ATOM     10  C   UNL     1      -2.871  -1.867  26.434  0.00  0.00    +0.054 C 
ATOM     11  C   UNL     1      -3.082  -3.310  25.978  0.00  0.00    +0.018 C 
ATOM     12  C   UNL     1      -4.542  -2.436  24.123  0.00  0.00    +0.113 C 
ATOM     13  C   UNL     1      -2.035  -2.759  23.790  0.00  0.00    +0.130 C 
ATOM     14  C   UNL     1      -4.131  -1.037  26.123  0.00  0.00    +0.117 C 
ATOM     15  C   UNL     1      -1.667  -1.249  25.747  0.00  0.00    +0.027 A 
ATOM     16  C   UNL     1      -0.944  -0.303  26.371  0.00  0.00    +0.024 A 
ATOM     17  C   UNL     1      -0.270  -1.059  23.738  0.00  0.00    +0.273 A 
ATOM     18  C   UNL     1      -4.652   0.018  23.860  0.00  0.00    +0.247 C 
ATOM     19  C   UNL     1       0.493   0.011  24.457  0.00  0.00    +0.099 A 
ATOM     20  C   UNL     1       0.156   0.338  25.710  0.00  0.00    +0.030 A 
ENDROOT
BRANCH  18  21
ATOM     21  C   UNL     1      -4.510   1.352  24.450  0.00  0.00    +0.037 A 
ATOM     22  C   UNL     1      -3.274   2.000  24.423  0.00  0.00    +0.016 A 
ATOM     23  C   UNL     1      -5.610   1.975  25.039  0.00  0.00    +0.016 A 
ATOM     25  C   UNL     1      -3.138   3.269  24.985  0.00  0.00    +0.046 A 
ATOM     26  C   UNL     1      -5.475   3.246  25.601  0.00  0.00    +0.046 A 
ATOM     27  C   UNL     1      -4.239   3.891  25.574  0.00  0.00    +0.120 A 
BRANCH  27   4
ATOM      4  O   UNL     1      -4.107   5.130  26.124  0.00  0.00    -0.495 OA
ATOM     29  C   UNL     1      -2.801   5.704  26.126  0.00  0.00    +0.277 C 
ENDBRANCH  27   4
ENDBRANCH  18  21
BRANCH  19   8
ATOM      3  O   UNL     1       0.683   2.786  23.759  0.00  0.00    -0.272 OA
ATOM      8  N   UNL     1       1.526   0.613  23.800  0.00  0.00    -0.278 N 
ATOM     24  C   UNL     1       1.558   1.965  23.492  0.00  0.00    +0.255 C 
ATOM     36  H   UNL     1       2.189   0.000  23.331  0.00  0.00    +0.155 HD
BRANCH  24  28
ATOM     28  C   UNL     1       2.830   2.338  22.761  0.00  0.00    +0.324 C 
BRANCH  28   5
ATOM      5  O   UNL     1       3.389   1.209  22.122  0.00  0.00    -0.483 OA
BRANCH   5  30
ATOM     30  C   UNL     1       4.174   0.379  22.886  0.00  0.00    +0.121 A 
ATOM     31  C   UNL     1       3.790  -0.944  23.098  0.00  0.00    +0.045 A 
ATOM     32  C   UNL     1       5.354   0.862  23.452  0.00  0.00    +0.045 A 
ATOM     33  C   UNL     1       4.586  -1.786  23.875  0.00  0.00    +0.004 A 
ATOM     34  C   UNL     1       6.150   0.020  24.229  0.00  0.00    +0.004 A 
ATOM     35  C   UNL     1       5.766  -1.303  24.441  0.00  0.00    +0.000 A 
ENDBRANCH   5  30
ENDBRANCH  28   5
ENDBRANCH  24  28
ENDBRANCH  19   8
TORSDOF 6
ENDMDL
MODEL 4
REMARK VINA RESULT:      11.8      2.398      4.573
REMARK  Name = 7142890
REMARK  7 active torsions:
REMARK  status: ('A' for Active; 'I' for Inactive)
REMARK    1  A    between atoms: O_4  and  C_27
REMARK    2  A    between atoms: O_4  and  C_29
REMARK    3  A    between atoms: O_5  and  C_28
REMARK    4  A    between atoms: O_5  and  C_30
REMARK    5  A    between atoms: N_8  and  C_19
REMARK    6  A    between atoms: C_18  and  C_21
REMARK    7  A    between atoms: C_24  and  C_28
REMARK                            x       y       z     vdW  Elec       q    Type
REMARK                         _______ _______ _______ _____ _____    ______ ____
ROOT
ATOM      1  O   UNL     1      -1.043   3.536  25.749  0.00  0.00    -0.266 OA
ATOM      2  O   UNL     1      -3.831  -0.472  27.452  0.00  0.00    -0.270 OA
ATOM      6  N   UNL     1      -5.099   0.634  25.827  0.00  0.00    -0.297 N 
ATOM      7  N   UNL     1      -3.103   2.898  24.851  0.00  0.00    -0.310 N 
ATOM      9  C   UNL     1      -5.301   3.093  26.153  0.00  0.00    +0.027 C 
ATOM     10  C   UNL     1      -5.304   2.156  23.876  0.00  0.00    +0.054 C 
ATOM     11  C   UNL     1      -5.941   3.216  24.775  0.00  0.00    +0.018 C 
ATOM     12  C   UNL     1      -5.546   1.689  26.736  0.00  0.00    +0.113 C 
ATOM     13  C   UNL     1      -3.806   3.415  26.034  0.00  0.00    +0.130 C 
ATOM     14  C   UNL     1      -5.594   0.754  24.446  0.00  0.00    +0.117 C 
ATOM     15  C   UNL     1      -3.806   2.365  23.766  0.00  0.00    +0.027 A 
ATOM     16  C   UNL     1      -3.153   2.004  22.648  0.00  0.00    +0.024 A 
ATOM     17  C   UNL     1      -1.703   3.057  24.826  0.00  0.00    +0.273 A 
ATOM     18  C   UNL     1      -4.248  -0.367  26.300  0.00  0.00    +0.247 C 
ATOM     19  C   UNL     1      -1.009   2.618  23.573  0.00  0.00    +0.099 A 
ATOM     20  C   UNL     1      -1.727   2.134  22.553  0.00  0.00    +0.030 A 
ENDROOT
BRANCH  18  21
ATOM     21  C   UNL     1      -3.783  -1.381  25.348  0.00  0.00    +0.037 A 
ATOM     22  C   UNL     1      -2.492  -1.899  25.455  0.00  0.00    +0.016 A 
ATOM     23  C   UNL     1      -4.631  -1.827  24.335  0.00  0.00    +0.016 A 
ATOM     25  C   UNL     1      -2.049  -2.863  24.550  0.00  0.00    +0.046 A 
ATOM     26  C   UNL     1      -4.189  -2.792  23.429  0.00  0.00    +0.046 A 
ATOM     27  C   UNL     1      -2.898  -3.309  23.537  0.00  0.00    +0.120 A 
BRANCH  27   4
ATOM      4  O   UNL     1      -2.466  -4.249  22.652  0.00  0.00    -0.495 OA
ATOM     29  C   UNL     1      -1.060  -4.327  22.422  0.00  0.00    +0.277 C 
ENDBRANCH  27   4
ENDBRANCH  18  21
BRANCH  19   8
ATOM      3  O   UNL     1       0.891   0.474  23.448  0.00  0.00    -0.272 OA
ATOM      8  N   UNL     1       0.348   2.740  23.516  0.00  0.00    -0.278 N 
ATOM     24  C   UNL     1       1.216   1.659  23.456  0.00  0.00    +0.255 C 
ATOM     36  H   UNL     1       0.735   3.651  23.747  0.00  0.00    +0.155 HD
BRANCH  24  28
ATOM     28  C   UNL     1       2.660   2.109  23.402  0.00  0.00    +0.324 C 
BRANCH  28   5
ATOM      5  O   UNL     1       3.410   1.281  22.538  0.00  0.00    -0.483 OA
BRANCH   5  30
ATOM     30  C   UNL     1       4.221   0.336  23.120  0.00  0.00    +0.121 A 
ATOM     31  C   UNL     1       5.513   0.676  23.519  0.00  0.00    +0.045 A 
ATOM     32  C   UNL     1       3.751  -0.964  23.311  0.00  0.00    +0.045 A 
ATOM     33  C   UNL     1       6.336  -0.283  24.109  0.00  0.00    +0.004 A 
ATOM     34  C   UNL     1       4.575  -1.923  23.901  0.00  0.00    +0.004 A 
ATOM     35  C   UNL     1       5.867  -1.583  24.300  0.00  0.00    +0.000 A 
ENDBRANCH   5  30
ENDBRANCH  28   5
ENDBRANCH  24  28
ENDBRANCH  19   8
TORSDOF 6
ENDMDL
MODEL 5
REMARK VINA RESULT:      12.8      3.446      5.942
REMARK  Name = 7142890
REMARK  7 active torsions:
REMARK  status: ('A' for Active; 'I' for Inactive)
REMARK    1  A    between atoms: O_4  and  C_27
REMARK    2  A    between atoms: O_4  and  C_29
REMARK    3  A    between atoms: O_5  and  C_28
REMARK    4  A    between atoms: O_5  and  C_30
REMARK    5  A    between atoms: N_8  and  C_19
REMARK    6  A    between atoms: C_18  and  C_21
REMARK    7  A    between atoms: C_24  and  C_28
REMARK                            x       y       z     vdW  Elec       q    Type
REMARK                         _______ _______ _______ _____ _____    ______ ____
ROOT
ATOM      1  O   UNL     1       0.428   0.921  22.145  0.00  0.00    -0.266 OA
ATOM      2  O   UNL     1      -4.271  -1.010  23.108  0.00  0.00    -0.270 OA
ATOM      6  N   UNL     1      -3.007  -1.211  25.066  0.00  0.00    -0.297 N 
ATOM      7  N   UNL     1      -0.282   0.191  24.247  0.00  0.00    -0.310 N 
ATOM      9  C   UNL     1      -0.774  -2.270  24.764  0.00  0.00    +0.027 C 
ATOM     10  C   UNL     1      -1.093  -0.563  26.510  0.00  0.00    +0.054 C 
ATOM     11  C   UNL     1      -0.411  -1.894  26.196  0.00  0.00    +0.018 C 
ATOM     12  C   UNL     1      -2.301  -2.412  24.617  0.00  0.00    +0.113 C 
ATOM     13  C   UNL     1      -0.199  -1.212  23.814  0.00  0.00    +0.130 C 
ATOM     14  C   UNL     1      -2.622  -0.728  26.402  0.00  0.00    +0.117 C 
ATOM     15  C   UNL     1      -0.628   0.525  25.560  0.00  0.00    +0.027 A 
ATOM     16  C   UNL     1      -0.586   1.805  25.966  0.00  0.00    +0.024 A 
ATOM     17  C   UNL     1       0.100   1.168  23.305  0.00  0.00    +0.273 A 
ATOM     18  C   UNL     1      -3.946  -0.611  24.225  0.00  0.00    +0.247 C 
ATOM     19  C   UNL     1       0.107   2.585  23.789  0.00  0.00    +0.099 A 
ATOM     20  C   UNL     1      -0.211   2.854  25.060  0.00  0.00    +0.030 A 
ENDROOT
BRANCH  18  21
ATOM     21  C   UNL     1      -4.599   0.617  24.690  0.00  0.00    +0.037 A 
ATOM     22  C   UNL     1      -4.061   1.861  24.360  0.00  0.00    +0.016 A 
ATOM     23  C   UNL     1      -5.758   0.541  25.462  0.00  0.00    +0.016 A 
ATOM     25  C   UNL     1      -4.682   3.029  24.801  0.00  0.00    +0.046 A 
ATOM     26  C   UNL     1      -6.379   1.710  25.904  0.00  0.00    +0.046 A 
ATOM     27  C   UNL     1      -5.840   2.953  25.574  0.00  0.00    +0.120 A 
BRANCH  27   4
ATOM      4  O   UNL     1      -6.446   4.094  26.007  0.00  0.00    -0.495 OA
ATOM     29  C   UNL     1      -6.045   5.316  25.391  0.00  0.00    +0.277 C 
ENDBRANCH  27   4
ENDBRANCH  18  21
BRANCH  19   8
ATOM      3  O   UNL     1      -0.380   5.396  24.076  0.00  0.00    -0.272 OA
ATOM      8  N   UNL     1       0.454   3.562  22.903  0.00  0.00    -0.278 N 
ATOM     24  C   UNL     1       0.190   4.910  23.102  0.00  0.00    +0.255 C 
ATOM     36  H   UNL     1       0.718   3.260  21.969  0.00  0.00    +0.155 HD
BRANCH  24  28
ATOM     28  C   UNL     1       0.692   5.751  21.947  0.00  0.00    +0.324 C 
BRANCH  28   5
ATOM      5  O   UNL     1       2.102   5.705  21.873  0.00  0.00    -0.483 OA
BRANCH   5  30
ATOM     30  C   UNL     1       2.661   5.589  20.622  0.00  0.00    +0.121 A 
ATOM     31  C   UNL     1       1.860   5.702  19.487  0.00  0.00    +0.045 A 
ATOM     32  C   UNL     1       4.030   5.358  20.489  0.00  0.00    +0.045 A 
ATOM     33  C   UNL     1       2.427   5.584  18.218  0.00  0.00    +0.004 A 
ATOM     34  C   UNL     1       4.597   5.239  19.220  0.00  0.00    +0.004 A 
ATOM     35  C   UNL     1       3.796   5.352  18.085  0.00  0.00    +0.000 A 
ENDBRANCH   5  30
ENDBRANCH  28   5
ENDBRANCH  24  28
ENDBRANCH  19   8
TORSDOF 6
ENDMDL
