MODEL 1
REMARK VINA RESULT:       4.4      0.000      0.000
REMARK  Name = 7134359
REMARK  9 active torsions:
REMARK  status: ('A' for Active; 'I' for Inactive)
REMARK    1  A    between atoms: N_8  and  C_13
REMARK    2  A    between atoms: N_9  and  C_20
REMARK    3  A    between atoms: C_14  and  C_18
REMARK    4  A    between atoms: C_19  and  C_22
REMARK    5  A    between atoms: C_20  and  C_23
REMARK    6  A    between atoms: C_20  and  C_25
REMARK    7  A    between atoms: C_21  and  C_24
REMARK    8  A    between atoms: C_23  and  C_27
REMARK    9  A    between atoms: C_28  and  C_33
REMARK                            x       y       z     vdW  Elec       q    Type
REMARK                         _______ _______ _______ _____ _____    ______ ____
ROOT
ATOM      3  O   UNL     1      -4.061   0.117  25.927  0.00  0.00    -0.267 OA
ATOM      7  N   UNL     1      -2.127   0.115  24.640  0.00  0.00    -0.283 N 
ATOM     13  C   UNL     1       0.637   0.854  24.031  0.00  0.00    +0.077 C 
ATOM     14  C   UNL     1      -1.465   1.144  25.452  0.00  0.00    +0.164 C 
ATOM     15  C   UNL     1       0.061   1.057  25.434  0.00  0.00    +0.054 C 
ATOM     16  C   UNL     1      -0.044  -0.332  23.355  0.00  0.00    +0.041 C 
ATOM     17  C   UNL     1      -1.557  -0.150  23.308  0.00  0.00    +0.111 C 
ATOM     19  C   UNL     1      -3.328  -0.460  25.120  0.00  0.00    +0.283 C 
ENDROOT
BRANCH  19  22
ATOM      4  O   UNL     1      -4.603  -1.851  23.629  0.00  0.00    -0.458 OA
ATOM     22  C   UNL     1      -3.687  -1.783  24.625  0.00  0.00    +0.189 A 
ATOM     26  C   UNL     1      -3.258  -3.030  24.991  0.00  0.00    +0.054 A 
ATOM     29  C   UNL     1      -3.958  -3.938  24.160  0.00  0.00    +0.042 A 
ATOM     30  C   UNL     1      -4.763  -3.171  23.350  0.00  0.00    +0.196 A 
ENDBRANCH  19  22
BRANCH  14  18
ATOM      2  O   UNL     1      -2.064   2.710  23.751  0.00  0.00    -0.274 OA
ATOM      9  N   UNL     1      -2.257   3.342  25.982  0.00  0.00    -0.302 N 
ATOM     18  C   UNL     1      -1.964   2.468  24.950  0.00  0.00    +0.234 C 
ATOM     38  H   UNL     1      -2.269   2.992  26.936  0.00  0.00    +0.150 HD
BRANCH   9  20
ATOM     20  C   UNL     1      -2.732   4.690  25.766  0.00  0.00    +0.163 C 
BRANCH  20  25
ATOM      6  O   UNL     1      -1.704   6.625  24.714  0.00  0.00    -0.274 OA
ATOM     10  N   UNL     1      -0.437   4.731  25.008  0.00  0.00    -0.328 N 
ATOM     25  C   UNL     1      -1.604   5.461  25.096  0.00  0.00    +0.231 C 
ATOM     39  H   UNL     1      -0.364   3.777  25.349  0.00  0.00    +0.145 HD
ATOM     40  H   UNL     1       0.398   5.132  24.595  0.00  0.00    +0.145 HD
ENDBRANCH  20  25
BRANCH  20  23
ATOM     23  C   UNL     1      -3.993   4.727  24.895  0.00  0.00    +0.067 C 
BRANCH  23  27
ATOM     27  C   UNL     1      -4.931   3.577  25.176  0.00  0.00    -0.045 A 
ATOM     31  C   UNL     1      -5.282   2.720  24.145  0.00  0.00    +0.004 A 
ATOM     32  C   UNL     1      -5.422   3.399  26.459  0.00  0.00    +0.004 A 
ATOM     34  C   UNL     1      -6.148   1.658  24.405  0.00  0.00    +0.000 A 
ATOM     35  C   UNL     1      -6.288   2.337  26.719  0.00  0.00    +0.000 A 
ATOM     36  C   UNL     1      -6.651   1.466  25.692  0.00  0.00    +0.000 A 
ENDBRANCH  23  27
ENDBRANCH  20  23
ENDBRANCH   9  20
ENDBRANCH  14  18
BRANCH  13   8
ATOM      5  O   UNL     1       2.262  -0.082  21.924  0.00  0.00    -0.270 OA
ATOM      8  N   UNL     1       2.067   0.661  24.089  0.00  0.00    -0.308 N 
ATOM     21  C   UNL     1       2.799   0.192  22.999  0.00  0.00    +0.254 C 
ATOM     37  H   UNL     1       2.544   0.838  24.968  0.00  0.00    +0.149 HD
BRANCH  21  24
ATOM      1  S   UNL     1       5.247   1.414  22.918  0.00  0.00    +0.041 S 
ATOM     11  N   UNL     1       6.354  -0.698  23.685  0.00  0.00    -0.146 NA
ATOM     12  N   UNL     1       6.619   0.551  23.339  0.00  0.00    -0.110 NA
ATOM     24  C   UNL     1       4.250   0.078  23.204  0.00  0.00    +0.117 A 
ATOM     28  C   UNL     1       4.997  -0.970  23.609  0.00  0.00    +0.081 A 
ATOM     33  C   UNL     1       4.537  -2.328  23.964  0.00  0.00    +0.069 C 
ENDBRANCH  21  24
ENDBRANCH  13   8
TORSDOF 8
ENDMDL
MODEL 2
REMARK VINA RESULT:       6.1      1.267      1.793
REMARK  Name = 7134359
REMARK  9 active torsions:
REMARK  status: ('A' for Active; 'I' for Inactive)
REMARK    1  A    between atoms: N_8  and  C_13
REMARK    2  A    between atoms: N_9  and  C_20
REMARK    3  A    between atoms: C_14  and  C_18
REMARK    4  A    between atoms: C_19  and  C_22
REMARK    5  A    between atoms: C_20  and  C_23
REMARK    6  A    between atoms: C_20  and  C_25
REMARK    7  A    between atoms: C_21  and  C_24
REMARK    8  A    between atoms: C_23  and  C_27
REMARK    9  A    between atoms: C_28  and  C_33
REMARK                            x       y       z     vdW  Elec       q    Type
REMARK                         _______ _______ _______ _____ _____    ______ ____
ROOT
ATOM      3  O   UNL     1      -3.885   0.553  26.066  0.00  0.00    -0.267 OA
ATOM      7  N   UNL     1      -1.966   0.491  24.760  0.00  0.00    -0.283 N 
ATOM     13  C   UNL     1       0.809   1.155  24.115  0.00  0.00    +0.077 C 
ATOM     14  C   UNL     1      -1.270   1.510  25.555  0.00  0.00    +0.164 C 
ATOM     15  C   UNL     1       0.253   1.385  25.523  0.00  0.00    +0.054 C 
ATOM     16  C   UNL     1       0.091  -0.020  23.457  0.00  0.00    +0.041 C 
ATOM     17  C   UNL     1      -1.416   0.199  23.425  0.00  0.00    +0.111 C 
ATOM     19  C   UNL     1      -3.175  -0.049  25.258  0.00  0.00    +0.283 C 
ENDROOT
BRANCH  19  22
ATOM      4  O   UNL     1      -4.543  -1.424  23.835  0.00  0.00    -0.458 OA
ATOM     22  C   UNL     1      -3.573  -1.368  24.779  0.00  0.00    +0.189 A 
ATOM     26  C   UNL     1      -3.135  -2.620  25.116  0.00  0.00    +0.054 A 
ATOM     29  C   UNL     1      -3.887  -3.518  24.322  0.00  0.00    +0.042 A 
ATOM     30  C   UNL     1      -4.730  -2.742  23.561  0.00  0.00    +0.196 A 
ENDBRANCH  19  22
BRANCH  14  18
ATOM      2  O   UNL     1      -1.497   3.886  25.644  0.00  0.00    -0.274 OA
ATOM      9  N   UNL     1      -2.475   2.726  23.879  0.00  0.00    -0.302 N 
ATOM     18  C   UNL     1      -1.741   2.841  25.046  0.00  0.00    +0.234 C 
ATOM     38  H   UNL     1      -2.497   1.832  23.398  0.00  0.00    +0.150 HD
BRANCH   9  20
ATOM     20  C   UNL     1      -3.060   3.859  23.198  0.00  0.00    +0.163 C 
BRANCH  20  25
ATOM      6  O   UNL     1      -4.434   3.915  21.193  0.00  0.00    -0.274 OA
ATOM     10  N   UNL     1      -2.857   2.257  21.399  0.00  0.00    -0.328 N 
ATOM     25  C   UNL     1      -3.549   3.364  21.844  0.00  0.00    +0.231 C 
ATOM     39  H   UNL     1      -2.113   1.826  21.939  0.00  0.00    +0.145 HD
ATOM     40  H   UNL     1      -3.073   1.834  20.503  0.00  0.00    +0.145 HD
ENDBRANCH  20  25
BRANCH  20  23
ATOM     23  C   UNL     1      -4.219   4.476  23.990  0.00  0.00    +0.067 C 
BRANCH  23  27
ATOM     27  C   UNL     1      -5.030   3.444  24.737  0.00  0.00    -0.045 A 
ATOM     31  C   UNL     1      -5.180   3.563  26.109  0.00  0.00    +0.004 A 
ATOM     32  C   UNL     1      -5.610   2.398  24.037  0.00  0.00    +0.004 A 
ATOM     34  C   UNL     1      -5.930   2.611  26.800  0.00  0.00    +0.000 A 
ATOM     35  C   UNL     1      -6.359   1.446  24.728  0.00  0.00    +0.000 A 
ATOM     36  C   UNL     1      -6.519   1.552  26.109  0.00  0.00    +0.000 A 
ENDBRANCH  23  27
ENDBRANCH  20  23
ENDBRANCH   9  20
ENDBRANCH  14  18
BRANCH  13   8
ATOM      5  O   UNL     1       2.348  -0.071  22.095  0.00  0.00    -0.270 OA
ATOM      8  N   UNL     1       2.234   0.926  24.161  0.00  0.00    -0.308 N 
ATOM     21  C   UNL     1       2.922   0.311  23.116  0.00  0.00    +0.254 C 
ATOM     37  H   UNL     1       2.741   1.191  25.001  0.00  0.00    +0.149 HD
BRANCH  21  24
ATOM      1  S   UNL     1       5.376   1.524  23.080  0.00  0.00    +0.041 S 
ATOM     11  N   UNL     1       6.480  -0.636  23.707  0.00  0.00    -0.146 NA
ATOM     12  N   UNL     1       6.748   0.631  23.432  0.00  0.00    -0.110 NA
ATOM     24  C   UNL     1       4.375   0.178  23.297  0.00  0.00    +0.117 A 
ATOM     28  C   UNL     1       5.121  -0.896  23.630  0.00  0.00    +0.081 A 
ATOM     33  C   UNL     1       4.657  -2.270  23.909  0.00  0.00    +0.069 C 
ENDBRANCH  21  24
ENDBRANCH  13   8
TORSDOF 8
ENDMDL
MODEL 3
REMARK VINA RESULT:       7.3      1.471      2.969
REMARK  Name = 7134359
REMARK  9 active torsions:
REMARK  status: ('A' for Active; 'I' for Inactive)
REMARK    1  A    between atoms: N_8  and  C_13
REMARK    2  A    between atoms: N_9  and  C_20
REMARK    3  A    between atoms: C_14  and  C_18
REMARK    4  A    between atoms: C_19  and  C_22
REMARK    5  A    between atoms: C_20  and  C_23
REMARK    6  A    between atoms: C_20  and  C_25
REMARK    7  A    between atoms: C_21  and  C_24
REMARK    8  A    between atoms: C_23  and  C_27
REMARK    9  A    between atoms: C_28  and  C_33
REMARK                            x       y       z     vdW  Elec       q    Type
REMARK                         _______ _______ _______ _____ _____    ______ ____
ROOT
ATOM      3  O   UNL     1      -4.673  -0.507  25.477  0.00  0.00    -0.267 OA
ATOM      7  N   UNL     1      -2.697  -0.358  24.267  0.00  0.00    -0.283 N 
ATOM     13  C   UNL     1       0.001   0.639  23.734  0.00  0.00    +0.077 C 
ATOM     14  C   UNL     1      -2.178   0.764  25.059  0.00  0.00    +0.164 C 
ATOM     15  C   UNL     1      -0.652   0.835  25.104  0.00  0.00    +0.054 C 
ATOM     16  C   UNL     1      -0.526  -0.636  23.083  0.00  0.00    +0.041 C 
ATOM     17  C   UNL     1      -2.046  -0.613  22.971  0.00  0.00    +0.111 C 
ATOM     19  C   UNL     1      -3.852  -1.035  24.725  0.00  0.00    +0.283 C 
ENDROOT
BRANCH  19  22
ATOM      4  O   UNL     1      -4.995  -2.620  23.323  0.00  0.00    -0.458 OA
ATOM     22  C   UNL     1      -4.053  -2.407  24.272  0.00  0.00    +0.189 A 
ATOM     26  C   UNL     1      -3.445  -3.576  24.641  0.00  0.00    +0.054 A 
ATOM     29  C   UNL     1      -4.054  -4.589  23.862  0.00  0.00    +0.042 A 
ATOM     30  C   UNL     1      -4.990  -3.957  23.077  0.00  0.00    +0.196 A 
ENDBRANCH  19  22
BRANCH  14  18
ATOM      2  O   UNL     1      -2.380   2.505  23.437  0.00  0.00    -0.274 OA
ATOM      9  N   UNL     1      -3.806   2.508  25.275  0.00  0.00    -0.302 N 
ATOM     18  C   UNL     1      -2.787   2.009  24.484  0.00  0.00    +0.234 C 
ATOM     38  H   UNL     1      -4.153   1.943  26.046  0.00  0.00    +0.150 HD
BRANCH   9  20
ATOM     20  C   UNL     1      -4.540   3.711  24.955  0.00  0.00    +0.163 C 
BRANCH  20  25
ATOM      6  O   UNL     1      -6.587   4.607  25.913  0.00  0.00    -0.274 OA
ATOM     10  N   UNL     1      -6.215   2.343  26.036  0.00  0.00    -0.328 N 
ATOM     25  C   UNL     1      -5.871   3.633  25.689  0.00  0.00    +0.231 C 
ATOM     39  H   UNL     1      -5.623   1.546  25.825  0.00  0.00    +0.145 HD
ATOM     40  H   UNL     1      -7.086   2.148  26.519  0.00  0.00    +0.145 HD
ENDBRANCH  20  25
BRANCH  20  23
ATOM     23  C   UNL     1      -3.781   4.979  25.360  0.00  0.00    +0.067 C 
BRANCH  23  27
ATOM     27  C   UNL     1      -2.283   4.785  25.369  0.00  0.00    -0.045 A 
ATOM     31  C   UNL     1      -1.717   3.915  26.287  0.00  0.00    +0.004 A 
ATOM     32  C   UNL     1      -1.503   5.478  24.458  0.00  0.00    +0.004 A 
ATOM     34  C   UNL     1      -0.333   3.735  26.295  0.00  0.00    +0.000 A 
ATOM     35  C   UNL     1      -0.120   5.299  24.466  0.00  0.00    +0.000 A 
ATOM     36  C   UNL     1       0.465   4.428  25.384  0.00  0.00    +0.000 A 
ENDBRANCH  23  27
ENDBRANCH  20  23
ENDBRANCH   9  20
ENDBRANCH  14  18
BRANCH  13   8
ATOM      5  O   UNL     1       1.792  -0.351  21.793  0.00  0.00    -0.270 OA
ATOM      8  N   UNL     1       1.440   0.597  23.855  0.00  0.00    -0.308 N 
ATOM     21  C   UNL     1       2.256   0.089  22.846  0.00  0.00    +0.254 C 
ATOM     37  H   UNL     1       1.863   0.915  24.722  0.00  0.00    +0.149 HD
BRANCH  21  24
ATOM      1  S   UNL     1       4.561   1.565  22.782  0.00  0.00    +0.041 S 
ATOM     11  N   UNL     1       5.857  -0.375  23.695  0.00  0.00    -0.146 NA
ATOM     12  N   UNL     1       6.000   0.877  23.293  0.00  0.00    -0.110 NA
ATOM     24  C   UNL     1       3.702   0.144  23.104  0.00  0.00    +0.117 A 
ATOM     28  C   UNL     1       4.541  -0.796  23.588  0.00  0.00    +0.081 A 
ATOM     33  C   UNL     1       4.215  -2.177  23.998  0.00  0.00    +0.069 C 
ENDBRANCH  21  24
ENDBRANCH  13   8
TORSDOF 8
ENDMDL
