MODEL 1
REMARK VINA RESULT:       1.5      0.000      0.000
REMARK  Name = 11884065
REMARK  8 active torsions:
REMARK  status: ('A' for Active; 'I' for Inactive)
REMARK    1  A    between atoms: O_6  and  C_16
REMARK    2  A    between atoms: O_6  and  C_20
REMARK    3  A    between atoms: O_9  and  C_33
REMARK    4  A    between atoms: O_9  and  C_34
REMARK    5  A    between atoms: N_10  and  C_15
REMARK    6  A    between atoms: N_11  and  C_21
REMARK    7  A    between atoms: N_12  and  C_22
REMARK    8  A    between atoms: C_25  and  C_32
REMARK                            x       y       z     vdW  Elec       q    Type
REMARK                         _______ _______ _______ _____ _____    ______ ____
ROOT
ATOM      4  O   UNL     1      -3.783   3.333  24.254  0.00  0.00    -0.368 OA
ATOM      5  O   UNL     1      -3.805   5.427  26.495  0.00  0.00    -0.368 OA
ATOM     13  C   UNL     1      -2.958   4.280  26.265  0.00  0.00    +0.173 C 
ATOM     14  C   UNL     1      -3.839   3.193  25.684  0.00  0.00    +0.192 C 
ATOM     15  C   UNL     1      -1.972   4.578  25.159  0.00  0.00    +0.131 C 
ATOM     16  C   UNL     1      -5.201   3.550  26.229  0.00  0.00    +0.235 C 
ATOM     17  C   UNL     1      -2.800   4.321  23.913  0.00  0.00    +0.185 C 
ATOM     18  C   UNL     1      -5.164   5.062  26.215  0.00  0.00    +0.207 C 
ENDROOT
BRANCH  15  10
ATOM      7  O   UNL     1      -1.011   2.864  23.074  0.00  0.00    -0.252 OA
ATOM     10  N   UNL     1      -0.832   3.695  25.224  0.00  0.00    -0.292 N 
ATOM     11  N   UNL     1       0.702   2.142  24.509  0.00  0.00    -0.269 N 
ATOM     19  C   UNL     1      -0.427   2.886  24.155  0.00  0.00    +0.304 C 
ATOM     35  H   UNL     1      -0.259   3.707  26.062  0.00  0.00    +0.151 HD
ATOM     36  H   UNL     1       1.062   2.278  25.450  0.00  0.00    +0.156 HD
BRANCH  11  21
ATOM     21  C   UNL     1       1.413   1.213  23.714  0.00  0.00    +0.035 A 
ATOM     23  C   UNL     1       2.797   1.096  23.844  0.00  0.00    +0.035 A 
ATOM     24  C   UNL     1       0.729   0.413  22.798  0.00  0.00    +0.023 A 
ATOM     25  C   UNL     1       3.496   0.180  23.060  0.00  0.00    +0.057 A 
ATOM     28  C   UNL     1       1.429  -0.503  22.012  0.00  0.00    +0.002 A 
ATOM     29  C   UNL     1       2.814  -0.620  22.144  0.00  0.00    +0.012 A 
BRANCH  25  32
ATOM      1  F   UNL     1       5.541   1.053  23.943  0.00  0.00    -0.166 F 
ATOM      2  F   UNL     1       5.643   0.080  22.007  0.00  0.00    -0.166 F 
ATOM      3  F   UNL     1       5.351  -1.109  23.805  0.00  0.00    -0.166 F 
ATOM     32  C   UNL     1       4.976   0.056  23.200  0.00  0.00    +0.417 C 
ENDBRANCH  25  32
ENDBRANCH  11  21
ENDBRANCH  15  10
BRANCH  16   6
ATOM      6  O   UNL     1      -6.266   3.038  25.461  0.00  0.00    -0.442 OA
BRANCH   6  20
ATOM      8  O   UNL     1      -6.932   1.255  24.193  0.00  0.00    -0.226 OA
ATOM     12  N   UNL     1      -4.913   1.235  25.380  0.00  0.00    -0.251 N 
ATOM     20  C   UNL     1      -6.106   1.773  24.936  0.00  0.00    +0.405 C 
ATOM     37  H   UNL     1      -4.358   1.823  25.997  0.00  0.00    +0.158 HD
BRANCH  12  22
ATOM     22  C   UNL     1      -4.366  -0.033  25.084  0.00  0.00    +0.037 A 
ATOM     26  C   UNL     1      -3.590  -0.697  26.033  0.00  0.00    +0.027 A 
ATOM     27  C   UNL     1      -4.604  -0.622  23.841  0.00  0.00    +0.027 A 
ATOM     30  C   UNL     1      -3.050  -1.950  25.740  0.00  0.00    +0.047 A 
ATOM     31  C   UNL     1      -4.064  -1.875  23.548  0.00  0.00    +0.047 A 
ATOM     33  C   UNL     1      -3.287  -2.538  24.498  0.00  0.00    +0.120 A 
BRANCH  33   9
ATOM      9  O   UNL     1      -2.760  -3.761  24.213  0.00  0.00    -0.495 OA
ATOM     34  C   UNL     1      -1.564  -3.786  23.436  0.00  0.00    +0.277 C 
ENDBRANCH  33   9
ENDBRANCH  12  22
ENDBRANCH   6  20
ENDBRANCH  16   6
TORSDOF 7
ENDMDL
MODEL 2
REMARK VINA RESULT:       4.6      1.856      5.078
REMARK  Name = 11884065
REMARK  8 active torsions:
REMARK  status: ('A' for Active; 'I' for Inactive)
REMARK    1  A    between atoms: O_6  and  C_16
REMARK    2  A    between atoms: O_6  and  C_20
REMARK    3  A    between atoms: O_9  and  C_33
REMARK    4  A    between atoms: O_9  and  C_34
REMARK    5  A    between atoms: N_10  and  C_15
REMARK    6  A    between atoms: N_11  and  C_21
REMARK    7  A    between atoms: N_12  and  C_22
REMARK    8  A    between atoms: C_25  and  C_32
REMARK                            x       y       z     vdW  Elec       q    Type
REMARK                         _______ _______ _______ _____ _____    ______ ____
ROOT
ATOM      4  O   UNL     1      -3.687  -0.859  25.917  0.00  0.00    -0.368 OA
ATOM      5  O   UNL     1      -3.985  -3.174  23.928  0.00  0.00    -0.368 OA
ATOM     13  C   UNL     1      -2.913  -2.232  24.146  0.00  0.00    +0.173 C 
ATOM     14  C   UNL     1      -3.558  -0.904  24.487  0.00  0.00    +0.192 C 
ATOM     15  C   UNL     1      -2.150  -2.596  25.398  0.00  0.00    +0.131 C 
ATOM     16  C   UNL     1      -4.901  -1.009  23.806  0.00  0.00    +0.235 C 
ATOM     17  C   UNL     1      -3.015  -1.992  26.489  0.00  0.00    +0.185 C 
ATOM     18  C   UNL     1      -5.236  -2.473  23.984  0.00  0.00    +0.207 C 
ENDROOT
BRANCH  15  10
ATOM      7  O   UNL     1      -0.664  -1.741  23.102  0.00  0.00    -0.252 OA
ATOM     10  N   UNL     1      -0.829  -2.015  25.392  0.00  0.00    -0.292 N 
ATOM     11  N   UNL     1       1.091  -1.097  24.524  0.00  0.00    -0.269 N 
ATOM     19  C   UNL     1      -0.169  -1.622  24.221  0.00  0.00    +0.304 C 
ATOM     35  H   UNL     1      -0.381  -1.824  26.283  0.00  0.00    +0.151 HD
ATOM     36  H   UNL     1       1.350  -1.072  25.507  0.00  0.00    +0.156 HD
BRANCH  11  21
ATOM     21  C   UNL     1       2.059  -0.593  23.626  0.00  0.00    +0.035 A 
ATOM     23  C   UNL     1       3.400  -0.532  24.007  0.00  0.00    +0.035 A 
ATOM     24  C   UNL     1       1.674  -0.156  22.358  0.00  0.00    +0.023 A 
ATOM     25  C   UNL     1       4.354  -0.035  23.120  0.00  0.00    +0.057 A 
ATOM     28  C   UNL     1       2.629   0.343  21.472  0.00  0.00    +0.002 A 
ATOM     29  C   UNL     1       3.970   0.403  21.853  0.00  0.00    +0.012 A 
BRANCH  25  32
ATOM      1  F   UNL     1       6.653  -0.374  22.551  0.00  0.00    -0.166 F 
ATOM      2  F   UNL     1       6.085  -0.748  24.611  0.00  0.00    -0.166 F 
ATOM      3  F   UNL     1       6.181   1.293  23.865  0.00  0.00    -0.166 F 
ATOM     32  C   UNL     1       5.788   0.031  23.528  0.00  0.00    +0.417 C 
ENDBRANCH  25  32
ENDBRANCH  11  21
ENDBRANCH  15  10
BRANCH  16   6
ATOM      6  O   UNL     1      -5.884  -0.168  24.367  0.00  0.00    -0.442 OA
BRANCH   6  20
ATOM      8  O   UNL     1      -6.111   1.704  25.661  0.00  0.00    -0.226 OA
ATOM     12  N   UNL     1      -4.233   1.368  24.304  0.00  0.00    -0.251 N 
ATOM     20  C   UNL     1      -5.458   1.049  24.857  0.00  0.00    +0.405 C 
ATOM     37  H   UNL     1      -3.846   0.692  23.649  0.00  0.00    +0.158 HD
BRANCH  12  22
ATOM     22  C   UNL     1      -3.447   2.520  24.533  0.00  0.00    +0.037 A 
ATOM     26  C   UNL     1      -3.971   3.785  24.270  0.00  0.00    +0.027 A 
ATOM     27  C   UNL     1      -2.147   2.391  25.023  0.00  0.00    +0.027 A 
ATOM     30  C   UNL     1      -3.195   4.923  24.497  0.00  0.00    +0.047 A 
ATOM     31  C   UNL     1      -1.371   3.528  25.250  0.00  0.00    +0.047 A 
ATOM     33  C   UNL     1      -1.896   4.794  24.987  0.00  0.00    +0.120 A 
BRANCH  33   9
ATOM      9  O   UNL     1      -1.139   5.903  25.207  0.00  0.00    -0.495 OA
ATOM     34  C   UNL     1       0.137   5.956  24.572  0.00  0.00    +0.277 C 
ENDBRANCH  33   9
ENDBRANCH  12  22
ENDBRANCH   6  20
ENDBRANCH  16   6
TORSDOF 7
ENDMDL
