MODEL 1
REMARK VINA RESULT:      -6.0      0.000      0.000
REMARK  Name = 26744082
REMARK  6 active torsions:
REMARK  status: ('A' for Active; 'I' for Inactive)
REMARK    1  A    between atoms: O_2  and  C_9
REMARK    2  A    between atoms: N_4  and  C_11
REMARK    3  A    between atoms: C_7  and  C_12
REMARK    4  A    between atoms: C_11  and  C_13
REMARK    5  A    between atoms: C_14  and  C_17
REMARK    6  A    between atoms: C_17  and  C_20
REMARK                            x       y       z     vdW  Elec       q    Type
REMARK                         _______ _______ _______ _____ _____    ______ ____
ROOT
ATOM      4  N   UNL     1      -3.311   2.325  25.059  0.00  0.00    -0.285 NA
ATOM      7  C   UNL     1      -2.266   3.041  24.299  0.00  0.00    +0.149 C 
ATOM      8  C   UNL     1      -2.000   4.324  25.108  0.00  0.00    +0.061 C 
ATOM      9  C   UNL     1      -2.973   4.261  26.279  0.00  0.00    +0.130 C 
ATOM     10  C   UNL     1      -4.073   3.345  25.776  0.00  0.00    +0.116 C 
ENDROOT
BRANCH   7  12
ATOM      3  O   UNL     1       0.013   2.439  24.949  0.00  0.00    -0.336 OA
ATOM      5  N   UNL     1      -0.776   1.283  23.201  0.00  0.00    -0.194 NA
ATOM      6  N   UNL     1       1.038   1.565  24.567  0.00  0.00    -0.061 NA
ATOM     12  C   UNL     1      -1.018   2.208  24.095  0.00  0.00    +0.245 A 
ATOM     14  C   UNL     1       0.497   0.918  23.530  0.00  0.00    +0.176 A 
BRANCH  14  17
ATOM     17  C   UNL     1       1.229  -0.118  22.794  0.00  0.00    +0.114 C 
BRANCH  17  20
ATOM     20  C   UNL     1       2.731  -0.154  23.065  0.00  0.00    -0.040 A 
ATOM     22  C   UNL     1       3.524   0.945  22.739  0.00  0.00    +0.004 A 
ATOM     23  C   UNL     1       3.308  -1.287  23.638  0.00  0.00    +0.004 A 
ATOM     24  C   UNL     1       4.897   0.912  22.987  0.00  0.00    +0.000 A 
ATOM     25  C   UNL     1       4.681  -1.320  23.886  0.00  0.00    +0.000 A 
ATOM     26  C   UNL     1       5.475  -0.220  23.560  0.00  0.00    +0.000 A 
ENDBRANCH  17  20
ENDBRANCH  14  17
ENDBRANCH   7  12
BRANCH   9   2
ATOM      2  O   UNL     1      -3.466   5.549  26.592  0.00  0.00    -0.390 OA
ATOM     27  H   UNL     1      -4.424   5.544  26.424  0.00  0.00    +0.210 HD
ENDBRANCH   9   2
BRANCH   4  11
ATOM     11  C   UNL     1      -4.162   1.493  24.220  0.00  0.00    +0.120 C 
BRANCH  11  13
ATOM      1  F   UNL     1      -3.399  -3.996  25.247  0.00  0.00    -0.205 F 
ATOM     13  C   UNL     1      -3.959   0.026  24.494  0.00  0.00    -0.033 A 
ATOM     15  C   UNL     1      -4.339  -0.921  23.543  0.00  0.00    +0.008 A 
ATOM     16  C   UNL     1      -3.388  -0.386  25.700  0.00  0.00    +0.008 A 
ATOM     18  C   UNL     1      -4.150  -2.280  23.798  0.00  0.00    +0.038 A 
ATOM     19  C   UNL     1      -3.200  -1.743  25.953  0.00  0.00    +0.038 A 
ATOM     21  C   UNL     1      -3.581  -2.691  25.003  0.00  0.00    +0.123 A 
ENDBRANCH  11  13
ENDBRANCH   4  11
TORSDOF 6
ENDMDL
MODEL 2
REMARK VINA RESULT:      -5.6      2.057      6.244
REMARK  Name = 26744082
REMARK  6 active torsions:
REMARK  status: ('A' for Active; 'I' for Inactive)
REMARK    1  A    between atoms: O_2  and  C_9
REMARK    2  A    between atoms: N_4  and  C_11
REMARK    3  A    between atoms: C_7  and  C_12
REMARK    4  A    between atoms: C_11  and  C_13
REMARK    5  A    between atoms: C_14  and  C_17
REMARK    6  A    between atoms: C_17  and  C_20
REMARK                            x       y       z     vdW  Elec       q    Type
REMARK                         _______ _______ _______ _____ _____    ______ ____
ROOT
ATOM      4  N   UNL     1       0.004   0.133  24.082  0.00  0.00    -0.285 NA
ATOM      7  C   UNL     1       0.692   1.327  24.612  0.00  0.00    +0.149 C 
ATOM      8  C   UNL     1       1.777   1.653  23.569  0.00  0.00    +0.061 C 
ATOM      9  C   UNL     1       1.650   0.562  22.513  0.00  0.00    +0.130 C 
ATOM     10  C   UNL     1       0.982  -0.578  23.261  0.00  0.00    +0.116 C 
ENDROOT
BRANCH   7  12
ATOM      3  O   UNL     1       0.187   3.716  24.485  0.00  0.00    -0.336 OA
ATOM      5  N   UNL     1      -1.451   2.481  25.382  0.00  0.00    -0.194 NA
ATOM      6  N   UNL     1      -0.842   4.610  24.807  0.00  0.00    -0.061 NA
ATOM     12  C   UNL     1      -0.253   2.485  24.856  0.00  0.00    +0.245 A 
ATOM     14  C   UNL     1      -1.772   3.806  25.332  0.00  0.00    +0.176 A 
BRANCH  14  17
ATOM     17  C   UNL     1      -3.056   4.320  25.821  0.00  0.00    +0.114 C 
BRANCH  17  20
ATOM     20  C   UNL     1      -4.254   3.415  25.546  0.00  0.00    -0.040 A 
ATOM     22  C   UNL     1      -4.452   2.891  24.269  0.00  0.00    +0.004 A 
ATOM     23  C   UNL     1      -5.149   3.113  26.572  0.00  0.00    +0.004 A 
ATOM     24  C   UNL     1      -5.547   2.064  24.017  0.00  0.00    +0.000 A 
ATOM     25  C   UNL     1      -6.243   2.285  26.320  0.00  0.00    +0.000 A 
ATOM     26  C   UNL     1      -6.443   1.761  25.043  0.00  0.00    +0.000 A 
ENDBRANCH  17  20
ENDBRANCH  14  17
ENDBRANCH   7  12
BRANCH   9   2
ATOM      2  O   UNL     1       2.922   0.191  22.019  0.00  0.00    -0.390 OA
ATOM     27  H   UNL     1       2.779  -0.345  21.220  0.00  0.00    +0.210 HD
ENDBRANCH   9   2
BRANCH   4  11
ATOM     11  C   UNL     1      -0.558  -0.716  25.123  0.00  0.00    +0.120 C 
BRANCH  11  13
ATOM      1  F   UNL     1      -5.501  -2.939  23.578  0.00  0.00    -0.205 F 
ATOM     13  C   UNL     1      -1.879  -1.310  24.711  0.00  0.00    -0.033 A 
ATOM     15  C   UNL     1      -2.956  -0.475  24.410  0.00  0.00    +0.008 A 
ATOM     16  C   UNL     1      -2.026  -2.695  24.628  0.00  0.00    +0.008 A 
ATOM     18  C   UNL     1      -4.180  -1.026  24.028  0.00  0.00    +0.038 A 
ATOM     19  C   UNL     1      -3.249  -3.244  24.245  0.00  0.00    +0.038 A 
ATOM     21  C   UNL     1      -4.326  -2.410  23.946  0.00  0.00    +0.123 A 
ENDBRANCH  11  13
ENDBRANCH   4  11
TORSDOF 6
ENDMDL
MODEL 3
REMARK VINA RESULT:      -4.2      1.784      2.321
REMARK  Name = 26744082
REMARK  6 active torsions:
REMARK  status: ('A' for Active; 'I' for Inactive)
REMARK    1  A    between atoms: O_2  and  C_9
REMARK    2  A    between atoms: N_4  and  C_11
REMARK    3  A    between atoms: C_7  and  C_12
REMARK    4  A    between atoms: C_11  and  C_13
REMARK    5  A    between atoms: C_14  and  C_17
REMARK    6  A    between atoms: C_17  and  C_20
REMARK                            x       y       z     vdW  Elec       q    Type
REMARK                         _______ _______ _______ _____ _____    ______ ____
ROOT
ATOM      4  N   UNL     1      -4.983   1.777  25.249  0.00  0.00    -0.285 NA
ATOM      7  C   UNL     1      -4.435   2.595  24.148  0.00  0.00    +0.149 C 
ATOM      8  C   UNL     1      -4.724   4.052  24.557  0.00  0.00    +0.061 C 
ATOM      9  C   UNL     1      -5.476   3.948  25.879  0.00  0.00    +0.130 C 
ATOM     10  C   UNL     1      -6.073   2.554  25.838  0.00  0.00    +0.116 C 
ENDROOT
BRANCH   7  12
ATOM      3  O   UNL     1      -2.603   2.019  22.635  0.00  0.00    -0.336 OA
ATOM      5  N   UNL     1      -1.965   2.369  24.752  0.00  0.00    -0.194 NA
ATOM      6  N   UNL     1      -1.216   1.826  22.660  0.00  0.00    -0.061 NA
ATOM     12  C   UNL     1      -2.963   2.336  23.906  0.00  0.00    +0.245 A 
ATOM     14  C   UNL     1      -0.914   2.049  23.943  0.00  0.00    +0.176 A 
BRANCH  14  17
ATOM     17  C   UNL     1       0.461   1.956  24.444  0.00  0.00    +0.114 C 
BRANCH  17  20
ATOM     20  C   UNL     1       1.424   1.201  23.532  0.00  0.00    -0.040 A 
ATOM     22  C   UNL     1       0.977   0.097  22.808  0.00  0.00    +0.004 A 
ATOM     23  C   UNL     1       2.751   1.617  23.423  0.00  0.00    +0.004 A 
ATOM     24  C   UNL     1       1.857  -0.593  21.973  0.00  0.00    +0.000 A 
ATOM     25  C   UNL     1       3.631   0.927  22.589  0.00  0.00    +0.000 A 
ATOM     26  C   UNL     1       3.184  -0.178  21.864  0.00  0.00    +0.000 A 
ENDBRANCH  17  20
ENDBRANCH  14  17
ENDBRANCH   7  12
BRANCH   9   2
ATOM      2  O   UNL     1      -6.476   4.944  25.966  0.00  0.00    -0.390 OA
ATOM     27  H   UNL     1      -6.026   5.804  26.033  0.00  0.00    +0.210 HD
ENDBRANCH   9   2
BRANCH   4  11
ATOM     11  C   UNL     1      -5.422   0.457  24.819  0.00  0.00    +0.120 C 
BRANCH  11  13
ATOM      1  F   UNL     1      -1.198  -3.274  24.869  0.00  0.00    -0.205 F 
ATOM     13  C   UNL     1      -4.294  -0.541  24.833  0.00  0.00    -0.033 A 
ATOM     15  C   UNL     1      -4.312  -1.628  23.958  0.00  0.00    +0.008 A 
ATOM     16  C   UNL     1      -3.228  -0.377  25.719  0.00  0.00    +0.008 A 
ATOM     18  C   UNL     1      -3.267  -2.551  23.972  0.00  0.00    +0.038 A 
ATOM     19  C   UNL     1      -2.184  -1.300  25.731  0.00  0.00    +0.038 A 
ATOM     21  C   UNL     1      -2.203  -2.388  24.858  0.00  0.00    +0.123 A 
ENDBRANCH  11  13
ENDBRANCH   4  11
TORSDOF 6
ENDMDL
MODEL 4
REMARK VINA RESULT:      -3.8     14.365     16.865
REMARK  Name = 26744082
REMARK  6 active torsions:
REMARK  status: ('A' for Active; 'I' for Inactive)
REMARK    1  A    between atoms: O_2  and  C_9
REMARK    2  A    between atoms: N_4  and  C_11
REMARK    3  A    between atoms: C_7  and  C_12
REMARK    4  A    between atoms: C_11  and  C_13
REMARK    5  A    between atoms: C_14  and  C_17
REMARK    6  A    between atoms: C_17  and  C_20
REMARK                            x       y       z     vdW  Elec       q    Type
REMARK                         _______ _______ _______ _____ _____    ______ ____
ROOT
ATOM      4  N   UNL     1      -8.154  -9.550  14.968  0.00  0.00    -0.285 NA
ATOM      7  C   UNL     1      -9.360 -10.037  14.270  0.00  0.00    +0.149 C 
ATOM      8  C   UNL     1     -10.486  -9.086  14.717  0.00  0.00    +0.061 C 
ATOM      9  C   UNL     1      -9.826  -8.127  15.699  0.00  0.00    +0.130 C 
ATOM     10  C   UNL     1      -8.619  -8.902  16.193  0.00  0.00    +0.116 C 
ENDROOT
BRANCH   7  12
ATOM      3  O   UNL     1     -10.269  -9.718  12.022  0.00  0.00    -0.336 OA
ATOM      5  N   UNL     1      -8.139 -10.410  12.059  0.00  0.00    -0.194 NA
ATOM      6  N   UNL     1      -9.873  -9.833  10.683  0.00  0.00    -0.061 NA
ATOM     12  C   UNL     1      -9.189 -10.075  12.766  0.00  0.00    +0.245 A 
ATOM     14  C   UNL     1      -8.607 -10.246  10.788  0.00  0.00    +0.176 A 
BRANCH  14  17
ATOM     17  C   UNL     1      -7.775 -10.505   9.608  0.00  0.00    +0.114 C 
BRANCH  17  20
ATOM     20  C   UNL     1      -6.351  -9.962   9.697  0.00  0.00    -0.040 A 
ATOM     22  C   UNL     1      -6.131  -8.649  10.110  0.00  0.00    +0.004 A 
ATOM     23  C   UNL     1      -5.272 -10.781   9.367  0.00  0.00    +0.004 A 
ATOM     24  C   UNL     1      -4.830  -8.153  10.192  0.00  0.00    +0.000 A 
ATOM     25  C   UNL     1      -3.970 -10.285   9.449  0.00  0.00    +0.000 A 
ATOM     26  C   UNL     1      -3.749  -8.971   9.862  0.00  0.00    +0.000 A 
ENDBRANCH  17  20
ENDBRANCH  14  17
ENDBRANCH   7  12
BRANCH   9   2
ATOM      2  O   UNL     1     -10.709  -7.803  16.755  0.00  0.00    -0.390 OA
ATOM     27  H   UNL     1     -11.351  -8.530  16.832  0.00  0.00    +0.210 HD
ENDBRANCH   9   2
BRANCH   4  11
ATOM     11  C   UNL     1      -7.182 -10.600  15.237  0.00  0.00    +0.120 C 
BRANCH  11  13
ATOM      1  F   UNL     1      -5.740 -10.781  20.682  0.00  0.00    -0.205 F 
ATOM     13  C   UNL     1      -6.797 -10.648  16.692  0.00  0.00    -0.033 A 
ATOM     15  C   UNL     1      -7.786 -10.730  17.674  0.00  0.00    +0.008 A 
ATOM     16  C   UNL     1      -5.451 -10.612  17.060  0.00  0.00    +0.008 A 
ATOM     18  C   UNL     1      -7.428 -10.774  19.021  0.00  0.00    +0.038 A 
ATOM     19  C   UNL     1      -5.095 -10.656  18.407  0.00  0.00    +0.038 A 
ATOM     21  C   UNL     1      -6.083 -10.737  19.388  0.00  0.00    +0.123 A 
ENDBRANCH  11  13
ENDBRANCH   4  11
TORSDOF 6
ENDMDL
MODEL 5
REMARK VINA RESULT:      -3.3      2.757      7.001
REMARK  Name = 26744082
REMARK  6 active torsions:
REMARK  status: ('A' for Active; 'I' for Inactive)
REMARK    1  A    between atoms: O_2  and  C_9
REMARK    2  A    between atoms: N_4  and  C_11
REMARK    3  A    between atoms: C_7  and  C_12
REMARK    4  A    between atoms: C_11  and  C_13
REMARK    5  A    between atoms: C_14  and  C_17
REMARK    6  A    between atoms: C_17  and  C_20
REMARK                            x       y       z     vdW  Elec       q    Type
REMARK                         _______ _______ _______ _____ _____    ______ ____
ROOT
ATOM      4  N   UNL     1       1.505   1.492  23.675  0.00  0.00    -0.285 NA
ATOM      7  C   UNL     1       0.879   0.367  22.952  0.00  0.00    +0.149 C 
ATOM      8  C   UNL     1       2.009  -0.663  22.769  0.00  0.00    +0.061 C 
ATOM      9  C   UNL     1       3.242  -0.009  23.381  0.00  0.00    +0.130 C 
ATOM     10  C   UNL     1       2.923   1.473  23.319  0.00  0.00    +0.116 C 
ENDROOT
BRANCH   7  12
ATOM      3  O   UNL     1      -0.068  -1.180  24.592  0.00  0.00    -0.336 OA
ATOM      5  N   UNL     1      -1.585   0.109  23.568  0.00  0.00    -0.194 NA
ATOM      6  N   UNL     1      -1.310  -1.542  25.127  0.00  0.00    -0.061 NA
ATOM     12  C   UNL     1      -0.319  -0.202  23.683  0.00  0.00    +0.245 A 
ATOM     14  C   UNL     1      -2.154  -0.739  24.473  0.00  0.00    +0.176 A 
BRANCH  14  17
ATOM     17  C   UNL     1      -3.601  -0.770  24.715  0.00  0.00    +0.114 C 
BRANCH  17  20
ATOM     20  C   UNL     1      -4.258   0.602  24.834  0.00  0.00    -0.040 A 
ATOM     22  C   UNL     1      -5.225   0.829  25.813  0.00  0.00    +0.004 A 
ATOM     23  C   UNL     1      -3.892   1.628  23.963  0.00  0.00    +0.004 A 
ATOM     24  C   UNL     1      -5.826   2.084  25.922  0.00  0.00    +0.000 A 
ATOM     25  C   UNL     1      -4.493   2.883  24.072  0.00  0.00    +0.000 A 
ATOM     26  C   UNL     1      -5.460   3.110  25.052  0.00  0.00    +0.000 A 
ENDBRANCH  17  20
ENDBRANCH  14  17
ENDBRANCH   7  12
BRANCH   9   2
ATOM      2  O   UNL     1       4.401  -0.327  22.637  0.00  0.00    -0.390 OA
ATOM     27  H   UNL     1       4.133  -0.420  21.706  0.00  0.00    +0.210 HD
ENDBRANCH   9   2
BRANCH   4  11
ATOM     11  C   UNL     1       0.884   2.777  23.386  0.00  0.00    +0.120 C 
BRANCH  11  13
ATOM      1  F   UNL     1      -2.975   4.160  27.254  0.00  0.00    -0.205 F 
ATOM     13  C   UNL     1      -0.147   3.146  24.419  0.00  0.00    -0.033 A 
ATOM     15  C   UNL     1      -0.337   2.333  25.537  0.00  0.00    +0.008 A 
ATOM     16  C   UNL     1      -0.912   4.302  24.260  0.00  0.00    +0.008 A 
ATOM     18  C   UNL     1      -1.293   2.676  26.494  0.00  0.00    +0.038 A 
ATOM     19  C   UNL     1      -1.867   4.644  25.216  0.00  0.00    +0.038 A 
ATOM     21  C   UNL     1      -2.058   3.831  26.334  0.00  0.00    +0.123 A 
ENDBRANCH  11  13
ENDBRANCH   4  11
TORSDOF 6
ENDMDL
MODEL 6
REMARK VINA RESULT:      -2.7      2.530      5.669
REMARK  Name = 26744082
REMARK  6 active torsions:
REMARK  status: ('A' for Active; 'I' for Inactive)
REMARK    1  A    between atoms: O_2  and  C_9
REMARK    2  A    between atoms: N_4  and  C_11
REMARK    3  A    between atoms: C_7  and  C_12
REMARK    4  A    between atoms: C_11  and  C_13
REMARK    5  A    between atoms: C_14  and  C_17
REMARK    6  A    between atoms: C_17  and  C_20
REMARK                            x       y       z     vdW  Elec       q    Type
REMARK                         _______ _______ _______ _____ _____    ______ ____
ROOT
ATOM      4  N   UNL     1      -1.376   3.502  25.224  0.00  0.00    -0.285 NA
ATOM      7  C   UNL     1      -2.609   3.780  25.989  0.00  0.00    +0.149 C 
ATOM      8  C   UNL     1      -2.939   5.253  25.685  0.00  0.00    +0.061 C 
ATOM      9  C   UNL     1      -1.812   5.730  24.777  0.00  0.00    +0.130 C 
ATOM     10  C   UNL     1      -0.675   4.778  25.095  0.00  0.00    +0.116 C 
ENDROOT
BRANCH   7  12
ATOM      3  O   UNL     1      -4.999   3.273  25.905  0.00  0.00    -0.336 OA
ATOM      5  N   UNL     1      -3.690   1.648  25.094  0.00  0.00    -0.194 NA
ATOM      6  N   UNL     1      -5.861   2.248  25.496  0.00  0.00    -0.061 NA
ATOM     12  C   UNL     1      -3.741   2.840  25.633  0.00  0.00    +0.245 A 
ATOM     14  C   UNL     1      -5.015   1.325  25.029  0.00  0.00    +0.176 A 
BRANCH  14  17
ATOM     17  C   UNL     1      -5.483   0.047  24.484  0.00  0.00    +0.114 C 
BRANCH  17  20
ATOM     20  C   UNL     1      -4.478  -1.098  24.583  0.00  0.00    -0.040 A 
ATOM     22  C   UNL     1      -3.629  -1.185  25.685  0.00  0.00    +0.004 A 
ATOM     23  C   UNL     1      -4.411  -2.056  23.571  0.00  0.00    +0.004 A 
ATOM     24  C   UNL     1      -2.710  -2.232  25.776  0.00  0.00    +0.000 A 
ATOM     25  C   UNL     1      -3.493  -3.102  23.663  0.00  0.00    +0.000 A 
ATOM     26  C   UNL     1      -2.643  -3.190  24.765  0.00  0.00    +0.000 A 
ENDBRANCH  17  20
ENDBRANCH  14  17
ENDBRANCH   7  12
BRANCH   9   2
ATOM      2  O   UNL     1      -1.470   7.071  25.065  0.00  0.00    -0.390 OA
ATOM     27  H   UNL     1      -1.733   7.248  25.985  0.00  0.00    +0.210 HD
ENDBRANCH   9   2
BRANCH   4  11
ATOM     11  C   UNL     1      -0.541   2.477  25.833  0.00  0.00    +0.120 C 
BRANCH  11  13
ATOM      1  F   UNL     1       1.592  -1.047  21.987  0.00  0.00    -0.205 F 
ATOM     13  C   UNL     1       0.029   1.535  24.806  0.00  0.00    -0.033 A 
ATOM     15  C   UNL     1      -0.568   0.292  24.591  0.00  0.00    +0.008 A 
ATOM     16  C   UNL     1       1.154   1.905  24.068  0.00  0.00    +0.008 A 
ATOM     18  C   UNL     1      -0.039  -0.580  23.639  0.00  0.00    +0.038 A 
ATOM     19  C   UNL     1       1.682   1.033  23.117  0.00  0.00    +0.038 A 
ATOM     21  C   UNL     1       1.085  -0.210  22.902  0.00  0.00    +0.123 A 
ENDBRANCH  11  13
ENDBRANCH   4  11
TORSDOF 6
ENDMDL
