MODEL 1
REMARK VINA RESULT:      -4.7      0.000      0.000
REMARK  Name = 45784077
REMARK  2 active torsions:
REMARK  status: ('A' for Active; 'I' for Inactive)
REMARK    1  A    between atoms: N_1  and  C_5
REMARK    2  A    between atoms: C_9  and  C_13
REMARK                            x       y       z     vdW  Elec       q    Type
REMARK                         _______ _______ _______ _____ _____    ______ ____
ROOT
ATOM      2  N   UNL     1       1.071   2.067  24.555  0.00  0.00    -0.340 N 
ATOM      3  N   UNL     1      -0.610   0.853  23.743  0.00  0.00    -0.213 NA
ATOM      4  N   UNL     1       0.697  -0.434  22.152  0.00  0.00    -0.234 NA
ATOM     13  C   UNL     1      -0.270   1.792  24.598  0.00  0.00    +0.114 A 
ATOM     14  C   UNL     1       1.630   1.251  23.609  0.00  0.00    +0.085 A 
ATOM     15  C   UNL     1       0.563   0.506  23.120  0.00  0.00    +0.178 A 
ATOM     16  C   UNL     1       2.925   1.081  23.133  0.00  0.00    +0.031 A 
ATOM     17  C   UNL     1       3.078   0.120  22.138  0.00  0.00    +0.022 A 
ATOM     18  C   UNL     1       1.963  -0.586  21.699  0.00  0.00    +0.113 A 
ATOM     19  H   UNL     1       1.562   2.749  25.119  0.00  0.00    +0.167 HD
ENDROOT
BRANCH  13   9
ATOM      1  N   UNL     1      -3.359   3.388  25.757  0.00  0.00    -0.299 NA
ATOM      8  C   UNL     1      -2.667   2.162  25.349  0.00  0.00    +0.096 C 
ATOM      9  C   UNL     1      -1.189   2.525  25.547  0.00  0.00    +0.070 C 
ATOM     11  C   UNL     1      -2.584   4.474  25.154  0.00  0.00    +0.085 C 
ATOM     12  C   UNL     1      -1.146   4.058  25.433  0.00  0.00    +0.028 C 
BRANCH   1   5
ATOM      5  C   UNL     1      -4.740   3.397  25.260  0.00  0.00    +0.057 C 
ATOM      6  C   UNL     1      -5.630   2.545  26.188  0.00  0.00    +0.019 C 
ATOM      7  C   UNL     1      -4.916   2.291  24.200  0.00  0.00    +0.019 C 
ATOM     10  C   UNL     1      -6.236   1.926  24.910  0.00  0.00    +0.003 C 
ENDBRANCH   1   5
ENDBRANCH  13   9
TORSDOF 2
ENDMDL
MODEL 2
REMARK VINA RESULT:      -3.8      3.186      4.695
REMARK  Name = 45784077
REMARK  2 active torsions:
REMARK  status: ('A' for Active; 'I' for Inactive)
REMARK    1  A    between atoms: N_1  and  C_5
REMARK    2  A    between atoms: C_9  and  C_13
REMARK                            x       y       z     vdW  Elec       q    Type
REMARK                         _______ _______ _______ _____ _____    ______ ____
ROOT
ATOM      2  N   UNL     1      -2.675   0.333  24.621  0.00  0.00    -0.340 N 
ATOM      3  N   UNL     1      -4.762  -0.232  24.087  0.00  0.00    -0.213 NA
ATOM      4  N   UNL     1      -4.399  -2.630  23.974  0.00  0.00    -0.234 NA
ATOM     13  C   UNL     1      -3.948   0.764  24.359  0.00  0.00    +0.114 A 
ATOM     14  C   UNL     1      -2.670  -1.032  24.509  0.00  0.00    +0.085 A 
ATOM     15  C   UNL     1      -3.980  -1.356  24.177  0.00  0.00    +0.178 A 
ATOM     16  C   UNL     1      -1.686  -2.002  24.659  0.00  0.00    +0.031 A 
ATOM     17  C   UNL     1      -2.101  -3.315  24.454  0.00  0.00    +0.022 A 
ATOM     18  C   UNL     1      -3.429  -3.563  24.123  0.00  0.00    +0.113 A 
ATOM     19  H   UNL     1      -1.881   0.915  24.854  0.00  0.00    +0.167 HD
ENDROOT
BRANCH  13   9
ATOM      1  N   UNL     1      -3.496   4.332  25.064  0.00  0.00    -0.299 NA
ATOM      8  C   UNL     1      -3.069   3.146  24.317  0.00  0.00    +0.096 C 
ATOM      9  C   UNL     1      -4.300   2.233  24.398  0.00  0.00    +0.070 C 
ATOM     11  C   UNL     1      -4.181   3.805  26.246  0.00  0.00    +0.085 C 
ATOM     12  C   UNL     1      -5.039   2.688  25.667  0.00  0.00    +0.028 C 
BRANCH   1   5
ATOM      5  C   UNL     1      -2.339   5.147  25.455  0.00  0.00    +0.057 C 
ATOM      6  C   UNL     1      -1.732   5.820  24.206  0.00  0.00    +0.019 C 
ATOM      7  C   UNL     1      -1.075   4.263  25.499  0.00  0.00    +0.019 C 
ATOM     10  C   UNL     1      -0.349   5.397  24.745  0.00  0.00    +0.003 C 
ENDBRANCH   1   5
ENDBRANCH  13   9
TORSDOF 2
ENDMDL
MODEL 3
REMARK VINA RESULT:      -3.8      2.485      3.124
REMARK  Name = 45784077
REMARK  2 active torsions:
REMARK  status: ('A' for Active; 'I' for Inactive)
REMARK    1  A    between atoms: N_1  and  C_5
REMARK    2  A    between atoms: C_9  and  C_13
REMARK                            x       y       z     vdW  Elec       q    Type
REMARK                         _______ _______ _______ _____ _____    ______ ____
ROOT
ATOM      2  N   UNL     1       0.127   0.122  23.166  0.00  0.00    -0.340 N 
ATOM      3  N   UNL     1       1.030   1.809  24.305  0.00  0.00    -0.213 NA
ATOM      4  N   UNL     1       3.238   1.694  23.301  0.00  0.00    -0.234 NA
ATOM     13  C   UNL     1      -0.057   1.095  24.111  0.00  0.00    +0.114 A 
ATOM     14  C   UNL     1       1.419   0.215  22.723  0.00  0.00    +0.085 A 
ATOM     15  C   UNL     1       1.957   1.272  23.447  0.00  0.00    +0.178 A 
ATOM     16  C   UNL     1       2.164  -0.492  21.787  0.00  0.00    +0.031 A 
ATOM     17  C   UNL     1       3.481  -0.071  21.626  0.00  0.00    +0.022 A 
ATOM     18  C   UNL     1       3.951   0.995  22.387  0.00  0.00    +0.113 A 
ATOM     19  H   UNL     1      -0.565  -0.547  22.852  0.00  0.00    +0.167 HD
ENDROOT
BRANCH  13   9
ATOM      1  N   UNL     1      -3.440   0.209  25.210  0.00  0.00    -0.299 NA
ATOM      8  C   UNL     1      -2.001  -0.062  25.264  0.00  0.00    +0.096 C 
ATOM      9  C   UNL     1      -1.387   1.268  24.808  0.00  0.00    +0.070 C 
ATOM     11  C   UNL     1      -3.637   0.937  23.954  0.00  0.00    +0.085 C 
ATOM     12  C   UNL     1      -2.482   1.930  23.956  0.00  0.00    +0.028 C 
BRANCH   1   5
ATOM      5  C   UNL     1      -4.207  -1.042  25.210  0.00  0.00    +0.057 C 
ATOM      6  C   UNL     1      -3.262  -2.230  25.484  0.00  0.00    +0.019 C 
ATOM      7  C   UNL     1      -4.333  -1.573  23.767  0.00  0.00    +0.019 C 
ATOM     10  C   UNL     1      -3.976  -2.964  24.329  0.00  0.00    +0.003 C 
ENDBRANCH   1   5
ENDBRANCH  13   9
TORSDOF 2
ENDMDL
MODEL 4
REMARK VINA RESULT:      -3.5      1.531      6.959
REMARK  Name = 45784077
REMARK  2 active torsions:
REMARK  status: ('A' for Active; 'I' for Inactive)
REMARK    1  A    between atoms: N_1  and  C_5
REMARK    2  A    between atoms: C_9  and  C_13
REMARK                            x       y       z     vdW  Elec       q    Type
REMARK                         _______ _______ _______ _____ _____    ______ ____
ROOT
ATOM      2  N   UNL     1      -3.357   0.412  25.045  0.00  0.00    -0.340 N 
ATOM      3  N   UNL     1      -2.140   2.258  25.311  0.00  0.00    -0.213 NA
ATOM      4  N   UNL     1      -3.996   3.817  25.453  0.00  0.00    -0.234 NA
ATOM     13  C   UNL     1      -2.104   0.954  25.149  0.00  0.00    +0.114 A 
ATOM     14  C   UNL     1      -4.259   1.437  25.147  0.00  0.00    +0.085 A 
ATOM     15  C   UNL     1      -3.476   2.573  25.312  0.00  0.00    +0.178 A 
ATOM     16  C   UNL     1      -5.648   1.498  25.114  0.00  0.00    +0.031 A 
ATOM     17  C   UNL     1      -6.196   2.769  25.257  0.00  0.00    +0.022 A 
ATOM     18  C   UNL     1      -5.348   3.860  25.418  0.00  0.00    +0.113 A 
ATOM     19  H   UNL     1      -3.579  -0.567  24.916  0.00  0.00    +0.167 HD
ENDROOT
BRANCH  13   9
ATOM      1  N   UNL     1       1.014  -0.381  23.759  0.00  0.00    -0.299 NA
ATOM      8  C   UNL     1       0.292   0.759  24.330  0.00  0.00    +0.096 C 
ATOM      9  C   UNL     1      -0.868   0.086  25.076  0.00  0.00    +0.070 C 
ATOM     11  C   UNL     1      -0.032  -1.265  23.239  0.00  0.00    +0.085 C 
ATOM     12  C   UNL     1      -1.065  -1.260  24.359  0.00  0.00    +0.028 C 
BRANCH   1   5
ATOM      5  C   UNL     1       1.908   0.055  22.680  0.00  0.00    +0.057 C 
ATOM      6  C   UNL     1       3.308  -0.561  22.885  0.00  0.00    +0.019 C 
ATOM      7  C   UNL     1       2.537   1.415  23.047  0.00  0.00    +0.019 C 
ATOM     10  C   UNL     1       3.884   0.835  22.569  0.00  0.00    +0.003 C 
ENDBRANCH   1   5
ENDBRANCH  13   9
TORSDOF 2
ENDMDL
MODEL 5
REMARK VINA RESULT:      -3.5     17.815     19.458
REMARK  Name = 45784077
REMARK  2 active torsions:
REMARK  status: ('A' for Active; 'I' for Inactive)
REMARK    1  A    between atoms: N_1  and  C_5
REMARK    2  A    between atoms: C_9  and  C_13
REMARK                            x       y       z     vdW  Elec       q    Type
REMARK                         _______ _______ _______ _____ _____    ______ ____
ROOT
ATOM      2  N   UNL     1      15.127  -4.656  30.625  0.00  0.00    -0.340 N 
ATOM      3  N   UNL     1      14.799  -3.755  32.635  0.00  0.00    -0.213 NA
ATOM      4  N   UNL     1      16.293  -1.861  32.357  0.00  0.00    -0.234 NA
ATOM     13  C   UNL     1      14.481  -4.744  31.829  0.00  0.00    +0.114 A 
ATOM     14  C   UNL     1      15.914  -3.537  30.659  0.00  0.00    +0.085 A 
ATOM     15  C   UNL     1      15.691  -2.995  31.920  0.00  0.00    +0.178 A 
ATOM     16  C   UNL     1      16.780  -2.945  29.747  0.00  0.00    +0.031 A 
ATOM     17  C   UNL     1      17.405  -1.780  30.181  0.00  0.00    +0.022 A 
ATOM     18  C   UNL     1      17.133  -1.298  31.457  0.00  0.00    +0.113 A 
ATOM     19  H   UNL     1      15.041  -5.301  29.850  0.00  0.00    +0.167 HD
ENDROOT
BRANCH  13   9
ATOM      1  N   UNL     1      13.159  -8.162  31.742  0.00  0.00    -0.299 NA
ATOM      8  C   UNL     1      14.219  -7.246  32.174  0.00  0.00    +0.096 C 
ATOM      9  C   UNL     1      13.526  -5.878  32.124  0.00  0.00    +0.070 C 
ATOM     11  C   UNL     1      12.521  -7.488  30.609  0.00  0.00    +0.085 C 
ATOM     12  C   UNL     1      12.393  -6.052  31.098  0.00  0.00    +0.028 C 
BRANCH   1   5
ATOM      5  C   UNL     1      13.721  -9.453  31.328  0.00  0.00    +0.057 C 
ATOM      6  C   UNL     1      14.304  -9.333  29.905  0.00  0.00    +0.019 C 
ATOM      7  C   UNL     1      12.609 -10.330  30.717  0.00  0.00    +0.019 C 
ATOM     10  C   UNL     1      13.604 -10.672  29.589  0.00  0.00    +0.003 C 
ENDBRANCH   1   5
ENDBRANCH  13   9
TORSDOF 2
ENDMDL
MODEL 6
REMARK VINA RESULT:      -3.3     15.830     18.436
REMARK  Name = 45784077
REMARK  2 active torsions:
REMARK  status: ('A' for Active; 'I' for Inactive)
REMARK    1  A    between atoms: N_1  and  C_5
REMARK    2  A    between atoms: C_9  and  C_13
REMARK                            x       y       z     vdW  Elec       q    Type
REMARK                         _______ _______ _______ _____ _____    ______ ____
ROOT
ATOM      2  N   UNL     1       9.707  -7.404  32.873  0.00  0.00    -0.340 N 
ATOM      3  N   UNL     1      10.102  -9.469  32.137  0.00  0.00    -0.213 NA
ATOM      4  N   UNL     1       7.782 -10.157  31.930  0.00  0.00    -0.234 NA
ATOM     13  C   UNL     1      10.647  -8.338  32.529  0.00  0.00    +0.114 A 
ATOM     14  C   UNL     1       8.475  -7.972  32.692  0.00  0.00    +0.085 A 
ATOM     15  C   UNL     1       8.749  -9.255  32.234  0.00  0.00    +0.178 A 
ATOM     16  C   UNL     1       7.173  -7.518  32.873  0.00  0.00    +0.031 A 
ATOM     17  C   UNL     1       6.170  -8.432  32.566  0.00  0.00    +0.022 A 
ATOM     18  C   UNL     1       6.521  -9.699  32.113  0.00  0.00    +0.113 A 
ATOM     19  H   UNL     1       9.888  -6.465  33.203  0.00  0.00    +0.167 HD
ENDROOT
BRANCH  13   9
ATOM      1  N   UNL     1      13.814  -6.699  31.682  0.00  0.00    -0.299 NA
ATOM      8  C   UNL     1      12.458  -6.584  32.223  0.00  0.00    +0.096 C 
ATOM      9  C   UNL     1      12.124  -8.030  32.614  0.00  0.00    +0.070 C 
ATOM     11  C   UNL     1      13.783  -7.900  30.845  0.00  0.00    +0.085 C 
ATOM     12  C   UNL     1      13.018  -8.894  31.709  0.00  0.00    +0.028 C 
BRANCH   1   5
ATOM      5  C   UNL     1      14.159  -5.518  30.882  0.00  0.00    +0.057 C 
ATOM      6  C   UNL     1      15.673  -5.517  30.585  0.00  0.00    +0.019 C 
ATOM      7  C   UNL     1      14.419  -4.318  31.816  0.00  0.00    +0.019 C 
ATOM     10  C   UNL     1      15.667  -4.020  30.960  0.00  0.00    +0.003 C 
ENDBRANCH   1   5
ENDBRANCH  13   9
TORSDOF 2
ENDMDL
MODEL 7
REMARK VINA RESULT:      -3.2     17.412     18.748
REMARK  Name = 45784077
REMARK  2 active torsions:
REMARK  status: ('A' for Active; 'I' for Inactive)
REMARK    1  A    between atoms: N_1  and  C_5
REMARK    2  A    between atoms: C_9  and  C_13
REMARK                            x       y       z     vdW  Elec       q    Type
REMARK                         _______ _______ _______ _____ _____    ______ ____
ROOT
ATOM      2  N   UNL     1      14.256  -5.009  31.475  0.00  0.00    -0.340 N 
ATOM      3  N   UNL     1      15.465  -5.555  29.685  0.00  0.00    -0.213 NA
ATOM      4  N   UNL     1      17.026  -3.699  29.806  0.00  0.00    -0.234 NA
ATOM     13  C   UNL     1      14.443  -5.889  30.443  0.00  0.00    +0.114 A 
ATOM     14  C   UNL     1      15.222  -4.044  31.375  0.00  0.00    +0.085 A 
ATOM     15  C   UNL     1      15.960  -4.408  30.254  0.00  0.00    +0.178 A 
ATOM     16  C   UNL     1      15.530  -2.914  32.124  0.00  0.00    +0.031 A 
ATOM     17  C   UNL     1      16.622  -2.176  31.676  0.00  0.00    +0.022 A 
ATOM     18  C   UNL     1      17.312  -2.602  30.546  0.00  0.00    +0.113 A 
ATOM     19  H   UNL     1      13.536  -5.060  32.183  0.00  0.00    +0.167 HD
ENDROOT
BRANCH  13   9
ATOM      1  N   UNL     1      11.992  -8.449  31.379  0.00  0.00    -0.299 NA
ATOM      8  C   UNL     1      12.289  -7.032  31.153  0.00  0.00    +0.096 C 
ATOM      9  C   UNL     1      13.537  -7.085  30.260  0.00  0.00    +0.070 C 
ATOM     11  C   UNL     1      13.293  -9.067  31.642  0.00  0.00    +0.085 C 
ATOM     12  C   UNL     1      14.186  -8.442  30.578  0.00  0.00    +0.028 C 
BRANCH   1   5
ATOM      5  C   UNL     1      11.095  -8.617  32.528  0.00  0.00    +0.057 C 
ATOM      6  C   UNL     1       9.852  -9.425  32.101  0.00  0.00    +0.019 C 
ATOM      7  C   UNL     1      10.165  -7.392  32.642  0.00  0.00    +0.019 C 
ATOM     10  C   UNL     1       9.008  -8.387  32.870  0.00  0.00    +0.003 C 
ENDBRANCH   1   5
ENDBRANCH  13   9
TORSDOF 2
ENDMDL
MODEL 8
REMARK VINA RESULT:      -3.1      2.868      4.660
REMARK  Name = 45784077
REMARK  2 active torsions:
REMARK  status: ('A' for Active; 'I' for Inactive)
REMARK    1  A    between atoms: N_1  and  C_5
REMARK    2  A    between atoms: C_9  and  C_13
REMARK                            x       y       z     vdW  Elec       q    Type
REMARK                         _______ _______ _______ _____ _____    ______ ____
ROOT
ATOM      2  N   UNL     1      -2.444   0.257  24.489  0.00  0.00    -0.340 N 
ATOM      3  N   UNL     1      -0.901  -1.284  24.943  0.00  0.00    -0.213 NA
ATOM      4  N   UNL     1      -2.293  -3.228  24.517  0.00  0.00    -0.234 NA
ATOM     13  C   UNL     1      -1.155   0.004  24.874  0.00  0.00    +0.114 A 
ATOM     14  C   UNL     1      -3.062  -0.950  24.299  0.00  0.00    +0.085 A 
ATOM     15  C   UNL     1      -2.081  -1.891  24.587  0.00  0.00    +0.178 A 
ATOM     16  C   UNL     1      -4.346  -1.319  23.914  0.00  0.00    +0.031 A 
ATOM     17  C   UNL     1      -4.579  -2.689  23.838  0.00  0.00    +0.022 A 
ATOM     18  C   UNL     1      -3.548  -3.571  24.142  0.00  0.00    +0.113 A 
ATOM     19  H   UNL     1      -2.866   1.168  24.368  0.00  0.00    +0.167 HD
ENDROOT
BRANCH  13   9
ATOM      1  N   UNL     1      -0.062   3.453  25.462  0.00  0.00    -0.299 NA
ATOM      8  C   UNL     1      -0.846   2.301  25.913  0.00  0.00    +0.096 C 
ATOM      9  C   UNL     1      -0.191   1.131  25.167  0.00  0.00    +0.070 C 
ATOM     11  C   UNL     1       0.106   3.252  24.021  0.00  0.00    +0.085 C 
ATOM     12  C   UNL     1       0.452   1.772  23.925  0.00  0.00    +0.028 C 
BRANCH   1   5
ATOM      5  C   UNL     1      -0.775   4.707  25.732  0.00  0.00    +0.057 C 
ATOM      6  C   UNL     1      -2.296   4.466  25.655  0.00  0.00    +0.019 C 
ATOM      7  C   UNL     1      -0.914   5.515  24.424  0.00  0.00    +0.019 C 
ATOM     10  C   UNL     1      -2.383   5.763  24.825  0.00  0.00    +0.003 C 
ENDBRANCH   1   5
ENDBRANCH  13   9
TORSDOF 2
ENDMDL
MODEL 9
REMARK VINA RESULT:      -3.1      1.831      3.192
REMARK  Name = 45784077
REMARK  2 active torsions:
REMARK  status: ('A' for Active; 'I' for Inactive)
REMARK    1  A    between atoms: N_1  and  C_5
REMARK    2  A    between atoms: C_9  and  C_13
REMARK                            x       y       z     vdW  Elec       q    Type
REMARK                         _______ _______ _______ _____ _____    ______ ____
ROOT
ATOM      2  N   UNL     1       1.790   1.073  22.988  0.00  0.00    -0.340 N 
ATOM      3  N   UNL     1       1.550  -1.016  23.722  0.00  0.00    -0.213 NA
ATOM      4  N   UNL     1       3.913  -1.568  23.821  0.00  0.00    -0.234 NA
ATOM     13  C   UNL     1       0.923   0.083  23.365  0.00  0.00    +0.114 A 
ATOM     14  C   UNL     1       3.060   0.577  23.110  0.00  0.00    +0.085 A 
ATOM     15  C   UNL     1       2.882  -0.723  23.568  0.00  0.00    +0.178 A 
ATOM     16  C   UNL     1       4.324   1.109  22.876  0.00  0.00    +0.031 A 
ATOM     17  C   UNL     1       5.392   0.253  23.131  0.00  0.00    +0.022 A 
ATOM     18  C   UNL     1       5.135  -1.035  23.587  0.00  0.00    +0.113 A 
ATOM     19  H   UNL     1       1.540   2.002  22.675  0.00  0.00    +0.167 HD
ENDROOT
BRANCH  13   9
ATOM      1  N   UNL     1      -2.308   1.443  24.436  0.00  0.00    -0.299 NA
ATOM      8  C   UNL     1      -0.979   1.688  23.870  0.00  0.00    +0.096 C 
ATOM      9  C   UNL     1      -0.572   0.304  23.347  0.00  0.00    +0.070 C 
ATOM     11  C   UNL     1      -2.178   0.180  25.165  0.00  0.00    +0.085 C 
ATOM     12  C   UNL     1      -1.383  -0.687  24.198  0.00  0.00    +0.028 C 
BRANCH   1   5
ATOM      5  C   UNL     1      -2.697   2.529  25.344  0.00  0.00    +0.057 C 
ATOM      6  C   UNL     1      -3.133   3.760  24.522  0.00  0.00    +0.019 C 
ATOM      7  C   UNL     1      -1.447   3.337  25.749  0.00  0.00    +0.019 C 
ATOM     10  C   UNL     1      -2.278   4.610  25.487  0.00  0.00    +0.003 C 
ENDBRANCH   1   5
ENDBRANCH  13   9
TORSDOF 2
ENDMDL
MODEL 10
REMARK VINA RESULT:      -2.8     18.375     19.758
REMARK  Name = 45784077
REMARK  2 active torsions:
REMARK  status: ('A' for Active; 'I' for Inactive)
REMARK    1  A    between atoms: N_1  and  C_5
REMARK    2  A    between atoms: C_9  and  C_13
REMARK                            x       y       z     vdW  Elec       q    Type
REMARK                         _______ _______ _______ _____ _____    ______ ____
ROOT
ATOM      2  N   UNL     1      15.571  -4.932  31.310  0.00  0.00    -0.340 N 
ATOM      3  N   UNL     1      16.719  -4.668  29.419  0.00  0.00    -0.213 NA
ATOM      4  N   UNL     1      17.404  -2.371  29.808  0.00  0.00    -0.234 NA
ATOM     13  C   UNL     1      15.996  -5.499  30.138  0.00  0.00    +0.114 A 
ATOM     14  C   UNL     1      16.052  -3.651  31.347  0.00  0.00    +0.085 A 
ATOM     15  C   UNL     1      16.763  -3.513  30.160  0.00  0.00    +0.178 A 
ATOM     16  C   UNL     1      15.950  -2.614  32.268  0.00  0.00    +0.031 A 
ATOM     17  C   UNL     1      16.603  -1.435  31.920  0.00  0.00    +0.022 A 
ATOM     18  C   UNL     1      17.294  -1.372  30.715  0.00  0.00    +0.113 A 
ATOM     19  H   UNL     1      15.004  -5.376  32.020  0.00  0.00    +0.167 HD
ENDROOT
BRANCH  13   9
ATOM      1  N   UNL     1      14.087  -8.626  30.225  0.00  0.00    -0.299 NA
ATOM      8  C   UNL     1      14.130  -7.202  29.884  0.00  0.00    +0.096 C 
ATOM      9  C   UNL     1      15.635  -6.922  29.781  0.00  0.00    +0.070 C 
ATOM     11  C   UNL     1      15.131  -8.802  31.236  0.00  0.00    +0.085 C 
ATOM     12  C   UNL     1      16.291  -7.996  30.665  0.00  0.00    +0.028 C 
BRANCH   1   5
ATOM      5  C   UNL     1      12.773  -8.994  30.766  0.00  0.00    +0.057 C 
ATOM      6  C   UNL     1      11.996  -7.718  31.153  0.00  0.00    +0.019 C 
ATOM      7  C   UNL     1      12.899  -9.284  32.276  0.00  0.00    +0.019 C 
ATOM     10  C   UNL     1      11.623  -8.437  32.467  0.00  0.00    +0.003 C 
ENDBRANCH   1   5
ENDBRANCH  13   9
TORSDOF 2
ENDMDL
