MODEL 1
REMARK VINA RESULT:      10.7      0.000      0.000
REMARK  Name = 7135169
REMARK  9 active torsions:
REMARK  status: ('A' for Active; 'I' for Inactive)
REMARK    1  A    between atoms: O_2  and  C_15
REMARK    2  A    between atoms: O_3  and  C_20
REMARK    3  A    between atoms: C_10  and  C_18
REMARK    4  A    between atoms: C_12  and  C_20
REMARK    5  A    between atoms: C_12  and  C_21
REMARK    6  A    between atoms: C_13  and  C_23
REMARK    7  A    between atoms: C_23  and  C_24
REMARK    8  A    between atoms: C_30  and  C_31
REMARK    9  A    between atoms: C_32  and  C_33
REMARK                            x       y       z     vdW  Elec       q    Type
REMARK                         _______ _______ _______ _____ _____    ______ ____
ROOT
ATOM      1  S   UNL     1       0.454   2.212  25.840  0.00  0.00    -0.057 S 
ATOM      5  O   UNL     1       1.940   0.126  21.991  0.00  0.00    -0.266 OA
ATOM      7  N   UNL     1      -0.232   1.364  23.494  0.00  0.00    -0.229 NA
ATOM      9  N   UNL     1       2.066   1.035  24.139  0.00  0.00    -0.258 N 
ATOM     10  C   UNL     1      -3.876   2.269  24.375  0.00  0.00    -0.019 C 
ATOM     11  C   UNL     1      -3.431   3.473  25.319  0.00  0.00    +0.011 C 
ATOM     12  C   UNL     1      -4.571   4.214  26.118  0.00  0.00    +0.021 C 
ATOM     13  C   UNL     1      -2.678   1.970  23.361  0.00  0.00    +0.054 C 
ATOM     14  C   UNL     1      -5.120   2.692  23.552  0.00  0.00    +0.010 C 
ATOM     15  C   UNL     1      -5.755   4.521  25.158  0.00  0.00    +0.123 C 
ATOM     16  C   UNL     1      -2.202   3.087  26.192  0.00  0.00    +0.049 C 
ATOM     17  C   UNL     1      -6.238   3.296  24.389  0.00  0.00    +0.032 C 
ATOM     18  C   UNL     1      -4.216   0.981  25.165  0.00  0.00    +0.012 C 
ATOM     19  C   UNL     1      -1.357   1.911  24.084  0.00  0.00    +0.058 A 
ATOM     21  C   UNL     1      -4.026   5.577  26.631  0.00  0.00    +0.016 C 
ATOM     22  C   UNL     1      -1.160   2.434  25.346  0.00  0.00    +0.015 A 
ATOM     25  C   UNL     1       0.778   1.461  24.330  0.00  0.00    +0.165 A 
ATOM     32  C   UNL     1       2.594   0.393  22.997  0.00  0.00    +0.285 C 
ATOM     39  H   UNL     1       2.693   1.203  24.922  0.00  0.00    +0.157 HD
ENDROOT
BRANCH  32  33
ATOM      6  O   UNL     1       4.308  -1.178  23.693  0.00  0.00    -0.458 OA
ATOM     33  C   UNL     1       4.012   0.007  23.098  0.00  0.00    +0.189 A 
ATOM     34  C   UNL     1       5.163   0.640  22.686  0.00  0.00    +0.054 A 
ATOM     35  C   UNL     1       6.233  -0.210  23.052  0.00  0.00    +0.042 A 
ATOM     36  C   UNL     1       5.661  -1.303  23.661  0.00  0.00    +0.196 A 
ENDBRANCH  32  33
BRANCH  15   2
ATOM      2  O   UNL     1      -6.855   5.076  25.878  0.00  0.00    -0.391 OA
ATOM     37  H   UNL     1      -6.962   4.560  26.695  0.00  0.00    +0.210 HD
ENDBRANCH  15   2
BRANCH  12  20
ATOM     20  C   UNL     1      -5.063   3.464  27.376  0.00  0.00    +0.165 C 
BRANCH  20   3
ATOM      3  O   UNL     1      -6.165   2.668  27.000  0.00  0.00    -0.394 OA
ATOM     38  H   UNL     1      -6.042   1.793  27.406  0.00  0.00    +0.209 HD
ENDBRANCH  20   3
ENDBRANCH  12  20
BRANCH  13  23
ATOM     23  C   UNL     1      -2.887   0.736  22.473  0.00  0.00    +0.106 C 
BRANCH  23  24
ATOM      4  O   UNL     1      -4.561  -0.435  23.672  0.00  0.00    -0.276 OA
ATOM      8  N   UNL     1      -2.452  -1.406  23.625  0.00  0.00    -0.301 N 
ATOM     24  C   UNL     1      -3.383  -0.416  23.310  0.00  0.00    +0.216 C 
ATOM     26  C   UNL     1      -1.044  -1.412  23.208  0.00  0.00    +0.108 C 
ATOM     27  C   UNL     1      -2.866  -2.577  24.400  0.00  0.00    +0.108 C 
ATOM     28  C   UNL     1      -0.123  -1.567  24.418  0.00  0.00    +0.022 C 
ATOM     29  C   UNL     1      -1.984  -2.753  25.634  0.00  0.00    +0.022 C 
ATOM     30  C   UNL     1      -0.496  -2.802  25.250  0.00  0.00    -0.011 C 
ATOM     31  C   UNL     1       0.382  -2.905  26.495  0.00  0.00    +0.007 C 
ENDBRANCH  23  24
ENDBRANCH  13  23
TORSDOF 6
ENDMDL
MODEL 2
REMARK VINA RESULT:      14.1      2.290      5.231
REMARK  Name = 7135169
REMARK  9 active torsions:
REMARK  status: ('A' for Active; 'I' for Inactive)
REMARK    1  A    between atoms: O_2  and  C_15
REMARK    2  A    between atoms: O_3  and  C_20
REMARK    3  A    between atoms: C_10  and  C_18
REMARK    4  A    between atoms: C_12  and  C_20
REMARK    5  A    between atoms: C_12  and  C_21
REMARK    6  A    between atoms: C_13  and  C_23
REMARK    7  A    between atoms: C_23  and  C_24
REMARK    8  A    between atoms: C_30  and  C_31
REMARK    9  A    between atoms: C_32  and  C_33
REMARK                            x       y       z     vdW  Elec       q    Type
REMARK                         _______ _______ _______ _____ _____    ______ ____
ROOT
ATOM      1  S   UNL     1       1.807  -1.906  23.244  0.00  0.00    -0.057 S 
ATOM      5  O   UNL     1       4.827   1.537  23.871  0.00  0.00    -0.266 OA
ATOM      7  N   UNL     1       2.074   0.576  23.924  0.00  0.00    -0.229 NA
ATOM      9  N   UNL     1       4.087  -0.614  23.340  0.00  0.00    -0.258 N 
ATOM     10  C   UNL     1      -1.773   0.823  24.037  0.00  0.00    -0.019 C 
ATOM     11  C   UNL     1      -1.937  -0.702  24.464  0.00  0.00    +0.011 C 
ATOM     12  C   UNL     1      -3.407  -1.264  24.560  0.00  0.00    +0.021 C 
ATOM     13  C   UNL     1      -0.294   1.288  24.426  0.00  0.00    +0.054 C 
ATOM     14  C   UNL     1      -2.783   1.692  24.831  0.00  0.00    +0.010 C 
ATOM     15  C   UNL     1      -4.293  -0.253  25.342  0.00  0.00    +0.123 C 
ATOM     16  C   UNL     1      -0.964  -1.622  23.671  0.00  0.00    +0.049 C 
ATOM     17  C   UNL     1      -4.211   1.167  24.794  0.00  0.00    +0.032 C 
ATOM     18  C   UNL     1      -2.003   1.051  22.523  0.00  0.00    +0.012 C 
ATOM     19  C   UNL     1       0.727   0.269  23.988  0.00  0.00    +0.058 A 
ATOM     21  C   UNL     1      -3.392  -2.590  25.373  0.00  0.00    +0.016 C 
ATOM     22  C   UNL     1       0.407  -1.036  23.671  0.00  0.00    +0.015 A 
ATOM     25  C   UNL     1       2.737  -0.492  23.537  0.00  0.00    +0.165 A 
ATOM     32  C   UNL     1       5.069   0.387  23.510  0.00  0.00    +0.285 C 
ATOM     39  H   UNL     1       4.394  -1.533  23.031  0.00  0.00    +0.157 HD
ENDROOT
BRANCH  32  33
ATOM      6  O   UNL     1       7.468   0.732  23.652  0.00  0.00    -0.458 OA
ATOM     33  C   UNL     1       6.444  -0.025  23.177  0.00  0.00    +0.189 A 
ATOM     34  C   UNL     1       6.927  -1.083  22.442  0.00  0.00    +0.054 A 
ATOM     35  C   UNL     1       8.337  -0.969  22.466  0.00  0.00    +0.042 A 
ATOM     36  C   UNL     1       8.616   0.151  23.215  0.00  0.00    +0.196 A 
ENDBRANCH  32  33
BRANCH  15   2
ATOM      2  O   UNL     1      -5.658  -0.670  25.336  0.00  0.00    -0.391 OA
ATOM     37  H   UNL     1      -5.855  -1.046  26.211  0.00  0.00    +0.210 HD
ENDBRANCH  15   2
BRANCH  12  20
ATOM     20  C   UNL     1      -4.048  -1.619  23.200  0.00  0.00    +0.165 C 
BRANCH  20   3
ATOM      3  O   UNL     1      -4.714  -2.853  23.345  0.00  0.00    -0.394 OA
ATOM     38  H   UNL     1      -5.048  -2.897  24.257  0.00  0.00    +0.209 HD
ENDBRANCH  20   3
ENDBRANCH  12  20
BRANCH  13  23
ATOM     23  C   UNL     1       0.079   2.697  23.948  0.00  0.00    +0.106 C 
BRANCH  23  24
ATOM      4  O   UNL     1       0.376   3.903  25.965  0.00  0.00    -0.276 OA
ATOM      8  N   UNL     1      -1.539   4.387  24.742  0.00  0.00    -0.301 N 
ATOM     24  C   UNL     1      -0.340   3.714  24.979  0.00  0.00    +0.216 C 
ATOM     26  C   UNL     1      -2.412   4.184  23.580  0.00  0.00    +0.108 C 
ATOM     27  C   UNL     1      -1.994   5.417  25.678  0.00  0.00    +0.108 C 
ATOM     28  C   UNL     1      -3.840   3.867  24.024  0.00  0.00    +0.022 C 
ATOM     29  C   UNL     1      -3.411   5.123  26.166  0.00  0.00    +0.022 C 
ATOM     30  C   UNL     1      -4.377   4.936  24.985  0.00  0.00    -0.011 C 
ATOM     31  C   UNL     1      -5.774   4.571  25.480  0.00  0.00    +0.007 C 
ENDBRANCH  23  24
ENDBRANCH  13  23
TORSDOF 6
ENDMDL
MODEL 3
REMARK VINA RESULT:      14.3      1.891      2.906
REMARK  Name = 7135169
REMARK  9 active torsions:
REMARK  status: ('A' for Active; 'I' for Inactive)
REMARK    1  A    between atoms: O_2  and  C_15
REMARK    2  A    between atoms: O_3  and  C_20
REMARK    3  A    between atoms: C_10  and  C_18
REMARK    4  A    between atoms: C_12  and  C_20
REMARK    5  A    between atoms: C_12  and  C_21
REMARK    6  A    between atoms: C_13  and  C_23
REMARK    7  A    between atoms: C_23  and  C_24
REMARK    8  A    between atoms: C_30  and  C_31
REMARK    9  A    between atoms: C_32  and  C_33
REMARK                            x       y       z     vdW  Elec       q    Type
REMARK                         _______ _______ _______ _____ _____    ______ ____
ROOT
ATOM      1  S   UNL     1       1.375   3.052  23.331  0.00  0.00    -0.057 S 
ATOM      5  O   UNL     1       3.143  -1.148  24.108  0.00  0.00    -0.266 OA
ATOM      7  N   UNL     1       0.897   0.704  24.305  0.00  0.00    -0.229 NA
ATOM      9  N   UNL     1       3.091   1.069  23.375  0.00  0.00    -0.258 N 
ATOM     10  C   UNL     1      -2.498   2.050  25.543  0.00  0.00    -0.019 C 
ATOM     11  C   UNL     1      -2.619   3.080  24.335  0.00  0.00    +0.011 C 
ATOM     12  C   UNL     1      -3.843   4.073  24.361  0.00  0.00    +0.021 C 
ATOM     13  C   UNL     1      -1.488   0.891  25.104  0.00  0.00    +0.054 C 
ATOM     14  C   UNL     1      -3.884   1.412  25.818  0.00  0.00    +0.010 C 
ATOM     15  C   UNL     1      -5.139   3.281  24.695  0.00  0.00    +0.123 C 
ATOM     16  C   UNL     1      -1.257   3.772  24.039  0.00  0.00    +0.049 C 
ATOM     17  C   UNL     1      -5.013   2.425  25.950  0.00  0.00    +0.032 C 
ATOM     18  C   UNL     1      -1.987   2.711  26.847  0.00  0.00    +0.012 C 
ATOM     19  C   UNL     1      -0.244   1.465  24.476  0.00  0.00    +0.058 A 
ATOM     21  C   UNL     1      -4.029   4.687  22.944  0.00  0.00    +0.016 C 
ATOM     22  C   UNL     1      -0.167   2.754  23.989  0.00  0.00    +0.015 A 
ATOM     25  C   UNL     1       1.817   1.438  23.718  0.00  0.00    +0.165 A 
ATOM     32  C   UNL     1       3.699  -0.189  23.579  0.00  0.00    +0.285 C 
ATOM     39  H   UNL     1       3.644   1.799  22.933  0.00  0.00    +0.157 HD
ENDROOT
BRANCH  32  33
ATOM      6  O   UNL     1       6.072  -0.048  24.072  0.00  0.00    -0.458 OA
ATOM     33  C   UNL     1       5.105  -0.278  23.146  0.00  0.00    +0.189 A 
ATOM     34  C   UNL     1       5.667  -0.567  21.923  0.00  0.00    +0.054 A 
ATOM     35  C   UNL     1       7.068  -0.509  22.110  0.00  0.00    +0.042 A 
ATOM     36  C   UNL     1       7.264  -0.190  23.434  0.00  0.00    +0.196 A 
ENDBRANCH  32  33
BRANCH  15   2
ATOM      2  O   UNL     1      -6.245   4.169  24.853  0.00  0.00    -0.391 OA
ATOM     37  H   UNL     1      -6.109   4.919  24.250  0.00  0.00    +0.210 HD
ENDBRANCH  15   2
BRANCH  12  20
ATOM     20  C   UNL     1      -3.673   5.276  25.316  0.00  0.00    +0.165 C 
BRANCH  20   3
ATOM      3  O   UNL     1      -2.303   5.607  25.354  0.00  0.00    -0.394 OA
ATOM     38  H   UNL     1      -1.814   4.793  25.563  0.00  0.00    +0.209 HD
ENDBRANCH  20   3
ENDBRANCH  12  20
BRANCH  13  23
ATOM     23  C   UNL     1      -1.146  -0.111  26.214  0.00  0.00    +0.106 C 
BRANCH  23  24
ATOM      4  O   UNL     1       0.092  -1.975  25.436  0.00  0.00    -0.276 OA
ATOM      8  N   UNL     1      -2.222  -2.159  25.348  0.00  0.00    -0.301 N 
ATOM     24  C   UNL     1      -1.028  -1.497  25.632  0.00  0.00    +0.216 C 
ATOM     26  C   UNL     1      -3.568  -1.617  25.570  0.00  0.00    +0.108 C 
ATOM     27  C   UNL     1      -2.191  -3.523  24.817  0.00  0.00    +0.108 C 
ATOM     28  C   UNL     1      -4.394  -1.678  24.285  0.00  0.00    +0.022 C 
ATOM     29  C   UNL     1      -2.986  -3.621  23.518  0.00  0.00    +0.022 C 
ATOM     30  C   UNL     1      -4.419  -3.098  23.703  0.00  0.00    -0.011 C 
ATOM     31  C   UNL     1      -5.184  -3.132  22.382  0.00  0.00    +0.007 C 
ENDBRANCH  23  24
ENDBRANCH  13  23
TORSDOF 6
ENDMDL
