MODEL 1
REMARK VINA RESULT:      -1.9      0.000      0.000
REMARK  Name = 45360663
REMARK  12 active torsions:
REMARK  status: ('A' for Active; 'I' for Inactive)
REMARK    1  A    between atoms: O_3  and  C_26
REMARK    2  A    between atoms: O_3  and  C_32
REMARK    3  A    between atoms: O_4  and  C_33
REMARK    4  A    between atoms: O_4  and  C_34
REMARK    5  A    between atoms: N_7  and  C_10
REMARK    6  A    between atoms: N_7  and  C_18
REMARK    7  A    between atoms: N_8  and  C_23
REMARK    8  A    between atoms: C_12  and  C_16
REMARK    9  A    between atoms: C_16  and  C_17
REMARK   10  A    between atoms: C_17  and  C_19
REMARK   11  A    between atoms: C_18  and  C_20
REMARK   12  A    between atoms: C_23  and  C_27
REMARK                            x       y       z     vdW  Elec       q    Type
REMARK                         _______ _______ _______ _____ _____    ______ ____
ROOT
ATOM      1  O   UNL     1       0.971   2.715  26.812  0.00  0.00    -0.274 OA
ATOM      5  N   UNL     1      -2.015   2.317  24.750  0.00  0.00    -0.286 NA
ATOM      6  N   UNL     1      -0.488   4.283  26.044  0.00  0.00    -0.313 N 
ATOM      9  C   UNL     1      -0.966   1.868  25.674  0.00  0.00    +0.145 C 
ATOM     10  C   UNL     1      -0.796   0.845  23.480  0.00  0.00    +0.070 C 
ATOM     11  C   UNL     1      -0.146   0.853  24.863  0.00  0.00    +0.048 C 
ATOM     12  C   UNL     1      -2.650   3.575  25.127  0.00  0.00    +0.075 C 
ATOM     13  C   UNL     1      -1.474   2.206  23.397  0.00  0.00    +0.104 C 
ATOM     14  C   UNL     1      -1.619   4.687  25.242  0.00  0.00    +0.123 C 
ATOM     15  C   UNL     1      -0.069   2.984  26.203  0.00  0.00    +0.230 C 
ATOM     35  H   UNL     1       0.108   5.016  26.418  0.00  0.00    +0.149 HD
ENDROOT
BRANCH  10   7
ATOM      7  N   UNL     1       0.154   0.604  22.404  0.00  0.00    -0.308 NA
ATOM     36  H   UNL     1      -0.356   0.523  21.523  0.00  0.00    +0.123 HD
BRANCH   7  18
ATOM     18  C   UNL     1       0.904  -0.624  22.633  0.00  0.00    +0.116 C 
BRANCH  18  20
ATOM     20  C   UNL     1       2.359  -0.354  22.887  0.00  0.00    -0.033 A 
ATOM     21  C   UNL     1       2.923   0.858  22.490  0.00  0.00    +0.008 A 
ATOM     22  C   UNL     1       3.146  -1.317  23.519  0.00  0.00    +0.008 A 
ATOM     24  C   UNL     1       4.276   1.108  22.726  0.00  0.00    +0.046 A 
ATOM     25  C   UNL     1       4.498  -1.066  23.755  0.00  0.00    +0.046 A 
ATOM     26  C   UNL     1       5.062   0.146  23.359  0.00  0.00    +0.120 A 
BRANCH  26   3
ATOM      3  O   UNL     1       6.381   0.390  23.590  0.00  0.00    -0.495 OA
ATOM     32  C   UNL     1       7.319  -0.534  23.040  0.00  0.00    +0.277 C 
ENDBRANCH  26   3
ENDBRANCH  18  20
ENDBRANCH   7  18
ENDBRANCH  10   7
BRANCH  12  16
ATOM     16  C   UNL     1      -3.784   3.974  24.183  0.00  0.00    +0.029 C 
BRANCH  16  17
ATOM     17  C   UNL     1      -5.105   4.096  24.930  0.00  0.00    +0.097 C 
BRANCH  17  19
ATOM      2  O   UNL     1      -6.134   2.635  26.563  0.00  0.00    -0.276 OA
ATOM      8  N   UNL     1      -5.310   1.724  24.594  0.00  0.00    -0.311 N 
ATOM     19  C   UNL     1      -5.580   2.761  25.474  0.00  0.00    +0.213 C 
ATOM     37  H   UNL     1      -4.823   1.911  23.722  0.00  0.00    +0.149 HD
BRANCH   8  23
ATOM     23  C   UNL     1      -5.663   0.355  24.883  0.00  0.00    +0.139 C 
BRANCH  23  27
ATOM     27  C   UNL     1      -4.463  -0.546  24.891  0.00  0.00    -0.030 A 
ATOM     28  C   UNL     1      -3.576  -0.517  25.967  0.00  0.00    +0.009 A 
ATOM     29  C   UNL     1      -4.234  -1.413  23.823  0.00  0.00    +0.009 A 
ATOM     30  C   UNL     1      -2.460  -1.354  25.976  0.00  0.00    +0.046 A 
ATOM     31  C   UNL     1      -3.119  -2.251  23.831  0.00  0.00    +0.046 A 
ATOM     33  C   UNL     1      -2.232  -2.220  24.907  0.00  0.00    +0.120 A 
BRANCH  33   4
ATOM      4  O   UNL     1      -1.144  -3.039  24.915  0.00  0.00    -0.495 OA
ATOM     34  C   UNL     1       0.054  -2.520  25.489  0.00  0.00    +0.277 C 
ENDBRANCH  33   4
ENDBRANCH  23  27
ENDBRANCH   8  23
ENDBRANCH  17  19
ENDBRANCH  16  17
ENDBRANCH  12  16
TORSDOF 10
ENDMDL
MODEL 2
REMARK VINA RESULT:       0.9      1.657      2.626
REMARK  Name = 45360663
REMARK  12 active torsions:
REMARK  status: ('A' for Active; 'I' for Inactive)
REMARK    1  A    between atoms: O_3  and  C_26
REMARK    2  A    between atoms: O_3  and  C_32
REMARK    3  A    between atoms: O_4  and  C_33
REMARK    4  A    between atoms: O_4  and  C_34
REMARK    5  A    between atoms: N_7  and  C_10
REMARK    6  A    between atoms: N_7  and  C_18
REMARK    7  A    between atoms: N_8  and  C_23
REMARK    8  A    between atoms: C_12  and  C_16
REMARK    9  A    between atoms: C_16  and  C_17
REMARK   10  A    between atoms: C_17  and  C_19
REMARK   11  A    between atoms: C_18  and  C_20
REMARK   12  A    between atoms: C_23  and  C_27
REMARK                            x       y       z     vdW  Elec       q    Type
REMARK                         _______ _______ _______ _____ _____    ______ ____
ROOT
ATOM      1  O   UNL     1      -0.751  -0.865  26.581  0.00  0.00    -0.274 OA
ATOM      5  N   UNL     1      -0.881   2.092  24.444  0.00  0.00    -0.286 NA
ATOM      6  N   UNL     1      -0.096   1.271  27.010  0.00  0.00    -0.313 N 
ATOM      9  C   UNL     1      -1.277   0.747  24.882  0.00  0.00    +0.145 C 
ATOM     10  C   UNL     1      -0.132   0.747  22.741  0.00  0.00    +0.070 C 
ATOM     11  C   UNL     1      -0.817  -0.179  23.745  0.00  0.00    +0.048 C 
ATOM     12  C   UNL     1      -0.819   3.078  25.516  0.00  0.00    +0.075 C 
ATOM     13  C   UNL     1       0.294   1.938  23.590  0.00  0.00    +0.104 C 
ATOM     14  C   UNL     1       0.149   2.635  26.602  0.00  0.00    +0.123 C 
ATOM     15  C   UNL     1      -0.669   0.310  26.211  0.00  0.00    +0.230 C 
ATOM     35  H   UNL     1       0.287   0.972  27.902  0.00  0.00    +0.149 HD
ENDROOT
BRANCH  10   7
ATOM      7  N   UNL     1       0.972   0.112  22.039  0.00  0.00    -0.308 NA
ATOM     36  H   UNL     1       0.614  -0.336  21.194  0.00  0.00    +0.123 HD
BRANCH   7  18
ATOM     18  C   UNL     1       1.613  -0.896  22.874  0.00  0.00    +0.116 C 
BRANCH  18  20
ATOM     20  C   UNL     1       3.059  -0.581  23.125  0.00  0.00    -0.033 A 
ATOM     21  C   UNL     1       3.876  -1.516  23.761  0.00  0.00    +0.008 A 
ATOM     22  C   UNL     1       3.585   0.646  22.722  0.00  0.00    +0.008 A 
ATOM     24  C   UNL     1       5.220  -1.222  23.993  0.00  0.00    +0.046 A 
ATOM     25  C   UNL     1       4.929   0.939  22.955  0.00  0.00    +0.046 A 
ATOM     26  C   UNL     1       5.746   0.004  23.590  0.00  0.00    +0.120 A 
BRANCH  26   3
ATOM      3  O   UNL     1       7.057   0.290  23.817  0.00  0.00    -0.495 OA
ATOM     32  C   UNL     1       8.020  -0.404  23.024  0.00  0.00    +0.277 C 
ENDBRANCH  26   3
ENDBRANCH  18  20
ENDBRANCH   7  18
ENDBRANCH  10   7
BRANCH  12  16
ATOM     16  C   UNL     1      -0.474   4.480  25.013  0.00  0.00    +0.029 C 
BRANCH  16  17
ATOM     17  C   UNL     1      -1.645   5.436  25.200  0.00  0.00    +0.097 C 
BRANCH  17  19
ATOM      2  O   UNL     1      -3.243   4.577  26.802  0.00  0.00    -0.276 OA
ATOM      8  N   UNL     1      -3.622   4.238  24.537  0.00  0.00    -0.311 N 
ATOM     19  C   UNL     1      -2.909   4.713  25.628  0.00  0.00    +0.213 C 
ATOM     37  H   UNL     1      -3.260   4.371  23.597  0.00  0.00    +0.149 HD
BRANCH   8  23
ATOM     23  C   UNL     1      -4.861   3.514  24.681  0.00  0.00    +0.139 C 
BRANCH  23  27
ATOM     27  C   UNL     1      -4.671   2.034  24.516  0.00  0.00    -0.030 A 
ATOM     28  C   UNL     1      -4.089   1.531  23.352  0.00  0.00    +0.009 A 
ATOM     29  C   UNL     1      -5.076   1.162  25.526  0.00  0.00    +0.009 A 
ATOM     30  C   UNL     1      -3.911   0.156  23.198  0.00  0.00    +0.046 A 
ATOM     31  C   UNL     1      -4.899  -0.213  25.372  0.00  0.00    +0.046 A 
ATOM     33  C   UNL     1      -4.317  -0.715  24.209  0.00  0.00    +0.120 A 
BRANCH  33   4
ATOM      4  O   UNL     1      -4.144  -2.057  24.059  0.00  0.00    -0.495 OA
ATOM     34  C   UNL     1      -3.306  -2.713  25.010  0.00  0.00    +0.277 C 
ENDBRANCH  33   4
ENDBRANCH  23  27
ENDBRANCH   8  23
ENDBRANCH  17  19
ENDBRANCH  16  17
ENDBRANCH  12  16
TORSDOF 10
ENDMDL
MODEL 3
REMARK VINA RESULT:       1.6      1.858      7.255
REMARK  Name = 45360663
REMARK  12 active torsions:
REMARK  status: ('A' for Active; 'I' for Inactive)
REMARK    1  A    between atoms: O_3  and  C_26
REMARK    2  A    between atoms: O_3  and  C_32
REMARK    3  A    between atoms: O_4  and  C_33
REMARK    4  A    between atoms: O_4  and  C_34
REMARK    5  A    between atoms: N_7  and  C_10
REMARK    6  A    between atoms: N_7  and  C_18
REMARK    7  A    between atoms: N_8  and  C_23
REMARK    8  A    between atoms: C_12  and  C_16
REMARK    9  A    between atoms: C_16  and  C_17
REMARK   10  A    between atoms: C_17  and  C_19
REMARK   11  A    between atoms: C_18  and  C_20
REMARK   12  A    between atoms: C_23  and  C_27
REMARK                            x       y       z     vdW  Elec       q    Type
REMARK                         _______ _______ _______ _____ _____    ______ ____
ROOT
ATOM      1  O   UNL     1      -3.761  -3.791  23.842  0.00  0.00    -0.274 OA
ATOM      5  N   UNL     1      -2.758  -0.901  25.833  0.00  0.00    -0.286 NA
ATOM      6  N   UNL     1      -1.737  -2.765  24.002  0.00  0.00    -0.313 N 
ATOM      9  C   UNL     1      -3.601  -2.053  25.490  0.00  0.00    +0.145 C 
ATOM     10  C   UNL     1      -4.738   0.073  25.200  0.00  0.00    +0.070 C 
ATOM     11  C   UNL     1      -4.952  -1.436  25.090  0.00  0.00    +0.048 C 
ATOM     12  C   UNL     1      -1.327  -1.181  25.830  0.00  0.00    +0.075 C 
ATOM     13  C   UNL     1      -3.232   0.232  25.040  0.00  0.00    +0.104 C 
ATOM     14  C   UNL     1      -0.881  -1.701  24.472  0.00  0.00    +0.123 C 
ATOM     15  C   UNL     1      -3.054  -2.925  24.364  0.00  0.00    +0.230 C 
ATOM     35  H   UNL     1      -1.378  -3.366  23.266  0.00  0.00    +0.149 HD
ENDROOT
BRANCH  10   7
ATOM      7  N   UNL     1      -5.508   0.831  24.225  0.00  0.00    -0.308 NA
ATOM     36  H   UNL     1      -4.950   0.944  23.378  0.00  0.00    +0.123 HD
BRANCH   7  18
ATOM     18  C   UNL     1      -5.856   2.147  24.743  0.00  0.00    +0.116 C 
BRANCH  18  20
ATOM     20  C   UNL     1      -4.648   3.023  24.909  0.00  0.00    -0.033 A 
ATOM     21  C   UNL     1      -3.870   3.356  23.800  0.00  0.00    +0.008 A 
ATOM     22  C   UNL     1      -4.304   3.504  26.173  0.00  0.00    +0.008 A 
ATOM     24  C   UNL     1      -2.747   4.170  23.956  0.00  0.00    +0.046 A 
ATOM     25  C   UNL     1      -3.182   4.318  26.327  0.00  0.00    +0.046 A 
ATOM     26  C   UNL     1      -2.404   4.651  25.218  0.00  0.00    +0.120 A 
BRANCH  26   3
ATOM      3  O   UNL     1      -1.310   5.446  25.370  0.00  0.00    -0.495 OA
ATOM     32  C   UNL     1      -0.294   5.349  24.372  0.00  0.00    +0.277 C 
ENDBRANCH  26   3
ENDBRANCH  18  20
ENDBRANCH   7  18
ENDBRANCH  10   7
BRANCH  12  16
ATOM     16  C   UNL     1      -0.486   0.020  26.261  0.00  0.00    +0.029 C 
BRANCH  16  17
ATOM     17  C   UNL     1      -0.784   1.239  25.398  0.00  0.00    +0.097 C 
BRANCH  17  19
ATOM      2  O   UNL     1       0.856   2.457  24.099  0.00  0.00    -0.276 OA
ATOM      8  N   UNL     1       0.364   0.263  23.524  0.00  0.00    -0.311 N 
ATOM     19  C   UNL     1       0.234   1.414  24.286  0.00  0.00    +0.213 C 
ATOM     37  H   UNL     1      -0.210  -0.550  23.730  0.00  0.00    +0.149 HD
BRANCH   8  23
ATOM     23  C   UNL     1       1.270   0.177  22.404  0.00  0.00    +0.139 C 
BRANCH  23  27
ATOM     27  C   UNL     1       2.693  -0.001  22.844  0.00  0.00    -0.030 A 
ATOM     28  C   UNL     1       3.105  -1.211  23.404  0.00  0.00    +0.009 A 
ATOM     29  C   UNL     1       3.605   1.045  22.695  0.00  0.00    +0.009 A 
ATOM     30  C   UNL     1       4.429  -1.376  23.813  0.00  0.00    +0.046 A 
ATOM     31  C   UNL     1       4.928   0.879  23.104  0.00  0.00    +0.046 A 
ATOM     33  C   UNL     1       5.339  -0.331  23.664  0.00  0.00    +0.120 A 
BRANCH  33   4
ATOM      4  O   UNL     1       6.631  -0.492  24.062  0.00  0.00    -0.495 OA
ATOM     34  C   UNL     1       7.633  -0.458  23.047  0.00  0.00    +0.277 C 
ENDBRANCH  33   4
ENDBRANCH  23  27
ENDBRANCH   8  23
ENDBRANCH  17  19
ENDBRANCH  16  17
ENDBRANCH  12  16
TORSDOF 10
ENDMDL
