MODEL 1
REMARK VINA RESULT:      -5.4      0.000      0.000
REMARK  Name = 45784324
REMARK  4 active torsions:
REMARK  status: ('A' for Active; 'I' for Inactive)
REMARK    1  A    between atoms: N_1  and  C_11
REMARK    2  A    between atoms: C_6  and  C_10
REMARK    3  A    between atoms: C_11  and  C_13
REMARK    4  A    between atoms: C_18  and  C_23
REMARK                            x       y       z     vdW  Elec       q    Type
REMARK                         _______ _______ _______ _____ _____    ______ ____
ROOT
ATOM      1  N   UNL     1      -6.631  -9.437   9.713  0.00  0.00    -0.296 NA
ATOM      6  C   UNL     1      -5.147  -9.428  11.529  0.00  0.00    +0.070 C 
ATOM      7  C   UNL     1      -4.811 -10.604  10.596  0.00  0.00    +0.028 C 
ATOM      8  C   UNL     1      -6.554  -8.984  11.102  0.00  0.00    +0.096 C 
ATOM      9  C   UNL     1      -6.045 -10.778   9.721  0.00  0.00    +0.085 C 
ENDROOT
BRANCH   6  10
ATOM      2  N   UNL     1      -6.120  -9.568  13.838  0.00  0.00    -0.342 N 
ATOM      3  N   UNL     1      -3.993 -10.187  13.645  0.00  0.00    -0.232 NA
ATOM     10  C   UNL     1      -5.050  -9.739  13.004  0.00  0.00    +0.113 A 
ATOM     12  C   UNL     1      -5.726  -9.930  15.101  0.00  0.00    +0.067 A 
ATOM     14  C   UNL     1      -4.396 -10.313  14.955  0.00  0.00    +0.089 A 
ATOM     15  C   UNL     1      -6.400  -9.955  16.324  0.00  0.00    +0.046 A 
ATOM     16  C   UNL     1      -3.680 -10.747  16.082  0.00  0.00    +0.031 A 
ATOM     18  C   UNL     1      -5.672 -10.392  17.435  0.00  0.00    +0.054 A 
ATOM     19  C   UNL     1      -4.336 -10.781  17.319  0.00  0.00    +0.021 A 
ATOM     24  H   UNL     1      -7.037  -9.236  13.575  0.00  0.00    +0.167 HD
BRANCH  18  23
ATOM      5  N   UNL     1      -6.828 -10.477  19.752  0.00  0.00    -0.191 NA
ATOM     23  C   UNL     1      -6.311 -10.439  18.713  0.00  0.00    +0.099 C 
ENDBRANCH  18  23
ENDBRANCH   6  10
BRANCH   1  11
ATOM     11  C   UNL     1      -7.994  -9.431   9.202  0.00  0.00    +0.139 C 
BRANCH  11  13
ATOM      4  N   UNL     1      -7.584  -7.165   8.416  0.00  0.00    -0.259 NA
ATOM     13  C   UNL     1      -8.484  -8.034   8.929  0.00  0.00    +0.055 A 
ATOM     17  C   UNL     1      -9.803  -7.711   9.207  0.00  0.00    +0.024 A 
ATOM     20  C   UNL     1     -10.224  -6.413   8.942  0.00  0.00    +0.003 A 
ATOM     21  C   UNL     1      -8.031  -5.913   8.172  0.00  0.00    +0.111 A 
ATOM     22  C   UNL     1      -9.327  -5.491   8.415  0.00  0.00    +0.020 A 
ENDBRANCH  11  13
ENDBRANCH   1  11
TORSDOF 4
ENDMDL
MODEL 2
REMARK VINA RESULT:      -4.7      1.178      2.013
REMARK  Name = 45784324
REMARK  4 active torsions:
REMARK  status: ('A' for Active; 'I' for Inactive)
REMARK    1  A    between atoms: N_1  and  C_11
REMARK    2  A    between atoms: C_6  and  C_10
REMARK    3  A    between atoms: C_11  and  C_13
REMARK    4  A    between atoms: C_18  and  C_23
REMARK                            x       y       z     vdW  Elec       q    Type
REMARK                         _______ _______ _______ _____ _____    ______ ____
ROOT
ATOM      1  N   UNL     1      -6.696  -9.099   9.640  0.00  0.00    -0.296 NA
ATOM      6  C   UNL     1      -5.995  -9.114  11.878  0.00  0.00    +0.070 C 
ATOM      7  C   UNL     1      -5.268 -10.226  11.103  0.00  0.00    +0.028 C 
ATOM      8  C   UNL     1      -7.167  -8.712  10.971  0.00  0.00    +0.096 C 
ATOM      9  C   UNL     1      -6.076 -10.412   9.827  0.00  0.00    +0.085 C 
ENDROOT
BRANCH   6  10
ATOM      2  N   UNL     1      -5.555  -9.481  14.321  0.00  0.00    -0.342 N 
ATOM      3  N   UNL     1      -7.638  -9.863  13.646  0.00  0.00    -0.232 NA
ATOM     10  C   UNL     1      -6.433  -9.493  13.274  0.00  0.00    +0.113 A 
ATOM     12  C   UNL     1      -6.240  -9.869  15.445  0.00  0.00    +0.067 A 
ATOM     14  C   UNL     1      -7.537 -10.101  14.998  0.00  0.00    +0.089 A 
ATOM     15  C   UNL     1      -5.847 -10.031  16.775  0.00  0.00    +0.046 A 
ATOM     16  C   UNL     1      -8.513 -10.520  15.916  0.00  0.00    +0.031 A 
ATOM     18  C   UNL     1      -6.832 -10.448  17.675  0.00  0.00    +0.054 A 
ATOM     19  C   UNL     1      -8.143 -10.690  17.256  0.00  0.00    +0.021 A 
ATOM     24  H   UNL     1      -4.577  -9.232  14.280  0.00  0.00    +0.167 HD
BRANCH  18  23
ATOM      5  N   UNL     1      -6.209 -10.781  20.168  0.00  0.00    -0.191 NA
ATOM     23  C   UNL     1      -6.488 -10.632  19.051  0.00  0.00    +0.099 C 
ENDBRANCH  18  23
ENDBRANCH   6  10
BRANCH   1  11
ATOM     11  C   UNL     1      -7.770  -9.129   8.659  0.00  0.00    +0.139 C 
BRANCH  11  13
ATOM      4  N   UNL     1      -9.806  -7.798   8.755  0.00  0.00    -0.259 NA
ATOM     13  C   UNL     1      -8.468  -7.799   8.551  0.00  0.00    +0.055 A 
ATOM     17  C   UNL     1      -7.728  -6.665   8.257  0.00  0.00    +0.024 A 
ATOM     20  C   UNL     1      -8.403  -5.453   8.165  0.00  0.00    +0.003 A 
ATOM     21  C   UNL     1     -10.426  -6.601   8.658  0.00  0.00    +0.111 A 
ATOM     22  C   UNL     1      -9.777  -5.412   8.368  0.00  0.00    +0.020 A 
ENDBRANCH  11  13
ENDBRANCH   1  11
TORSDOF 4
ENDMDL
MODEL 3
REMARK VINA RESULT:      -4.0      2.584      5.024
REMARK  Name = 45784324
REMARK  4 active torsions:
REMARK  status: ('A' for Active; 'I' for Inactive)
REMARK    1  A    between atoms: N_1  and  C_11
REMARK    2  A    between atoms: C_6  and  C_10
REMARK    3  A    between atoms: C_11  and  C_13
REMARK    4  A    between atoms: C_18  and  C_23
REMARK                            x       y       z     vdW  Elec       q    Type
REMARK                         _______ _______ _______ _____ _____    ______ ____
ROOT
ATOM      1  N   UNL     1      -5.186 -10.066  10.299  0.00  0.00    -0.296 NA
ATOM      6  C   UNL     1      -6.915  -9.896  11.874  0.00  0.00    +0.070 C 
ATOM      7  C   UNL     1      -6.597  -8.502  11.306  0.00  0.00    +0.028 C 
ATOM      8  C   UNL     1      -5.711 -10.761  11.475  0.00  0.00    +0.096 C 
ATOM      9  C   UNL     1      -5.231  -8.645  10.649  0.00  0.00    +0.085 C 
ENDROOT
BRANCH   6  10
ATOM      2  N   UNL     1      -6.208 -10.188  14.264  0.00  0.00    -0.342 N 
ATOM      3  N   UNL     1      -8.359  -9.725  13.941  0.00  0.00    -0.232 NA
ATOM     10  C   UNL     1      -7.199  -9.928  13.358  0.00  0.00    +0.113 A 
ATOM     12  C   UNL     1      -6.767 -10.150  15.516  0.00  0.00    +0.067 A 
ATOM     14  C   UNL     1      -8.109  -9.858  15.288  0.00  0.00    +0.089 A 
ATOM     15  C   UNL     1      -6.230 -10.339  16.790  0.00  0.00    +0.046 A 
ATOM     16  C   UNL     1      -8.981  -9.746  16.383  0.00  0.00    +0.031 A 
ATOM     18  C   UNL     1      -7.113 -10.222  17.869  0.00  0.00    +0.054 A 
ATOM     19  C   UNL     1      -8.465  -9.932  17.671  0.00  0.00    +0.021 A 
ATOM     24  H   UNL     1      -5.238 -10.376  14.054  0.00  0.00    +0.167 HD
BRANCH  18  23
ATOM      5  N   UNL     1      -6.219 -10.555  20.278  0.00  0.00    -0.191 NA
ATOM     23  C   UNL     1      -6.619 -10.406  19.198  0.00  0.00    +0.099 C 
ENDBRANCH  18  23
ENDBRANCH   6  10
BRANCH   1  11
ATOM     11  C   UNL     1      -3.845 -10.506   9.947  0.00  0.00    +0.139 C 
BRANCH  11  13
ATOM      4  N   UNL     1      -3.014 -10.779  12.218  0.00  0.00    -0.259 NA
ATOM     13  C   UNL     1      -2.845 -10.172  11.021  0.00  0.00    +0.055 A 
ATOM     17  C   UNL     1      -1.821  -9.280  10.743  0.00  0.00    +0.024 A 
ATOM     20  C   UNL     1      -0.914  -8.993  11.756  0.00  0.00    +0.003 A 
ATOM     21  C   UNL     1      -2.112 -10.475  13.178  0.00  0.00    +0.111 A 
ATOM     22  C   UNL     1      -1.056  -9.598  13.000  0.00  0.00    +0.020 A 
ENDBRANCH  11  13
ENDBRANCH   1  11
TORSDOF 4
ENDMDL
MODEL 4
REMARK VINA RESULT:      -2.9      3.012      5.742
REMARK  Name = 45784324
REMARK  4 active torsions:
REMARK  status: ('A' for Active; 'I' for Inactive)
REMARK    1  A    between atoms: N_1  and  C_11
REMARK    2  A    between atoms: C_6  and  C_10
REMARK    3  A    between atoms: C_11  and  C_13
REMARK    4  A    between atoms: C_18  and  C_23
REMARK                            x       y       z     vdW  Elec       q    Type
REMARK                         _______ _______ _______ _____ _____    ______ ____
ROOT
ATOM      1  N   UNL     1      -4.240 -10.184  10.417  0.00  0.00    -0.296 NA
ATOM      6  C   UNL     1      -6.505  -9.851  10.923  0.00  0.00    +0.070 C 
ATOM      7  C   UNL     1      -5.863  -8.510  10.529  0.00  0.00    +0.028 C 
ATOM      8  C   UNL     1      -5.317 -10.781  11.208  0.00  0.00    +0.096 C 
ATOM      9  C   UNL     1      -4.362  -8.743  10.641  0.00  0.00    +0.085 C 
ENDROOT
BRANCH   6  10
ATOM      2  N   UNL     1      -7.053  -9.761  13.370  0.00  0.00    -0.342 N 
ATOM      3  N   UNL     1      -8.793  -9.716  11.987  0.00  0.00    -0.232 NA
ATOM     10  C   UNL     1      -7.483  -9.775  12.072  0.00  0.00    +0.113 A 
ATOM     12  C   UNL     1      -8.160  -9.688  14.176  0.00  0.00    +0.067 A 
ATOM     14  C   UNL     1      -9.234  -9.660  13.290  0.00  0.00    +0.089 A 
ATOM     15  C   UNL     1      -8.311  -9.644  15.563  0.00  0.00    +0.046 A 
ATOM     16  C   UNL     1     -10.540  -9.586  13.799  0.00  0.00    +0.031 A 
ATOM     18  C   UNL     1      -9.619  -9.569  16.052  0.00  0.00    +0.054 A 
ATOM     19  C   UNL     1     -10.716  -9.541  15.187  0.00  0.00    +0.021 A 
ATOM     24  H   UNL     1      -6.093  -9.797  13.684  0.00  0.00    +0.167 HD
BRANCH  18  23
ATOM      5  N   UNL     1     -10.010  -9.482  18.612  0.00  0.00    -0.191 NA
ATOM     23  C   UNL     1      -9.835  -9.521  17.465  0.00  0.00    +0.099 C 
ENDBRANCH  18  23
ENDBRANCH   6  10
BRANCH   1  11
ATOM     11  C   UNL     1      -2.929 -10.693  10.793  0.00  0.00    +0.139 C 
BRANCH  11  13
ATOM      4  N   UNL     1      -1.418  -9.957  12.554  0.00  0.00    -0.259 NA
ATOM     13  C   UNL     1      -2.636 -10.463  12.252  0.00  0.00    +0.055 A 
ATOM     17  C   UNL     1      -3.603 -10.771  13.196  0.00  0.00    +0.024 A 
ATOM     20  C   UNL     1      -3.300 -10.546  14.534  0.00  0.00    +0.003 A 
ATOM     21  C   UNL     1      -1.161  -9.752  13.865  0.00  0.00    +0.111 A 
ATOM     22  C   UNL     1      -2.059 -10.027  14.883  0.00  0.00    +0.020 A 
ENDBRANCH  11  13
ENDBRANCH   1  11
TORSDOF 4
ENDMDL
MODEL 5
REMARK VINA RESULT:      -1.8     15.259     17.856
REMARK  Name = 45784324
REMARK  4 active torsions:
REMARK  status: ('A' for Active; 'I' for Inactive)
REMARK    1  A    between atoms: N_1  and  C_11
REMARK    2  A    between atoms: C_6  and  C_10
REMARK    3  A    between atoms: C_11  and  C_13
REMARK    4  A    between atoms: C_18  and  C_23
REMARK                            x       y       z     vdW  Elec       q    Type
REMARK                         _______ _______ _______ _____ _____    ______ ____
ROOT
ATOM      1  N   UNL     1       0.852  -0.725  23.580  0.00  0.00    -0.296 NA
ATOM      6  C   UNL     1      -1.022  -0.396  24.950  0.00  0.00    +0.070 C 
ATOM      7  C   UNL     1      -1.163  -1.730  24.196  0.00  0.00    +0.028 C 
ATOM      8  C   UNL     1       0.088   0.357  24.202  0.00  0.00    +0.096 C 
ATOM      9  C   UNL     1      -0.156  -1.647  23.057  0.00  0.00    +0.085 C 
ENDROOT
BRANCH   6  10
ATOM      2  N   UNL     1      -2.277   1.769  25.135  0.00  0.00    -0.342 N 
ATOM      3  N   UNL     1      -3.522  -0.073  25.130  0.00  0.00    -0.232 NA
ATOM     10  C   UNL     1      -2.298   0.403  25.072  0.00  0.00    +0.113 A 
ATOM     12  C   UNL     1      -3.574   2.202  25.241  0.00  0.00    +0.067 A 
ATOM     14  C   UNL     1      -4.332   1.034  25.235  0.00  0.00    +0.089 A 
ATOM     15  C   UNL     1      -4.133   3.477  25.338  0.00  0.00    +0.046 A 
ATOM     16  C   UNL     1      -5.730   1.124  25.332  0.00  0.00    +0.031 A 
ATOM     18  C   UNL     1      -5.527   3.548  25.432  0.00  0.00    +0.054 A 
ATOM     19  C   UNL     1      -6.313   2.394  25.430  0.00  0.00    +0.021 A 
ATOM     24  H   UNL     1      -1.456   2.357  25.108  0.00  0.00    +0.167 HD
BRANCH  18  23
ATOM      5  N   UNL     1      -6.666   5.868  25.616  0.00  0.00    -0.191 NA
ATOM     23  C   UNL     1      -6.156   4.828  25.534  0.00  0.00    +0.099 C 
ENDBRANCH  18  23
ENDBRANCH   6  10
BRANCH   1  11
ATOM     11  C   UNL     1       1.752  -0.242  22.542  0.00  0.00    +0.139 C 
BRANCH  11  13
ATOM      4  N   UNL     1       3.661  -1.365  23.552  0.00  0.00    -0.259 NA
ATOM     13  C   UNL     1       3.184  -0.222  23.007  0.00  0.00    +0.055 A 
ATOM     17  C   UNL     1       3.930   0.936  22.857  0.00  0.00    +0.024 A 
ATOM     20  C   UNL     1       5.249   0.921  23.296  0.00  0.00    +0.003 A 
ATOM     21  C   UNL     1       4.947  -1.341  23.965  0.00  0.00    +0.111 A 
ATOM     22  C   UNL     1       5.775  -0.235  23.861  0.00  0.00    +0.020 A 
ENDBRANCH  11  13
ENDBRANCH   1  11
TORSDOF 4
ENDMDL
