MODEL 1
REMARK VINA RESULT:      -1.3      0.000      0.000
REMARK  Name = 45784016
REMARK  2 active torsions:
REMARK  status: ('A' for Active; 'I' for Inactive)
REMARK    1  A    between atoms: C_7  and  C_11
REMARK    2  A    between atoms: C_12  and  C_15
REMARK                            x       y       z     vdW  Elec       q    Type
REMARK                         _______ _______ _______ _____ _____    ______ ____
ROOT
ATOM      3  O   UNL     1       1.281  -0.729  21.035  0.00  0.00    -0.270 OA
ATOM      4  N   UNL     1       0.447  -0.974  23.189  0.00  0.00    -0.297 N 
ATOM      7  C   UNL     1      -0.907  -0.875  25.143  0.00  0.00    +0.074 C 
ATOM      8  C   UNL     1      -1.598  -1.743  24.080  0.00  0.00    +0.032 C 
ATOM      9  C   UNL     1       0.546  -0.857  24.645  0.00  0.00    +0.119 C 
ATOM     10  C   UNL     1      -0.896  -1.362  22.784  0.00  0.00    +0.109 C 
ATOM     12  C   UNL     1       1.431  -0.688  22.255  0.00  0.00    +0.247 C 
ENDROOT
BRANCH   7  11
ATOM      1  F   UNL     1      -5.533   4.727  25.445  0.00  0.00    -0.205 F 
ATOM      5  N   UNL     1      -2.930   0.620  25.079  0.00  0.00    -0.341 N 
ATOM      6  N   UNL     1      -1.019   1.609  25.635  0.00  0.00    -0.232 NA
ATOM     11  C   UNL     1      -1.588   0.473  25.296  0.00  0.00    +0.113 A 
ATOM     13  C   UNL     1      -3.247   1.937  25.291  0.00  0.00    +0.069 A 
ATOM     14  C   UNL     1      -2.038   2.533  25.637  0.00  0.00    +0.089 A 
ATOM     16  C   UNL     1      -4.452   2.637  25.214  0.00  0.00    +0.066 A 
ATOM     17  C   UNL     1      -2.010   3.907  25.926  0.00  0.00    +0.032 A 
ATOM     20  C   UNL     1      -4.406   4.004  25.504  0.00  0.00    +0.125 A 
ATOM     21  C   UNL     1      -3.207   4.631  25.854  0.00  0.00    +0.040 A 
ATOM     25  H   UNL     1      -3.576  -0.110  24.808  0.00  0.00    +0.167 HD
ENDBRANCH   7  11
BRANCH  12  15
ATOM      2  F   UNL     1       6.466   0.829  24.178  0.00  0.00    -0.205 F 
ATOM     15  C   UNL     1       2.753  -0.290  22.761  0.00  0.00    +0.037 A 
ATOM     18  C   UNL     1       3.556  -1.219  23.423  0.00  0.00    +0.016 A 
ATOM     19  C   UNL     1       3.205   1.017  22.577  0.00  0.00    +0.016 A 
ATOM     22  C   UNL     1       4.810  -0.841  23.902  0.00  0.00    +0.039 A 
ATOM     23  C   UNL     1       4.459   1.395  23.057  0.00  0.00    +0.039 A 
ATOM     24  C   UNL     1       5.261   0.466  23.719  0.00  0.00    +0.123 A 
ENDBRANCH  12  15
TORSDOF 2
ENDMDL
MODEL 2
REMARK VINA RESULT:       1.8      2.027      7.414
REMARK  Name = 45784016
REMARK  2 active torsions:
REMARK  status: ('A' for Active; 'I' for Inactive)
REMARK    1  A    between atoms: C_7  and  C_11
REMARK    2  A    between atoms: C_12  and  C_15
REMARK                            x       y       z     vdW  Elec       q    Type
REMARK                         _______ _______ _______ _____ _____    ______ ____
ROOT
ATOM      3  O   UNL     1      -2.013   0.517  26.540  0.00  0.00    -0.270 OA
ATOM      4  N   UNL     1      -1.126   0.341  24.400  0.00  0.00    -0.297 N 
ATOM      7  C   UNL     1       0.205  -0.242  22.516  0.00  0.00    +0.074 C 
ATOM      8  C   UNL     1      -0.584  -1.472  22.992  0.00  0.00    +0.032 C 
ATOM      9  C   UNL     1      -0.576   0.909  23.168  0.00  0.00    +0.119 C 
ATOM     10  C   UNL     1      -1.009  -1.109  24.408  0.00  0.00    +0.109 C 
ATOM     12  C   UNL     1      -1.629   1.032  25.492  0.00  0.00    +0.247 C 
ENDROOT
BRANCH   7  11
ATOM      1  F   UNL     1       7.307   0.817  23.666  0.00  0.00    -0.205 F 
ATOM      5  N   UNL     1       2.532   0.702  22.681  0.00  0.00    -0.341 N 
ATOM      6  N   UNL     1       2.291  -1.397  23.374  0.00  0.00    -0.232 NA
ATOM     11  C   UNL     1       1.677  -0.349  22.871  0.00  0.00    +0.113 A 
ATOM     13  C   UNL     1       3.780   0.305  23.090  0.00  0.00    +0.069 A 
ATOM     14  C   UNL     1       3.603  -1.008  23.518  0.00  0.00    +0.089 A 
ATOM     16  C   UNL     1       5.011   0.962  23.121  0.00  0.00    +0.066 A 
ATOM     17  C   UNL     1       4.708  -1.722  24.010  0.00  0.00    +0.032 A 
ATOM     20  C   UNL     1       6.100   0.236  23.613  0.00  0.00    +0.125 A 
ATOM     21  C   UNL     1       5.954  -1.083  24.050  0.00  0.00    +0.040 A 
ATOM     25  H   UNL     1       2.290   1.609  22.306  0.00  0.00    +0.167 HD
ENDBRANCH   7  11
BRANCH  12  15
ATOM      2  F   UNL     1      -1.875   6.615  25.127  0.00  0.00    -0.205 F 
ATOM     15  C   UNL     1      -1.694   2.499  25.397  0.00  0.00    +0.037 A 
ATOM     18  C   UNL     1      -0.535   3.233  25.141  0.00  0.00    +0.016 A 
ATOM     19  C   UNL     1      -2.914   3.156  25.561  0.00  0.00    +0.016 A 
ATOM     22  C   UNL     1      -0.597   4.624  25.050  0.00  0.00    +0.039 A 
ATOM     23  C   UNL     1      -2.974   4.546  25.472  0.00  0.00    +0.039 A 
ATOM     24  C   UNL     1      -1.816   5.280  25.216  0.00  0.00    +0.123 A 
ENDBRANCH  12  15
TORSDOF 2
ENDMDL
