MODEL 1
REMARK VINA RESULT:      -5.1      0.000      0.000
REMARK  Name = 75367805
REMARK  10 active torsions:
REMARK  status: ('A' for Active; 'I' for Inactive)
REMARK    1  A    between atoms: O_1  and  C_5
REMARK    2  A    between atoms: O_1  and  C_11
REMARK    3  A    between atoms: O_3  and  C_21
REMARK    4  A    between atoms: O_3  and  C_22
REMARK    5  A    between atoms: N_4  and  C_9
REMARK    6  A    between atoms: C_9  and  C_14
REMARK    7  A    between atoms: C_11  and  C_12
REMARK    8  A    between atoms: C_12  and  C_13
REMARK    9  A    between atoms: C_13  and  C_15
REMARK   10  A    between atoms: C_13  and  C_16
REMARK                            x       y       z     vdW  Elec       q    Type
REMARK                         _______ _______ _______ _____ _____    ______ ____
ROOT
ATOM      2  O   UNL     1       1.474  -0.852  23.267  0.00  0.00    -0.376 OA
ATOM      4  N   UNL     1      -0.131   1.735  23.951  0.00  0.00    -0.293 NA
ATOM      5  C   UNL     1      -0.232  -0.626  24.970  0.00  0.00    +0.158 C 
ATOM      6  C   UNL     1      -0.763   0.815  24.904  0.00  0.00    +0.118 C 
ATOM      7  C   UNL     1       1.315   1.555  23.808  0.00  0.00    +0.113 C 
ATOM      8  C   UNL     1       0.144  -1.219  23.619  0.00  0.00    +0.192 C 
ATOM     10  C   UNL     1       1.606   0.472  22.768  0.00  0.00    +0.175 C 
ENDROOT
BRANCH   5   1
ATOM      1  O   UNL     1      -1.249  -1.448  25.545  0.00  0.00    -0.373 OA
BRANCH   1  11
ATOM     11  C   UNL     1      -1.821  -2.313  24.576  0.00  0.00    +0.160 C 
BRANCH  11  12
ATOM     12  C   UNL     1      -3.305  -2.475  24.882  0.00  0.00    +0.031 C 
BRANCH  12  13
ATOM     13  C   UNL     1      -4.166  -1.288  24.421  0.00  0.00    -0.015 C 
ATOM     15  C   UNL     1      -4.265  -0.251  25.542  0.00  0.00    +0.007 C 
ATOM     16  C   UNL     1      -3.619  -0.630  23.154  0.00  0.00    +0.007 C 
ENDBRANCH  12  13
ENDBRANCH  11  12
ENDBRANCH   1  11
ENDBRANCH   5   1
BRANCH   4   9
ATOM      9  C   UNL     1      -0.469   3.117  24.287  0.00  0.00    +0.119 C 
BRANCH   9  14
ATOM     14  C   UNL     1      -1.914   3.261  24.685  0.00  0.00    -0.033 A 
ATOM     17  C   UNL     1      -2.922   2.843  23.817  0.00  0.00    +0.008 A 
ATOM     18  C   UNL     1      -2.245   3.812  25.923  0.00  0.00    +0.008 A 
ATOM     19  C   UNL     1      -4.261   2.975  24.186  0.00  0.00    +0.046 A 
ATOM     20  C   UNL     1      -3.583   3.945  26.293  0.00  0.00    +0.046 A 
ATOM     21  C   UNL     1      -4.591   3.527  25.424  0.00  0.00    +0.120 A 
BRANCH  21   3
ATOM      3  O   UNL     1      -5.897   3.656  25.785  0.00  0.00    -0.495 OA
ATOM     22  C   UNL     1      -6.588   2.465  26.157  0.00  0.00    +0.277 C 
ENDBRANCH  21   3
ENDBRANCH   9  14
ENDBRANCH   4   9
TORSDOF 7
ENDMDL
MODEL 2
REMARK VINA RESULT:      -4.8      2.096      4.255
REMARK  Name = 75367805
REMARK  10 active torsions:
REMARK  status: ('A' for Active; 'I' for Inactive)
REMARK    1  A    between atoms: O_1  and  C_5
REMARK    2  A    between atoms: O_1  and  C_11
REMARK    3  A    between atoms: O_3  and  C_21
REMARK    4  A    between atoms: O_3  and  C_22
REMARK    5  A    between atoms: N_4  and  C_9
REMARK    6  A    between atoms: C_9  and  C_14
REMARK    7  A    between atoms: C_11  and  C_12
REMARK    8  A    between atoms: C_12  and  C_13
REMARK    9  A    between atoms: C_13  and  C_15
REMARK   10  A    between atoms: C_13  and  C_16
REMARK                            x       y       z     vdW  Elec       q    Type
REMARK                         _______ _______ _______ _____ _____    ______ ____
ROOT
ATOM      2  O   UNL     1      -3.788  -3.084  24.277  0.00  0.00    -0.376 OA
ATOM      4  N   UNL     1      -1.475  -0.998  24.445  0.00  0.00    -0.293 NA
ATOM      5  C   UNL     1      -3.846  -0.964  25.444  0.00  0.00    +0.158 C 
ATOM      6  C   UNL     1      -2.495  -0.269  25.208  0.00  0.00    +0.118 C 
ATOM      7  C   UNL     1      -1.441  -2.438  24.706  0.00  0.00    +0.113 C 
ATOM      8  C   UNL     1      -4.351  -1.777  24.260  0.00  0.00    +0.192 C 
ATOM     10  C   UNL     1      -2.449  -3.155  23.807  0.00  0.00    +0.175 C 
ENDROOT
BRANCH   5   1
ATOM      1  O   UNL     1      -4.817   0.041  25.736  0.00  0.00    -0.373 OA
BRANCH   1  11
ATOM     11  C   UNL     1      -5.143   0.793  24.578  0.00  0.00    +0.160 C 
BRANCH  11  12
ATOM     12  C   UNL     1      -5.743   2.125  25.013  0.00  0.00    +0.031 C 
BRANCH  12  13
ATOM     13  C   UNL     1      -4.802   3.324  24.809  0.00  0.00    -0.015 C 
ATOM     15  C   UNL     1      -3.978   3.560  26.076  0.00  0.00    +0.007 C 
ATOM     16  C   UNL     1      -3.869   3.134  23.612  0.00  0.00    +0.007 C 
ENDBRANCH  12  13
ENDBRANCH  11  12
ENDBRANCH   1  11
ENDBRANCH   5   1
BRANCH   4   9
ATOM      9  C   UNL     1      -0.163  -0.386  24.649  0.00  0.00    +0.119 C 
BRANCH   9  14
ATOM     14  C   UNL     1      -0.252   1.114  24.746  0.00  0.00    -0.033 A 
ATOM     17  C   UNL     1      -0.322   1.886  23.587  0.00  0.00    +0.008 A 
ATOM     18  C   UNL     1      -0.267   1.732  25.997  0.00  0.00    +0.008 A 
ATOM     19  C   UNL     1      -0.406   3.276  23.677  0.00  0.00    +0.046 A 
ATOM     20  C   UNL     1      -0.351   3.121  26.089  0.00  0.00    +0.046 A 
ATOM     21  C   UNL     1      -0.420   3.893  24.928  0.00  0.00    +0.120 A 
BRANCH  21   3
ATOM      3  O   UNL     1      -0.503   5.249  25.018  0.00  0.00    -0.495 OA
ATOM     22  C   UNL     1      -1.809   5.821  25.015  0.00  0.00    +0.277 C 
ENDBRANCH  21   3
ENDBRANCH   9  14
ENDBRANCH   4   9
TORSDOF 7
ENDMDL
MODEL 3
REMARK VINA RESULT:      -4.7      1.427      2.296
REMARK  Name = 75367805
REMARK  10 active torsions:
REMARK  status: ('A' for Active; 'I' for Inactive)
REMARK    1  A    between atoms: O_1  and  C_5
REMARK    2  A    between atoms: O_1  and  C_11
REMARK    3  A    between atoms: O_3  and  C_21
REMARK    4  A    between atoms: O_3  and  C_22
REMARK    5  A    between atoms: N_4  and  C_9
REMARK    6  A    between atoms: C_9  and  C_14
REMARK    7  A    between atoms: C_11  and  C_12
REMARK    8  A    between atoms: C_12  and  C_13
REMARK    9  A    between atoms: C_13  and  C_15
REMARK   10  A    between atoms: C_13  and  C_16
REMARK                            x       y       z     vdW  Elec       q    Type
REMARK                         _______ _______ _______ _____ _____    ______ ____
ROOT
ATOM      2  O   UNL     1       1.051   2.146  24.698  0.00  0.00    -0.376 OA
ATOM      4  N   UNL     1      -1.657   2.210  23.151  0.00  0.00    -0.293 NA
ATOM      5  C   UNL     1      -0.402   0.259  24.263  0.00  0.00    +0.158 C 
ATOM      6  C   UNL     1      -1.590   0.772  23.434  0.00  0.00    +0.118 C 
ATOM      7  C   UNL     1      -1.200   3.063  24.250  0.00  0.00    +0.113 C 
ATOM      8  C   UNL     1       0.924   0.941  23.951  0.00  0.00    +0.192 C 
ATOM     10  C   UNL     1       0.317   3.244  24.174  0.00  0.00    +0.175 C 
ENDROOT
BRANCH   5   1
ATOM      1  O   UNL     1      -0.251  -1.137  24.005  0.00  0.00    -0.373 OA
BRANCH   1  11
ATOM     11  C   UNL     1      -0.866  -1.917  25.017  0.00  0.00    +0.160 C 
BRANCH  11  12
ATOM     12  C   UNL     1      -1.954  -2.774  24.381  0.00  0.00    +0.031 C 
BRANCH  12  13
ATOM     13  C   UNL     1      -3.364  -2.486  24.919  0.00  0.00    -0.015 C 
ATOM     15  C   UNL     1      -3.302  -1.377  25.972  0.00  0.00    +0.007 C 
ATOM     16  C   UNL     1      -4.342  -2.093  23.811  0.00  0.00    +0.007 C 
ENDBRANCH  12  13
ENDBRANCH  11  12
ENDBRANCH   1  11
ENDBRANCH   5   1
BRANCH   4   9
ATOM      9  C   UNL     1      -3.004   2.575  22.715  0.00  0.00    +0.119 C 
BRANCH   9  14
ATOM     14  C   UNL     1      -3.988   2.556  23.855  0.00  0.00    -0.033 A 
ATOM     17  C   UNL     1      -4.290   3.735  24.535  0.00  0.00    +0.008 A 
ATOM     18  C   UNL     1      -4.598   1.359  24.230  0.00  0.00    +0.008 A 
ATOM     19  C   UNL     1      -5.202   3.718  25.591  0.00  0.00    +0.046 A 
ATOM     20  C   UNL     1      -5.509   1.340  25.285  0.00  0.00    +0.046 A 
ATOM     21  C   UNL     1      -5.811   2.520  25.966  0.00  0.00    +0.120 A 
BRANCH  21   3
ATOM      3  O   UNL     1      -6.702   2.502  26.995  0.00  0.00    -0.495 OA
ATOM     22  C   UNL     1      -6.961   1.240  27.607  0.00  0.00    +0.277 C 
ENDBRANCH  21   3
ENDBRANCH   9  14
ENDBRANCH   4   9
TORSDOF 7
ENDMDL
MODEL 4
REMARK VINA RESULT:      -4.2      1.550      5.406
REMARK  Name = 75367805
REMARK  10 active torsions:
REMARK  status: ('A' for Active; 'I' for Inactive)
REMARK    1  A    between atoms: O_1  and  C_5
REMARK    2  A    between atoms: O_1  and  C_11
REMARK    3  A    between atoms: O_3  and  C_21
REMARK    4  A    between atoms: O_3  and  C_22
REMARK    5  A    between atoms: N_4  and  C_9
REMARK    6  A    between atoms: C_9  and  C_14
REMARK    7  A    between atoms: C_11  and  C_12
REMARK    8  A    between atoms: C_12  and  C_13
REMARK    9  A    between atoms: C_13  and  C_15
REMARK   10  A    between atoms: C_13  and  C_16
REMARK                            x       y       z     vdW  Elec       q    Type
REMARK                         _______ _______ _______ _____ _____    ______ ____
ROOT
ATOM      2  O   UNL     1      -5.880   3.760  25.102  0.00  0.00    -0.376 OA
ATOM      4  N   UNL     1      -2.976   3.036  25.984  0.00  0.00    -0.293 NA
ATOM      5  C   UNL     1      -4.682   1.725  24.572  0.00  0.00    +0.158 C 
ATOM      6  C   UNL     1      -3.309   1.804  25.258  0.00  0.00    +0.118 C 
ATOM      7  C   UNL     1      -3.472   4.260  25.352  0.00  0.00    +0.113 C 
ATOM      8  C   UNL     1      -5.818   2.362  25.361  0.00  0.00    +0.192 C 
ATOM     10  C   UNL     1      -4.910   4.532  25.797  0.00  0.00    +0.175 C 
ENDROOT
BRANCH   5   1
ATOM      1  O   UNL     1      -5.001   0.346  24.375  0.00  0.00    -0.373 OA
BRANCH   1  11
ATOM     11  C   UNL     1      -3.919  -0.352  23.780  0.00  0.00    +0.160 C 
BRANCH  11  12
ATOM     12  C   UNL     1      -4.196  -1.848  23.868  0.00  0.00    +0.031 C 
BRANCH  12  13
ATOM     13  C   UNL     1      -3.354  -2.573  24.931  0.00  0.00    -0.015 C 
ATOM     15  C   UNL     1      -1.943  -2.821  24.394  0.00  0.00    +0.007 C 
ATOM     16  C   UNL     1      -3.279  -1.795  26.245  0.00  0.00    +0.007 C 
ENDBRANCH  12  13
ENDBRANCH  11  12
ENDBRANCH   1  11
ENDBRANCH   5   1
BRANCH   4   9
ATOM      9  C   UNL     1      -1.536   3.103  26.226  0.00  0.00    +0.119 C 
BRANCH   9  14
ATOM     14  C   UNL     1      -0.770   2.181  25.315  0.00  0.00    -0.033 A 
ATOM     17  C   UNL     1       0.074   2.707  24.338  0.00  0.00    +0.008 A 
ATOM     18  C   UNL     1      -0.903   0.799  25.450  0.00  0.00    +0.008 A 
ATOM     19  C   UNL     1       0.786   1.853  23.495  0.00  0.00    +0.046 A 
ATOM     20  C   UNL     1      -0.193  -0.057  24.608  0.00  0.00    +0.046 A 
ATOM     21  C   UNL     1       0.652   0.471  23.630  0.00  0.00    +0.120 A 
BRANCH  21   3
ATOM      3  O   UNL     1       1.345  -0.364  22.809  0.00  0.00    -0.495 OA
ATOM     22  C   UNL     1       2.653   0.050  22.418  0.00  0.00    +0.277 C 
ENDBRANCH  21   3
ENDBRANCH   9  14
ENDBRANCH   4   9
TORSDOF 7
ENDMDL
MODEL 5
REMARK VINA RESULT:      -3.8      1.840      4.440
REMARK  Name = 75367805
REMARK  10 active torsions:
REMARK  status: ('A' for Active; 'I' for Inactive)
REMARK    1  A    between atoms: O_1  and  C_5
REMARK    2  A    between atoms: O_1  and  C_11
REMARK    3  A    between atoms: O_3  and  C_21
REMARK    4  A    between atoms: O_3  and  C_22
REMARK    5  A    between atoms: N_4  and  C_9
REMARK    6  A    between atoms: C_9  and  C_14
REMARK    7  A    between atoms: C_11  and  C_12
REMARK    8  A    between atoms: C_12  and  C_13
REMARK    9  A    between atoms: C_13  and  C_15
REMARK   10  A    between atoms: C_13  and  C_16
REMARK                            x       y       z     vdW  Elec       q    Type
REMARK                         _______ _______ _______ _____ _____    ______ ____
ROOT
ATOM      2  O   UNL     1      -2.548  -3.230  24.119  0.00  0.00    -0.376 OA
ATOM      4  N   UNL     1      -3.866  -0.485  24.797  0.00  0.00    -0.293 NA
ATOM      5  C   UNL     1      -1.424  -1.091  24.260  0.00  0.00    +0.158 C 
ATOM      6  C   UNL     1      -2.473  -0.042  24.662  0.00  0.00    +0.118 C 
ATOM      7  C   UNL     1      -4.277  -1.490  23.815  0.00  0.00    +0.113 C 
ATOM      8  C   UNL     1      -1.631  -2.462  24.890  0.00  0.00    +0.192 C 
ATOM     10  C   UNL     1      -3.913  -2.888  24.316  0.00  0.00    +0.175 C 
ENDROOT
BRANCH   5   1
ATOM      1  O   UNL     1      -0.140  -0.610  24.661  0.00  0.00    -0.373 OA
BRANCH   1  11
ATOM     11  C   UNL     1      -0.102   0.807  24.675  0.00  0.00    +0.160 C 
BRANCH  11  12
ATOM     12  C   UNL     1       0.842   1.282  23.578  0.00  0.00    +0.031 C 
BRANCH  12  13
ATOM     13  C   UNL     1       1.817   0.199  23.088  0.00  0.00    -0.015 C 
ATOM     15  C   UNL     1       1.324  -0.382  21.760  0.00  0.00    +0.007 C 
ATOM     16  C   UNL     1       3.242   0.729  22.922  0.00  0.00    +0.007 C 
ENDBRANCH  12  13
ENDBRANCH  11  12
ENDBRANCH   1  11
ENDBRANCH   5   1
BRANCH   4   9
ATOM      9  C   UNL     1      -4.763   0.670  24.790  0.00  0.00    +0.119 C 
BRANCH   9  14
ATOM     14  C   UNL     1      -4.006   1.970  24.857  0.00  0.00    -0.033 A 
ATOM     17  C   UNL     1      -3.233   2.384  23.773  0.00  0.00    +0.008 A 
ATOM     18  C   UNL     1      -4.079   2.760  26.004  0.00  0.00    +0.008 A 
ATOM     19  C   UNL     1      -2.533   3.589  23.835  0.00  0.00    +0.046 A 
ATOM     20  C   UNL     1      -3.379   3.965  26.068  0.00  0.00    +0.046 A 
ATOM     21  C   UNL     1      -2.606   4.379  24.983  0.00  0.00    +0.120 A 
BRANCH  21   3
ATOM      3  O   UNL     1      -1.923   5.555  25.044  0.00  0.00    -0.495 OA
ATOM     22  C   UNL     1      -0.539   5.521  24.701  0.00  0.00    +0.277 C 
ENDBRANCH  21   3
ENDBRANCH   9  14
ENDBRANCH   4   9
TORSDOF 7
ENDMDL
MODEL 6
REMARK VINA RESULT:      -3.4      2.086      4.765
REMARK  Name = 75367805
REMARK  10 active torsions:
REMARK  status: ('A' for Active; 'I' for Inactive)
REMARK    1  A    between atoms: O_1  and  C_5
REMARK    2  A    between atoms: O_1  and  C_11
REMARK    3  A    between atoms: O_3  and  C_21
REMARK    4  A    between atoms: O_3  and  C_22
REMARK    5  A    between atoms: N_4  and  C_9
REMARK    6  A    between atoms: C_9  and  C_14
REMARK    7  A    between atoms: C_11  and  C_12
REMARK    8  A    between atoms: C_12  and  C_13
REMARK    9  A    between atoms: C_13  and  C_15
REMARK   10  A    between atoms: C_13  and  C_16
REMARK                            x       y       z     vdW  Elec       q    Type
REMARK                         _______ _______ _______ _____ _____    ______ ____
ROOT
ATOM      2  O   UNL     1      -0.474   5.413  25.075  0.00  0.00    -0.376 OA
ATOM      4  N   UNL     1      -2.937   3.534  24.706  0.00  0.00    -0.293 NA
ATOM      5  C   UNL     1      -0.426   3.000  24.882  0.00  0.00    +0.158 C 
ATOM      6  C   UNL     1      -1.873   2.524  24.673  0.00  0.00    +0.118 C 
ATOM      7  C   UNL     1      -2.726   4.600  25.687  0.00  0.00    +0.113 C 
ATOM      8  C   UNL     1      -0.102   4.334  24.224  0.00  0.00    +0.192 C 
ATOM     10  C   UNL     1      -1.864   5.707  25.079  0.00  0.00    +0.175 C 
ENDROOT
BRANCH   5   1
ATOM      1  O   UNL     1       0.449   2.013  24.334  0.00  0.00    -0.373 OA
BRANCH   1  11
ATOM     11  C   UNL     1      -0.274   1.018  23.628  0.00  0.00    +0.160 C 
BRANCH  11  12
ATOM     12  C   UNL     1       0.308  -0.347  23.974  0.00  0.00    +0.031 C 
BRANCH  12  13
ATOM     13  C   UNL     1      -0.600  -1.198  24.875  0.00  0.00    -0.015 C 
ATOM     15  C   UNL     1       0.132  -2.476  25.293  0.00  0.00    +0.007 C 
ATOM     16  C   UNL     1      -1.064  -0.439  26.118  0.00  0.00    +0.007 C 
ENDBRANCH  12  13
ENDBRANCH  11  12
ENDBRANCH   1  11
ENDBRANCH   5   1
BRANCH   4   9
ATOM      9  C   UNL     1      -4.237   2.889  24.886  0.00  0.00    +0.119 C 
BRANCH   9  14
ATOM     14  C   UNL     1      -4.176   1.413  24.594  0.00  0.00    -0.033 A 
ATOM     17  C   UNL     1      -4.551   0.492  25.572  0.00  0.00    +0.008 A 
ATOM     18  C   UNL     1      -3.747   0.966  23.344  0.00  0.00    +0.008 A 
ATOM     19  C   UNL     1      -4.496  -0.875  25.302  0.00  0.00    +0.046 A 
ATOM     20  C   UNL     1      -3.692  -0.400  23.072  0.00  0.00    +0.046 A 
ATOM     21  C   UNL     1      -4.066  -1.321  24.052  0.00  0.00    +0.120 A 
BRANCH  21   3
ATOM      3  O   UNL     1      -4.013  -2.655  23.786  0.00  0.00    -0.495 OA
ATOM     22  C   UNL     1      -3.443  -3.494  24.789  0.00  0.00    +0.277 C 
ENDBRANCH  21   3
ENDBRANCH   9  14
ENDBRANCH   4   9
TORSDOF 7
ENDMDL
MODEL 7
REMARK VINA RESULT:      -3.4      1.558      3.992
REMARK  Name = 75367805
REMARK  10 active torsions:
REMARK  status: ('A' for Active; 'I' for Inactive)
REMARK    1  A    between atoms: O_1  and  C_5
REMARK    2  A    between atoms: O_1  and  C_11
REMARK    3  A    between atoms: O_3  and  C_21
REMARK    4  A    between atoms: O_3  and  C_22
REMARK    5  A    between atoms: N_4  and  C_9
REMARK    6  A    between atoms: C_9  and  C_14
REMARK    7  A    between atoms: C_11  and  C_12
REMARK    8  A    between atoms: C_12  and  C_13
REMARK    9  A    between atoms: C_13  and  C_15
REMARK   10  A    between atoms: C_13  and  C_16
REMARK                            x       y       z     vdW  Elec       q    Type
REMARK                         _______ _______ _______ _____ _____    ______ ____
ROOT
ATOM      2  O   UNL     1      -0.547  -2.592  25.066  0.00  0.00    -0.376 OA
ATOM      4  N   UNL     1      -3.062  -0.841  24.480  0.00  0.00    -0.293 NA
ATOM      5  C   UNL     1      -0.581  -0.462  23.916  0.00  0.00    +0.158 C 
ATOM      6  C   UNL     1      -2.035   0.036  23.906  0.00  0.00    +0.118 C 
ATOM      7  C   UNL     1      -2.849  -2.267  24.225  0.00  0.00    +0.113 C 
ATOM      8  C   UNL     1      -0.184  -1.220  25.176  0.00  0.00    +0.192 C 
ATOM     10  C   UNL     1      -1.925  -2.855  25.293  0.00  0.00    +0.175 C 
ENDROOT
BRANCH   5   1
ATOM      1  O   UNL     1       0.278   0.673  23.795  0.00  0.00    -0.373 OA
BRANCH   1  11
ATOM     11  C   UNL     1       0.072   1.589  24.858  0.00  0.00    +0.160 C 
BRANCH  11  12
ATOM     12  C   UNL     1      -0.161   2.976  24.271  0.00  0.00    +0.031 C 
BRANCH  12  13
ATOM     13  C   UNL     1      -1.327   3.737  24.922  0.00  0.00    -0.015 C 
ATOM     15  C   UNL     1      -1.587   3.186  26.326  0.00  0.00    +0.007 C 
ATOM     16  C   UNL     1      -1.069   5.242  24.998  0.00  0.00    +0.007 C 
ENDBRANCH  12  13
ENDBRANCH  11  12
ENDBRANCH   1  11
ENDBRANCH   5   1
BRANCH   4   9
ATOM      9  C   UNL     1      -4.390  -0.412  24.044  0.00  0.00    +0.119 C 
BRANCH   9  14
ATOM     14  C   UNL     1      -4.737   0.957  24.566  0.00  0.00    -0.033 A 
ATOM     17  C   UNL     1      -5.565   1.091  25.680  0.00  0.00    +0.008 A 
ATOM     18  C   UNL     1      -4.228   2.093  23.936  0.00  0.00    +0.008 A 
ATOM     19  C   UNL     1      -5.886   2.359  26.164  0.00  0.00    +0.046 A 
ATOM     20  C   UNL     1      -4.548   3.362  24.419  0.00  0.00    +0.046 A 
ATOM     21  C   UNL     1      -5.377   3.494  25.533  0.00  0.00    +0.120 A 
BRANCH  21   3
ATOM      3  O   UNL     1      -5.688   4.733  26.005  0.00  0.00    -0.495 OA
ATOM     22  C   UNL     1      -6.557   5.533  25.205  0.00  0.00    +0.277 C 
ENDBRANCH  21   3
ENDBRANCH   9  14
ENDBRANCH   4   9
TORSDOF 7
ENDMDL
MODEL 8
REMARK VINA RESULT:      -3.3      1.834      4.185
REMARK  Name = 75367805
REMARK  10 active torsions:
REMARK  status: ('A' for Active; 'I' for Inactive)
REMARK    1  A    between atoms: O_1  and  C_5
REMARK    2  A    between atoms: O_1  and  C_11
REMARK    3  A    between atoms: O_3  and  C_21
REMARK    4  A    between atoms: O_3  and  C_22
REMARK    5  A    between atoms: N_4  and  C_9
REMARK    6  A    between atoms: C_9  and  C_14
REMARK    7  A    between atoms: C_11  and  C_12
REMARK    8  A    between atoms: C_12  and  C_13
REMARK    9  A    between atoms: C_13  and  C_15
REMARK   10  A    between atoms: C_13  and  C_16
REMARK                            x       y       z     vdW  Elec       q    Type
REMARK                         _______ _______ _______ _____ _____    ______ ____
ROOT
ATOM      2  O   UNL     1      -2.319  -3.297  24.024  0.00  0.00    -0.376 OA
ATOM      4  N   UNL     1      -4.000  -0.840  24.957  0.00  0.00    -0.293 NA
ATOM      5  C   UNL     1      -1.517  -1.031  24.308  0.00  0.00    +0.158 C 
ATOM      6  C   UNL     1      -2.694  -0.185  24.822  0.00  0.00    +0.118 C 
ATOM      7  C   UNL     1      -4.296  -1.818  23.907  0.00  0.00    +0.113 C 
ATOM      8  C   UNL     1      -1.496  -2.462  24.831  0.00  0.00    +0.192 C 
ATOM     10  C   UNL     1      -3.711  -3.180  24.284  0.00  0.00    +0.175 C 
ENDROOT
BRANCH   5   1
ATOM      1  O   UNL     1      -0.304  -0.396  24.714  0.00  0.00    -0.373 OA
BRANCH   1  11
ATOM     11  C   UNL     1       0.302   0.294  23.633  0.00  0.00    +0.160 C 
BRANCH  11  12
ATOM     12  C   UNL     1       0.884   1.603  24.153  0.00  0.00    +0.031 C 
BRANCH  12  13
ATOM     13  C   UNL     1      -0.175   2.590  24.670  0.00  0.00    -0.015 C 
ATOM     15  C   UNL     1      -0.136   2.639  26.199  0.00  0.00    +0.007 C 
ATOM     16  C   UNL     1       0.013   3.997  24.102  0.00  0.00    +0.007 C 
ENDBRANCH  12  13
ENDBRANCH  11  12
ENDBRANCH   1  11
ENDBRANCH   5   1
BRANCH   4   9
ATOM      9  C   UNL     1      -5.057   0.164  25.066  0.00  0.00    +0.119 C 
BRANCH   9  14
ATOM     14  C   UNL     1      -4.529   1.560  24.865  0.00  0.00    -0.033 A 
ATOM     17  C   UNL     1      -3.942   1.915  23.650  0.00  0.00    +0.008 A 
ATOM     18  C   UNL     1      -4.627   2.498  25.892  0.00  0.00    +0.008 A 
ATOM     19  C   UNL     1      -3.454   3.208  23.463  0.00  0.00    +0.046 A 
ATOM     20  C   UNL     1      -4.139   3.791  25.706  0.00  0.00    +0.046 A 
ATOM     21  C   UNL     1      -3.552   4.146  24.491  0.00  0.00    +0.120 A 
BRANCH  21   3
ATOM      3  O   UNL     1      -3.076   5.408  24.310  0.00  0.00    -0.495 OA
ATOM     22  C   UNL     1      -1.996   5.822  25.145  0.00  0.00    +0.277 C 
ENDBRANCH  21   3
ENDBRANCH   9  14
ENDBRANCH   4   9
TORSDOF 7
ENDMDL
MODEL 9
REMARK VINA RESULT:      -3.1      1.659      6.403
REMARK  Name = 75367805
REMARK  10 active torsions:
REMARK  status: ('A' for Active; 'I' for Inactive)
REMARK    1  A    between atoms: O_1  and  C_5
REMARK    2  A    between atoms: O_1  and  C_11
REMARK    3  A    between atoms: O_3  and  C_21
REMARK    4  A    between atoms: O_3  and  C_22
REMARK    5  A    between atoms: N_4  and  C_9
REMARK    6  A    between atoms: C_9  and  C_14
REMARK    7  A    between atoms: C_11  and  C_12
REMARK    8  A    between atoms: C_12  and  C_13
REMARK    9  A    between atoms: C_13  and  C_15
REMARK   10  A    between atoms: C_13  and  C_16
REMARK                            x       y       z     vdW  Elec       q    Type
REMARK                         _______ _______ _______ _____ _____    ______ ____
ROOT
ATOM      2  O   UNL     1      -5.936   3.106  26.587  0.00  0.00    -0.376 OA
ATOM      4  N   UNL     1      -4.903   0.888  24.652  0.00  0.00    -0.293 NA
ATOM      5  C   UNL     1      -4.068   3.288  25.058  0.00  0.00    +0.158 C 
ATOM      6  C   UNL     1      -3.970   1.961  24.288  0.00  0.00    +0.118 C 
ATOM      7  C   UNL     1      -5.195   0.803  26.084  0.00  0.00    +0.113 C 
ATOM      8  C   UNL     1      -5.491   3.722  25.383  0.00  0.00    +0.192 C 
ATOM     10  C   UNL     1      -6.340   1.752  26.441  0.00  0.00    +0.175 C 
ENDROOT
BRANCH   5   1
ATOM      1  O   UNL     1      -3.467   4.309  24.261  0.00  0.00    -0.373 OA
BRANCH   1  11
ATOM     11  C   UNL     1      -2.380   4.918  24.938  0.00  0.00    +0.160 C 
BRANCH  11  12
ATOM     12  C   UNL     1      -1.846   3.944  25.981  0.00  0.00    +0.031 C 
BRANCH  12  13
ATOM     13  C   UNL     1      -0.429   3.429  25.678  0.00  0.00    -0.015 C 
ATOM     15  C   UNL     1      -0.241   2.038  26.287  0.00  0.00    +0.007 C 
ATOM     16  C   UNL     1      -0.134   3.381  24.179  0.00  0.00    +0.007 C 
ENDBRANCH  12  13
ENDBRANCH  11  12
ENDBRANCH   1  11
ENDBRANCH   5   1
BRANCH   4   9
ATOM      9  C   UNL     1      -4.429  -0.391  24.125  0.00  0.00    +0.119 C 
BRANCH   9  14
ATOM     14  C   UNL     1      -2.926  -0.444  24.048  0.00  0.00    -0.033 A 
ATOM     17  C   UNL     1      -2.218  -1.338  24.849  0.00  0.00    +0.008 A 
ATOM     18  C   UNL     1      -2.243   0.400  23.172  0.00  0.00    +0.008 A 
ATOM     19  C   UNL     1      -0.825  -1.388  24.777  0.00  0.00    +0.046 A 
ATOM     20  C   UNL     1      -0.851   0.351  23.099  0.00  0.00    +0.046 A 
ATOM     21  C   UNL     1      -0.142  -0.543  23.902  0.00  0.00    +0.120 A 
BRANCH  21   3
ATOM      3  O   UNL     1       1.216  -0.592  23.831  0.00  0.00    -0.495 OA
ATOM     22  C   UNL     1       1.833   0.077  22.732  0.00  0.00    +0.277 C 
ENDBRANCH  21   3
ENDBRANCH   9  14
ENDBRANCH   4   9
TORSDOF 7
ENDMDL
MODEL 10
REMARK VINA RESULT:      -3.1      2.033      5.184
REMARK  Name = 75367805
REMARK  10 active torsions:
REMARK  status: ('A' for Active; 'I' for Inactive)
REMARK    1  A    between atoms: O_1  and  C_5
REMARK    2  A    between atoms: O_1  and  C_11
REMARK    3  A    between atoms: O_3  and  C_21
REMARK    4  A    between atoms: O_3  and  C_22
REMARK    5  A    between atoms: N_4  and  C_9
REMARK    6  A    between atoms: C_9  and  C_14
REMARK    7  A    between atoms: C_11  and  C_12
REMARK    8  A    between atoms: C_12  and  C_13
REMARK    9  A    between atoms: C_13  and  C_15
REMARK   10  A    between atoms: C_13  and  C_16
REMARK                            x       y       z     vdW  Elec       q    Type
REMARK                         _______ _______ _______ _____ _____    ______ ____
ROOT
ATOM      2  O   UNL     1      -1.343   5.363  25.344  0.00  0.00    -0.376 OA
ATOM      4  N   UNL     1      -3.324   2.956  25.212  0.00  0.00    -0.293 NA
ATOM      5  C   UNL     1      -0.812   3.038  25.764  0.00  0.00    +0.158 C 
ATOM      6  C   UNL     1      -2.095   2.223  25.537  0.00  0.00    +0.118 C 
ATOM      7  C   UNL     1      -3.467   4.234  25.913  0.00  0.00    +0.113 C 
ATOM      8  C   UNL     1      -0.651   4.230  24.829  0.00  0.00    +0.192 C 
ATOM     10  C   UNL     1      -2.749   5.338  25.136  0.00  0.00    +0.175 C 
ENDROOT
BRANCH   5   1
ATOM      1  O   UNL     1       0.305   2.171  25.569  0.00  0.00    -0.373 OA
BRANCH   1  11
ATOM     11  C   UNL     1       0.553   1.952  24.190  0.00  0.00    +0.160 C 
BRANCH  11  12
ATOM     12  C   UNL     1      -0.519   1.016  23.644  0.00  0.00    +0.031 C 
BRANCH  12  13
ATOM     13  C   UNL     1      -0.027  -0.423  23.415  0.00  0.00    -0.015 C 
ATOM     15  C   UNL     1       1.392  -0.402  22.842  0.00  0.00    +0.007 C 
ATOM     16  C   UNL     1      -0.055  -1.258  24.695  0.00  0.00    +0.007 C 
ENDBRANCH  12  13
ENDBRANCH  11  12
ENDBRANCH   1  11
ENDBRANCH   5   1
BRANCH   4   9
ATOM      9  C   UNL     1      -4.491   2.099  25.418  0.00  0.00    +0.119 C 
BRANCH   9  14
ATOM     14  C   UNL     1      -4.189   0.657  25.107  0.00  0.00    -0.033 A 
ATOM     17  C   UNL     1      -4.270   0.194  23.794  0.00  0.00    +0.008 A 
ATOM     18  C   UNL     1      -3.827  -0.216  26.133  0.00  0.00    +0.008 A 
ATOM     19  C   UNL     1      -3.990  -1.142  23.506  0.00  0.00    +0.046 A 
ATOM     20  C   UNL     1      -3.546  -1.552  25.846  0.00  0.00    +0.046 A 
ATOM     21  C   UNL     1      -3.628  -2.015  24.532  0.00  0.00    +0.120 A 
BRANCH  21   3
ATOM      3  O   UNL     1      -3.354  -3.318  24.252  0.00  0.00    -0.495 OA
ATOM     22  C   UNL     1      -2.114  -3.596  23.603  0.00  0.00    +0.277 C 
ENDBRANCH  21   3
ENDBRANCH   9  14
ENDBRANCH   4   9
TORSDOF 7
ENDMDL
