MODEL 1
REMARK VINA RESULT:       2.8      0.000      0.000
REMARK  Name = 40778175
REMARK  10 active torsions:
REMARK  status: ('A' for Active; 'I' for Inactive)
REMARK    1  A    between atoms: S_1  and  N_10
REMARK    2  A    between atoms: S_1  and  C_23
REMARK    3  A    between atoms: O_3  and  C_12
REMARK    4  A    between atoms: O_4  and  C_13
REMARK    5  A    between atoms: N_9  and  C_22
REMARK    6  A    between atoms: N_10  and  C_16
REMARK    7  A    between atoms: C_11  and  C_15
REMARK    8  A    between atoms: C_14  and  C_16
REMARK    9  A    between atoms: C_15  and  C_17
REMARK   10  A    between atoms: C_33  and  C_34
REMARK                            x       y       z     vdW  Elec       q    Type
REMARK                         _______ _______ _______ _____ _____    ______ ____
ROOT
ATOM      2  O   UNL     1      -2.910   2.347  25.076  0.00  0.00    -0.366 OA
ATOM     11  C   UNL     1      -1.937   2.993  24.235  0.00  0.00    +0.158 C 
ATOM     12  C   UNL     1      -1.900   4.443  24.689  0.00  0.00    +0.175 C 
ATOM     13  C   UNL     1      -2.118   4.299  26.180  0.00  0.00    +0.175 C 
ATOM     14  C   UNL     1      -3.136   3.167  26.245  0.00  0.00    +0.165 C 
ENDROOT
BRANCH  12   3
ATOM      3  O   UNL     1      -0.679   5.069  24.359  0.00  0.00    -0.387 OA
ATOM     35  H   UNL     1      -0.744   5.999  24.639  0.00  0.00    +0.210 HD
ENDBRANCH  12   3
BRANCH  13   4
ATOM      4  O   UNL     1      -0.920   3.855  26.817  0.00  0.00    -0.387 OA
ATOM     36  H   UNL     1      -1.171   3.476  27.676  0.00  0.00    +0.210 HD
ENDBRANCH  13   4
BRANCH  11  15
ATOM     15  C   UNL     1      -2.330   2.827  22.778  0.00  0.00    +0.130 C 
BRANCH  15  17
ATOM      5  O   UNL     1      -2.644   0.797  21.587  0.00  0.00    -0.276 OA
ATOM      8  N   UNL     1      -0.589   1.085  22.635  0.00  0.00    -0.298 N 
ATOM      9  N   UNL     1       2.139   0.263  23.143  0.00  0.00    -0.327 N 
ATOM     17  C   UNL     1      -1.878   1.479  22.274  0.00  0.00    +0.218 C 
ATOM     18  C   UNL     1      -0.081  -0.210  22.191  0.00  0.00    +0.126 C 
ATOM     19  C   UNL     1       0.322   1.900  23.442  0.00  0.00    +0.126 C 
ATOM     20  C   UNL     1       1.426  -0.177  21.942  0.00  0.00    +0.124 C 
ATOM     21  C   UNL     1       1.410   1.072  24.125  0.00  0.00    +0.124 C 
BRANCH   9  22
ATOM     22  C   UNL     1       3.464  -0.109  23.361  0.00  0.00    +0.030 A 
ATOM     24  C   UNL     1       3.768  -1.420  23.727  0.00  0.00    +0.023 A 
ATOM     25  C   UNL     1       4.485   0.828  23.213  0.00  0.00    +0.023 A 
ATOM     28  C   UNL     1       5.094  -1.794  23.945  0.00  0.00    +0.002 A 
ATOM     29  C   UNL     1       5.811   0.455  23.432  0.00  0.00    +0.002 A 
ATOM     30  C   UNL     1       6.116  -0.856  23.798  0.00  0.00    +0.000 A 
ENDBRANCH   9  22
ENDBRANCH  15  17
ENDBRANCH  11  15
BRANCH  14  16
ATOM     16  C   UNL     1      -4.577   3.658  26.198  0.00  0.00    +0.140 C 
BRANCH  16  10
ATOM     10  N   UNL     1      -5.316   2.997  25.162  0.00  0.00    -0.187 NA
ATOM     37  H   UNL     1      -5.624   3.581  24.375  0.00  0.00    +0.148 HD
BRANCH  10   1
ATOM      1  S   UNL     1      -6.217   1.563  25.482  0.00  0.00    +0.058 S 
ATOM      6  O   UNL     1      -7.253   1.434  24.476  0.00  0.00    -0.153 OA
ATOM      7  O   UNL     1      -6.555   1.488  26.891  0.00  0.00    -0.153 OA
BRANCH   1  23
ATOM     23  C   UNL     1      -5.001   0.317  25.176  0.00  0.00    +0.105 A 
ATOM     26  C   UNL     1      -4.899  -0.261  23.910  0.00  0.00    +0.029 A 
ATOM     27  C   UNL     1      -4.144  -0.088  26.198  0.00  0.00    +0.029 A 
ATOM     31  C   UNL     1      -3.941  -1.245  23.668  0.00  0.00    +0.005 A 
ATOM     32  C   UNL     1      -3.185  -1.071  25.957  0.00  0.00    +0.005 A 
ATOM     33  C   UNL     1      -3.083  -1.649  24.691  0.00  0.00    -0.050 A 
ATOM     34  C   UNL     1      -2.058  -2.701  24.432  0.00  0.00    +0.044 C 
ENDBRANCH   1  23
ENDBRANCH  10   1
ENDBRANCH  16  10
ENDBRANCH  14  16
TORSDOF 9
ENDMDL
MODEL 2
REMARK VINA RESULT:       4.0      1.682      4.105
REMARK  Name = 40778175
REMARK  10 active torsions:
REMARK  status: ('A' for Active; 'I' for Inactive)
REMARK    1  A    between atoms: S_1  and  N_10
REMARK    2  A    between atoms: S_1  and  C_23
REMARK    3  A    between atoms: O_3  and  C_12
REMARK    4  A    between atoms: O_4  and  C_13
REMARK    5  A    between atoms: N_9  and  C_22
REMARK    6  A    between atoms: N_10  and  C_16
REMARK    7  A    between atoms: C_11  and  C_15
REMARK    8  A    between atoms: C_14  and  C_16
REMARK    9  A    between atoms: C_15  and  C_17
REMARK   10  A    between atoms: C_33  and  C_34
REMARK                            x       y       z     vdW  Elec       q    Type
REMARK                         _______ _______ _______ _____ _____    ______ ____
ROOT
ATOM      2  O   UNL     1      -4.649  -0.669  23.939  0.00  0.00    -0.366 OA
ATOM     11  C   UNL     1      -3.402  -1.077  23.350  0.00  0.00    +0.158 C 
ATOM     12  C   UNL     1      -2.422  -1.199  24.505  0.00  0.00    +0.175 C 
ATOM     13  C   UNL     1      -3.320  -1.717  25.609  0.00  0.00    +0.175 C 
ATOM     14  C   UNL     1      -4.611  -0.948  25.357  0.00  0.00    +0.165 C 
ENDROOT
BRANCH  12   3
ATOM      3  O   UNL     1      -1.350  -2.066  24.202  0.00  0.00    -0.387 OA
ATOM     35  H   UNL     1      -0.813  -2.157  25.007  0.00  0.00    +0.210 HD
ENDBRANCH  12   3
BRANCH  13   4
ATOM      4  O   UNL     1      -3.588  -3.106  25.420  0.00  0.00    -0.387 OA
ATOM     36  H   UNL     1      -4.504  -3.185  25.105  0.00  0.00    +0.210 HD
ENDBRANCH  13   4
BRANCH  11  15
ATOM     15  C   UNL     1      -2.975  -0.064  22.302  0.00  0.00    +0.130 C 
BRANCH  15  17
ATOM      5  O   UNL     1      -2.649   2.013  23.407  0.00  0.00    -0.276 OA
ATOM      8  N   UNL     1      -0.742   0.766  22.945  0.00  0.00    -0.298 N 
ATOM      9  N   UNL     1       2.099   0.279  23.209  0.00  0.00    -0.327 N 
ATOM     17  C   UNL     1      -2.118   1.003  22.938  0.00  0.00    +0.218 C 
ATOM     18  C   UNL     1       0.155   1.754  23.537  0.00  0.00    +0.126 C 
ATOM     19  C   UNL     1      -0.115  -0.439  22.397  0.00  0.00    +0.126 C 
ATOM     20  C   UNL     1       1.376   1.101  24.182  0.00  0.00    +0.124 C 
ATOM     21  C   UNL     1       1.360  -0.232  22.050  0.00  0.00    +0.124 C 
BRANCH   9  22
ATOM     22  C   UNL     1       3.458   0.022  23.364  0.00  0.00    +0.030 A 
ATOM     24  C   UNL     1       4.391   1.029  23.117  0.00  0.00    +0.023 A 
ATOM     25  C   UNL     1       3.888  -1.243  23.765  0.00  0.00    +0.023 A 
ATOM     28  C   UNL     1       5.754   0.772  23.272  0.00  0.00    +0.002 A 
ATOM     29  C   UNL     1       5.250  -1.500  23.920  0.00  0.00    +0.002 A 
ATOM     30  C   UNL     1       6.183  -0.493  23.673  0.00  0.00    +0.000 A 
ENDBRANCH   9  22
ENDBRANCH  15  17
ENDBRANCH  11  15
BRANCH  14  16
ATOM     16  C   UNL     1      -4.666   0.384  26.094  0.00  0.00    +0.140 C 
BRANCH  16  10
ATOM     10  N   UNL     1      -5.271   1.400  25.285  0.00  0.00    -0.187 NA
ATOM     37  H   UNL     1      -5.189   1.284  24.267  0.00  0.00    +0.148 HD
BRANCH  10   1
ATOM      1  S   UNL     1      -5.500   3.001  25.881  0.00  0.00    +0.058 S 
ATOM      6  O   UNL     1      -5.663   2.938  27.320  0.00  0.00    -0.153 OA
ATOM      7  O   UNL     1      -6.474   3.704  25.066  0.00  0.00    -0.153 OA
BRANCH   1  23
ATOM     23  C   UNL     1      -3.923   3.724  25.541  0.00  0.00    +0.105 A 
ATOM     26  C   UNL     1      -3.798   4.677  24.530  0.00  0.00    +0.029 A 
ATOM     27  C   UNL     1      -2.806   3.343  26.283  0.00  0.00    +0.029 A 
ATOM     31  C   UNL     1      -2.554   5.247  24.261  0.00  0.00    +0.005 A 
ATOM     32  C   UNL     1      -1.562   3.913  26.014  0.00  0.00    +0.005 A 
ATOM     33  C   UNL     1      -1.436   4.866  25.003  0.00  0.00    -0.050 A 
ATOM     34  C   UNL     1      -0.106   5.477  24.716  0.00  0.00    +0.044 C 
ENDBRANCH   1  23
ENDBRANCH  10   1
ENDBRANCH  16  10
ENDBRANCH  14  16
TORSDOF 9
ENDMDL
MODEL 3
REMARK VINA RESULT:       4.1      1.902      2.864
REMARK  Name = 40778175
REMARK  10 active torsions:
REMARK  status: ('A' for Active; 'I' for Inactive)
REMARK    1  A    between atoms: S_1  and  N_10
REMARK    2  A    between atoms: S_1  and  C_23
REMARK    3  A    between atoms: O_3  and  C_12
REMARK    4  A    between atoms: O_4  and  C_13
REMARK    5  A    between atoms: N_9  and  C_22
REMARK    6  A    between atoms: N_10  and  C_16
REMARK    7  A    between atoms: C_11  and  C_15
REMARK    8  A    between atoms: C_14  and  C_16
REMARK    9  A    between atoms: C_15  and  C_17
REMARK   10  A    between atoms: C_33  and  C_34
REMARK                            x       y       z     vdW  Elec       q    Type
REMARK                         _______ _______ _______ _____ _____    ______ ____
ROOT
ATOM      2  O   UNL     1      -1.906   3.873  24.879  0.00  0.00    -0.366 OA
ATOM     11  C   UNL     1      -3.023   3.593  24.017  0.00  0.00    +0.158 C 
ATOM     12  C   UNL     1      -3.776   2.451  24.678  0.00  0.00    +0.175 C 
ATOM     13  C   UNL     1      -3.596   2.778  26.145  0.00  0.00    +0.175 C 
ATOM     14  C   UNL     1      -2.164   3.299  26.181  0.00  0.00    +0.165 C 
ENDROOT
BRANCH  12   3
ATOM      3  O   UNL     1      -5.129   2.406  24.276  0.00  0.00    -0.387 OA
ATOM     35  H   UNL     1      -5.340   3.265  23.871  0.00  0.00    +0.210 HD
ENDBRANCH  12   3
BRANCH  13   4
ATOM      4  O   UNL     1      -4.465   3.845  26.526  0.00  0.00    -0.387 OA
ATOM     36  H   UNL     1      -5.343   3.460  26.687  0.00  0.00    +0.210 HD
ENDBRANCH  13   4
BRANCH  11  15
ATOM     15  C   UNL     1      -2.521   3.258  22.623  0.00  0.00    +0.130 C 
BRANCH  15  17
ATOM      5  O   UNL     1      -3.109   0.994  22.217  0.00  0.00    -0.276 OA
ATOM      8  N   UNL     1      -0.901   1.407  22.811  0.00  0.00    -0.298 N 
ATOM      9  N   UNL     1       1.838   0.541  23.167  0.00  0.00    -0.327 N 
ATOM     17  C   UNL     1      -2.214   1.784  22.528  0.00  0.00    +0.218 C 
ATOM     18  C   UNL     1      -0.526  -0.002  22.746  0.00  0.00    +0.126 C 
ATOM     19  C   UNL     1       0.163   2.349  23.170  0.00  0.00    +0.126 C 
ATOM     20  C   UNL     1       0.919  -0.188  22.289  0.00  0.00    +0.124 C 
ATOM     21  C   UNL     1       1.314   1.681  23.924  0.00  0.00    +0.124 C 
BRANCH   9  22
ATOM     22  C   UNL     1       3.164   0.136  23.304  0.00  0.00    +0.030 A 
ATOM     24  C   UNL     1       3.457  -1.168  23.702  0.00  0.00    +0.023 A 
ATOM     25  C   UNL     1       4.198   1.035  23.043  0.00  0.00    +0.023 A 
ATOM     28  C   UNL     1       4.784  -1.574  23.840  0.00  0.00    +0.002 A 
ATOM     29  C   UNL     1       5.525   0.629  23.181  0.00  0.00    +0.002 A 
ATOM     30  C   UNL     1       5.818  -0.675  23.580  0.00  0.00    +0.000 A 
ENDBRANCH   9  22
ENDBRANCH  15  17
ENDBRANCH  11  15
BRANCH  14  16
ATOM     16  C   UNL     1      -1.136   2.201  26.418  0.00  0.00    +0.140 C 
BRANCH  16  10
ATOM     10  N   UNL     1      -1.352   1.090  25.538  0.00  0.00    -0.187 NA
ATOM     37  H   UNL     1      -2.008   1.241  24.762  0.00  0.00    +0.148 HD
BRANCH  10   1
ATOM      1  S   UNL     1      -1.120  -0.532  26.072  0.00  0.00    +0.058 S 
ATOM      6  O   UNL     1      -1.435  -0.603  27.486  0.00  0.00    -0.153 OA
ATOM      7  O   UNL     1       0.145  -1.045  25.580  0.00  0.00    -0.153 OA
BRANCH   1  23
ATOM     23  C   UNL     1      -2.398  -1.372  25.186  0.00  0.00    +0.105 A 
ATOM     26  C   UNL     1      -3.620  -0.740  24.959  0.00  0.00    +0.029 A 
ATOM     27  C   UNL     1      -2.184  -2.667  24.714  0.00  0.00    +0.029 A 
ATOM     31  C   UNL     1      -4.629  -1.403  24.260  0.00  0.00    +0.005 A 
ATOM     32  C   UNL     1      -3.192  -3.330  24.014  0.00  0.00    +0.005 A 
ATOM     33  C   UNL     1      -4.415  -2.697  23.787  0.00  0.00    -0.050 A 
ATOM     34  C   UNL     1      -5.493  -3.406  23.040  0.00  0.00    +0.044 C 
ENDBRANCH   1  23
ENDBRANCH  10   1
ENDBRANCH  16  10
ENDBRANCH  14  16
TORSDOF 9
ENDMDL
MODEL 4
REMARK VINA RESULT:       4.3      1.859      3.204
REMARK  Name = 40778175
REMARK  10 active torsions:
REMARK  status: ('A' for Active; 'I' for Inactive)
REMARK    1  A    between atoms: S_1  and  N_10
REMARK    2  A    between atoms: S_1  and  C_23
REMARK    3  A    between atoms: O_3  and  C_12
REMARK    4  A    between atoms: O_4  and  C_13
REMARK    5  A    between atoms: N_9  and  C_22
REMARK    6  A    between atoms: N_10  and  C_16
REMARK    7  A    between atoms: C_11  and  C_15
REMARK    8  A    between atoms: C_14  and  C_16
REMARK    9  A    between atoms: C_15  and  C_17
REMARK   10  A    between atoms: C_33  and  C_34
REMARK                            x       y       z     vdW  Elec       q    Type
REMARK                         _______ _______ _______ _____ _____    ______ ____
ROOT
ATOM      2  O   UNL     1      -3.440   4.521  24.507  0.00  0.00    -0.366 OA
ATOM     11  C   UNL     1      -4.024   3.510  23.668  0.00  0.00    +0.158 C 
ATOM     12  C   UNL     1      -4.384   2.362  24.597  0.00  0.00    +0.175 C 
ATOM     13  C   UNL     1      -4.801   3.106  25.849  0.00  0.00    +0.175 C 
ATOM     14  C   UNL     1      -3.804   4.258  25.882  0.00  0.00    +0.165 C 
ENDROOT
BRANCH  12   3
ATOM      3  O   UNL     1      -5.405   1.548  24.063  0.00  0.00    -0.387 OA
ATOM     35  H   UNL     1      -4.998   0.976  23.389  0.00  0.00    +0.210 HD
ENDBRANCH  12   3
BRANCH  13   4
ATOM      4  O   UNL     1      -6.108   3.655  25.687  0.00  0.00    -0.387 OA
ATOM     36  H   UNL     1      -6.011   4.504  25.224  0.00  0.00    +0.210 HD
ENDBRANCH  13   4
BRANCH  11  15
ATOM     15  C   UNL     1      -3.041   3.118  22.579  0.00  0.00    +0.130 C 
BRANCH  15  17
ATOM      5  O   UNL     1      -3.587   0.808  22.618  0.00  0.00    -0.276 OA
ATOM      8  N   UNL     1      -1.347   1.355  22.910  0.00  0.00    -0.298 N 
ATOM      9  N   UNL     1       1.441   0.611  23.128  0.00  0.00    -0.327 N 
ATOM     17  C   UNL     1      -2.694   1.655  22.701  0.00  0.00    +0.218 C 
ATOM     18  C   UNL     1      -0.932  -0.038  23.044  0.00  0.00    +0.126 C 
ATOM     19  C   UNL     1      -0.287   2.363  22.997  0.00  0.00    +0.126 C 
ATOM     20  C   UNL     1       0.468  -0.273  22.481  0.00  0.00    +0.124 C 
ATOM     21  C   UNL     1       0.953   1.854  23.732  0.00  0.00    +0.124 C 
BRANCH   9  22
ATOM     22  C   UNL     1       2.787   0.259  23.197  0.00  0.00    +0.030 A 
ATOM     24  C   UNL     1       3.770   1.196  22.879  0.00  0.00    +0.023 A 
ATOM     25  C   UNL     1       3.152  -1.031  23.583  0.00  0.00    +0.023 A 
ATOM     28  C   UNL     1       5.118   0.844  22.948  0.00  0.00    +0.002 A 
ATOM     29  C   UNL     1       4.500  -1.383  23.651  0.00  0.00    +0.002 A 
ATOM     30  C   UNL     1       5.483  -0.446  23.333  0.00  0.00    +0.000 A 
ENDBRANCH   9  22
ENDBRANCH  15  17
ENDBRANCH  11  15
BRANCH  14  16
ATOM     16  C   UNL     1      -2.530   3.922  26.645  0.00  0.00    +0.140 C 
BRANCH  16  10
ATOM     10  N   UNL     1      -1.625   3.160  25.834  0.00  0.00    -0.187 NA
ATOM     37  H   UNL     1      -1.903   3.009  24.856  0.00  0.00    +0.148 HD
BRANCH  10   1
ATOM      1  S   UNL     1      -0.543   2.016  26.534  0.00  0.00    +0.058 S 
ATOM      6  O   UNL     1      -0.594   2.154  27.976  0.00  0.00    -0.153 OA
ATOM      7  O   UNL     1       0.732   2.046  25.843  0.00  0.00    -0.153 OA
BRANCH   1  23
ATOM     23  C   UNL     1      -1.328   0.492  26.104  0.00  0.00    +0.105 A 
ATOM     26  C   UNL     1      -0.559  -0.654  25.899  0.00  0.00    +0.029 A 
ATOM     27  C   UNL     1      -2.715   0.435  25.969  0.00  0.00    +0.029 A 
ATOM     31  C   UNL     1      -1.178  -1.856  25.558  0.00  0.00    +0.005 A 
ATOM     32  C   UNL     1      -3.334  -0.768  25.629  0.00  0.00    +0.005 A 
ATOM     33  C   UNL     1      -2.565  -1.914  25.424  0.00  0.00    -0.050 A 
ATOM     34  C   UNL     1      -3.226  -3.200  25.060  0.00  0.00    +0.044 C 
ENDBRANCH   1  23
ENDBRANCH  10   1
ENDBRANCH  16  10
ENDBRANCH  14  16
TORSDOF 9
ENDMDL
MODEL 5
REMARK VINA RESULT:       4.4      2.673      4.785
REMARK  Name = 40778175
REMARK  10 active torsions:
REMARK  status: ('A' for Active; 'I' for Inactive)
REMARK    1  A    between atoms: S_1  and  N_10
REMARK    2  A    between atoms: S_1  and  C_23
REMARK    3  A    between atoms: O_3  and  C_12
REMARK    4  A    between atoms: O_4  and  C_13
REMARK    5  A    between atoms: N_9  and  C_22
REMARK    6  A    between atoms: N_10  and  C_16
REMARK    7  A    between atoms: C_11  and  C_15
REMARK    8  A    between atoms: C_14  and  C_16
REMARK    9  A    between atoms: C_15  and  C_17
REMARK   10  A    between atoms: C_33  and  C_34
REMARK                            x       y       z     vdW  Elec       q    Type
REMARK                         _______ _______ _______ _____ _____    ______ ____
ROOT
ATOM      2  O   UNL     1      -4.064   1.759  24.250  0.00  0.00    -0.366 OA
ATOM     11  C   UNL     1      -4.855   0.887  25.077  0.00  0.00    +0.158 C 
ATOM     12  C   UNL     1      -5.385   1.758  26.203  0.00  0.00    +0.175 C 
ATOM     13  C   UNL     1      -5.613   3.073  25.488  0.00  0.00    +0.175 C 
ATOM     14  C   UNL     1      -4.421   3.130  24.541  0.00  0.00    +0.165 C 
ENDROOT
BRANCH  12   3
ATOM      3  O   UNL     1      -6.558   1.222  26.779  0.00  0.00    -0.387 OA
ATOM     35  H   UNL     1      -7.282   1.361  26.145  0.00  0.00    +0.210 HD
ENDBRANCH  12   3
BRANCH  13   4
ATOM      4  O   UNL     1      -6.802   3.009  24.701  0.00  0.00    -0.387 OA
ATOM     36  H   UNL     1      -6.777   3.755  24.078  0.00  0.00    +0.210 HD
ENDBRANCH  13   4
BRANCH  11  15
ATOM     15  C   UNL     1      -4.000  -0.272  25.561  0.00  0.00    +0.130 C 
BRANCH  15  17
ATOM      5  O   UNL     1      -4.098  -1.618  23.608  0.00  0.00    -0.276 OA
ATOM      8  N   UNL     1      -1.995  -0.867  24.254  0.00  0.00    -0.298 N 
ATOM      9  N   UNL     1       0.837  -0.520  23.768  0.00  0.00    -0.327 N 
ATOM     17  C   UNL     1      -3.380  -0.981  24.384  0.00  0.00    +0.218 C 
ATOM     18  C   UNL     1      -1.319  -1.530  23.142  0.00  0.00    +0.126 C 
ATOM     19  C   UNL     1      -1.146  -0.103  25.170  0.00  0.00    +0.126 C 
ATOM     20  C   UNL     1      -0.100  -0.744  22.665  0.00  0.00    +0.124 C 
ATOM     21  C   UNL     1       0.315  -0.552  25.137  0.00  0.00    +0.124 C 
BRANCH   9  22
ATOM     22  C   UNL     1       2.193  -0.320  23.520  0.00  0.00    +0.030 A 
ATOM     24  C   UNL     1       2.628   0.875  22.947  0.00  0.00    +0.023 A 
ATOM     25  C   UNL     1       3.116  -1.313  23.845  0.00  0.00    +0.023 A 
ATOM     28  C   UNL     1       3.986   1.077  22.699  0.00  0.00    +0.002 A 
ATOM     29  C   UNL     1       4.474  -1.112  23.596  0.00  0.00    +0.002 A 
ATOM     30  C   UNL     1       4.908   0.083  23.023  0.00  0.00    +0.000 A 
ENDBRANCH   9  22
ENDBRANCH  15  17
ENDBRANCH  11  15
BRANCH  14  16
ATOM     16  C   UNL     1      -3.203   3.807  25.155  0.00  0.00    +0.140 C 
BRANCH  16  10
ATOM     10  N   UNL     1      -2.091   2.905  25.232  0.00  0.00    -0.187 NA
ATOM     37  H   UNL     1      -2.226   2.060  25.801  0.00  0.00    +0.148 HD
BRANCH  10   1
ATOM      1  S   UNL     1      -0.475   3.457  25.007  0.00  0.00    +0.058 S 
ATOM      6  O   UNL     1      -0.490   4.903  24.904  0.00  0.00    -0.153 OA
ATOM      7  O   UNL     1       0.189   2.660  23.991  0.00  0.00    -0.153 OA
BRANCH   1  23
ATOM     23  C   UNL     1       0.255   3.028  26.558  0.00  0.00    +0.105 A 
ATOM     26  C   UNL     1       1.581   3.372  26.823  0.00  0.00    +0.029 A 
ATOM     27  C   UNL     1      -0.493   2.346  27.517  0.00  0.00    +0.029 A 
ATOM     31  C   UNL     1       2.157   3.032  28.047  0.00  0.00    +0.005 A 
ATOM     32  C   UNL     1       0.083   2.007  28.741  0.00  0.00    +0.005 A 
ATOM     33  C   UNL     1       1.408   2.351  29.006  0.00  0.00    -0.050 A 
ATOM     34  C   UNL     1       2.025   1.989  30.315  0.00  0.00    +0.044 C 
ENDBRANCH   1  23
ENDBRANCH  10   1
ENDBRANCH  16  10
ENDBRANCH  14  16
TORSDOF 9
ENDMDL
MODEL 6
REMARK VINA RESULT:       4.4      2.242      4.370
REMARK  Name = 40778175
REMARK  10 active torsions:
REMARK  status: ('A' for Active; 'I' for Inactive)
REMARK    1  A    between atoms: S_1  and  N_10
REMARK    2  A    between atoms: S_1  and  C_23
REMARK    3  A    between atoms: O_3  and  C_12
REMARK    4  A    between atoms: O_4  and  C_13
REMARK    5  A    between atoms: N_9  and  C_22
REMARK    6  A    between atoms: N_10  and  C_16
REMARK    7  A    between atoms: C_11  and  C_15
REMARK    8  A    between atoms: C_14  and  C_16
REMARK    9  A    between atoms: C_15  and  C_17
REMARK   10  A    between atoms: C_33  and  C_34
REMARK                            x       y       z     vdW  Elec       q    Type
REMARK                         _______ _______ _______ _____ _____    ______ ____
ROOT
ATOM      2  O   UNL     1      -4.648  -0.242  23.278  0.00  0.00    -0.366 OA
ATOM     11  C   UNL     1      -4.405  -1.169  24.351  0.00  0.00    +0.158 C 
ATOM     12  C   UNL     1      -3.729  -0.361  25.446  0.00  0.00    +0.175 C 
ATOM     13  C   UNL     1      -4.422   0.978  25.307  0.00  0.00    +0.175 C 
ATOM     14  C   UNL     1      -4.567   1.105  23.795  0.00  0.00    +0.165 C 
ENDROOT
BRANCH  12   3
ATOM      3  O   UNL     1      -3.895  -0.950  26.718  0.00  0.00    -0.387 OA
ATOM     35  H   UNL     1      -4.344  -0.298  27.283  0.00  0.00    +0.210 HD
ENDBRANCH  12   3
BRANCH  13   4
ATOM      4  O   UNL     1      -5.731   0.919  25.874  0.00  0.00    -0.387 OA
ATOM     36  H   UNL     1      -6.236   1.667  25.515  0.00  0.00    +0.210 HD
ENDBRANCH  13   4
BRANCH  11  15
ATOM     15  C   UNL     1      -3.561  -2.326  23.846  0.00  0.00    +0.130 C 
BRANCH  15  17
ATOM      5  O   UNL     1      -2.629  -3.324  25.788  0.00  0.00    -0.276 OA
ATOM      8  N   UNL     1      -1.211  -1.989  24.518  0.00  0.00    -0.298 N 
ATOM      9  N   UNL     1       1.418  -0.952  23.895  0.00  0.00    -0.327 N 
ATOM     17  C   UNL     1      -2.433  -2.599  24.809  0.00  0.00    +0.218 C 
ATOM     18  C   UNL     1      -0.072  -2.200  25.406  0.00  0.00    +0.126 C 
ATOM     19  C   UNL     1      -0.978  -1.138  23.349  0.00  0.00    +0.126 C 
ATOM     20  C   UNL     1       1.252  -2.199  24.645  0.00  0.00    +0.124 C 
ATOM     21  C   UNL     1       0.215  -0.199  23.531  0.00  0.00    +0.124 C 
BRANCH   9  22
ATOM     22  C   UNL     1       2.687  -0.480  23.570  0.00  0.00    +0.030 A 
ATOM     24  C   UNL     1       2.829   0.735  22.902  0.00  0.00    +0.023 A 
ATOM     25  C   UNL     1       3.817  -1.223  23.913  0.00  0.00    +0.023 A 
ATOM     28  C   UNL     1       4.101   1.209  22.576  0.00  0.00    +0.002 A 
ATOM     29  C   UNL     1       5.088  -0.750  23.586  0.00  0.00    +0.002 A 
ATOM     30  C   UNL     1       5.230   0.465  22.918  0.00  0.00    +0.000 A 
ENDBRANCH   9  22
ENDBRANCH  15  17
ENDBRANCH  11  15
BRANCH  14  16
ATOM     16  C   UNL     1      -3.374   1.785  23.137  0.00  0.00    +0.140 C 
BRANCH  16  10
ATOM     10  N   UNL     1      -3.651   3.164  22.860  0.00  0.00    -0.187 NA
ATOM     37  H   UNL     1      -3.482   3.480  21.896  0.00  0.00    +0.148 HD
BRANCH  10   1
ATOM      1  S   UNL     1      -3.598   4.355  24.104  0.00  0.00    +0.058 S 
ATOM      6  O   UNL     1      -4.787   4.222  24.923  0.00  0.00    -0.153 OA
ATOM      7  O   UNL     1      -3.236   5.645  23.546  0.00  0.00    -0.153 OA
BRANCH   1  23
ATOM     23  C   UNL     1      -2.215   3.798  25.054  0.00  0.00    +0.105 A 
ATOM     26  C   UNL     1      -0.979   3.605  24.438  0.00  0.00    +0.029 A 
ATOM     27  C   UNL     1      -2.361   3.552  26.419  0.00  0.00    +0.029 A 
ATOM     31  C   UNL     1       0.112   3.164  25.188  0.00  0.00    +0.005 A 
ATOM     32  C   UNL     1      -1.270   3.112  27.169  0.00  0.00    +0.005 A 
ATOM     33  C   UNL     1      -0.034   2.919  26.553  0.00  0.00    -0.050 A 
ATOM     34  C   UNL     1       1.133   2.449  27.354  0.00  0.00    +0.044 C 
ENDBRANCH   1  23
ENDBRANCH  10   1
ENDBRANCH  16  10
ENDBRANCH  14  16
TORSDOF 9
ENDMDL
MODEL 7
REMARK VINA RESULT:       5.0      3.233      6.800
REMARK  Name = 40778175
REMARK  10 active torsions:
REMARK  status: ('A' for Active; 'I' for Inactive)
REMARK    1  A    between atoms: S_1  and  N_10
REMARK    2  A    between atoms: S_1  and  C_23
REMARK    3  A    between atoms: O_3  and  C_12
REMARK    4  A    between atoms: O_4  and  C_13
REMARK    5  A    between atoms: N_9  and  C_22
REMARK    6  A    between atoms: N_10  and  C_16
REMARK    7  A    between atoms: C_11  and  C_15
REMARK    8  A    between atoms: C_14  and  C_16
REMARK    9  A    between atoms: C_15  and  C_17
REMARK   10  A    between atoms: C_33  and  C_34
REMARK                            x       y       z     vdW  Elec       q    Type
REMARK                         _______ _______ _______ _____ _____    ______ ____
ROOT
ATOM      2  O   UNL     1      -2.095  -0.380  24.697  0.00  0.00    -0.366 OA
ATOM     11  C   UNL     1      -3.462  -0.236  24.273  0.00  0.00    +0.158 C 
ATOM     12  C   UNL     1      -3.833  -1.561  23.626  0.00  0.00    +0.175 C 
ATOM     13  C   UNL     1      -3.061  -2.543  24.483  0.00  0.00    +0.175 C 
ATOM     14  C   UNL     1      -1.764  -1.786  24.743  0.00  0.00    +0.165 C 
ENDROOT
BRANCH  12   3
ATOM      3  O   UNL     1      -5.226  -1.783  23.635  0.00  0.00    -0.387 OA
ATOM     35  H   UNL     1      -5.437  -2.343  22.868  0.00  0.00    +0.210 HD
ENDBRANCH  12   3
BRANCH  13   4
ATOM      4  O   UNL     1      -3.721  -2.734  25.734  0.00  0.00    -0.387 OA
ATOM     36  H   UNL     1      -4.678  -2.701  25.565  0.00  0.00    +0.210 HD
ENDBRANCH  13   4
BRANCH  11  15
ATOM     15  C   UNL     1      -3.584   0.949  23.332  0.00  0.00    +0.130 C 
BRANCH  15  17
ATOM      5  O   UNL     1      -4.329   3.116  23.955  0.00  0.00    -0.276 OA
ATOM      8  N   UNL     1      -2.386   2.348  24.973  0.00  0.00    -0.298 N 
ATOM      9  N   UNL     1      -0.286   2.597  26.949  0.00  0.00    -0.327 N 
ATOM     17  C   UNL     1      -3.477   2.237  24.110  0.00  0.00    +0.218 C 
ATOM     18  C   UNL     1      -2.209   3.566  25.758  0.00  0.00    +0.126 C 
ATOM     19  C   UNL     1      -1.381   1.299  25.164  0.00  0.00    +0.126 C 
ATOM     20  C   UNL     1      -1.569   3.283  27.115  0.00  0.00    +0.124 C 
ATOM     21  C   UNL     1      -0.061   1.837  25.716  0.00  0.00    +0.124 C 
BRANCH   9  22
ATOM     22  C   UNL     1       0.705   2.695  27.923  0.00  0.00    +0.030 A 
ATOM     24  C   UNL     1       1.995   3.089  27.568  0.00  0.00    +0.023 A 
ATOM     25  C   UNL     1       0.408   2.398  29.253  0.00  0.00    +0.023 A 
ATOM     28  C   UNL     1       2.988   3.188  28.542  0.00  0.00    +0.002 A 
ATOM     29  C   UNL     1       1.402   2.496  30.227  0.00  0.00    +0.002 A 
ATOM     30  C   UNL     1       2.691   2.891  29.872  0.00  0.00    +0.000 A 
ENDBRANCH   9  22
ENDBRANCH  15  17
ENDBRANCH  11  15
BRANCH  14  16
ATOM     16  C   UNL     1      -0.699  -2.049  23.687  0.00  0.00    +0.140 C 
BRANCH  16  10
ATOM     10  N   UNL     1       0.456  -1.226  23.900  0.00  0.00    -0.187 NA
ATOM     37  H   UNL     1       0.670  -0.981  24.875  0.00  0.00    +0.148 HD
BRANCH  10   1
ATOM      1  S   UNL     1       1.038  -0.166  22.673  0.00  0.00    +0.058 S 
ATOM      6  O   UNL     1       0.530   1.167  22.934  0.00  0.00    -0.153 OA
ATOM      7  O   UNL     1       0.862  -0.770  21.365  0.00  0.00    -0.153 OA
BRANCH   1  23
ATOM     23  C   UNL     1       2.772  -0.165  23.012  0.00  0.00    +0.105 A 
ATOM     26  C   UNL     1       3.543   0.955  22.700  0.00  0.00    +0.029 A 
ATOM     27  C   UNL     1       3.371  -1.282  23.593  0.00  0.00    +0.029 A 
ATOM     31  C   UNL     1       4.912   0.956  22.966  0.00  0.00    +0.005 A 
ATOM     32  C   UNL     1       4.739  -1.282  23.861  0.00  0.00    +0.005 A 
ATOM     33  C   UNL     1       5.510  -0.162  23.548  0.00  0.00    -0.050 A 
ATOM     34  C   UNL     1       6.974  -0.160  23.834  0.00  0.00    +0.044 C 
ENDBRANCH   1  23
ENDBRANCH  10   1
ENDBRANCH  16  10
ENDBRANCH  14  16
TORSDOF 9
ENDMDL
MODEL 8
REMARK VINA RESULT:       5.1      2.445      6.760
REMARK  Name = 40778175
REMARK  10 active torsions:
REMARK  status: ('A' for Active; 'I' for Inactive)
REMARK    1  A    between atoms: S_1  and  N_10
REMARK    2  A    between atoms: S_1  and  C_23
REMARK    3  A    between atoms: O_3  and  C_12
REMARK    4  A    between atoms: O_4  and  C_13
REMARK    5  A    between atoms: N_9  and  C_22
REMARK    6  A    between atoms: N_10  and  C_16
REMARK    7  A    between atoms: C_11  and  C_15
REMARK    8  A    between atoms: C_14  and  C_16
REMARK    9  A    between atoms: C_15  and  C_17
REMARK   10  A    between atoms: C_33  and  C_34
REMARK                            x       y       z     vdW  Elec       q    Type
REMARK                         _______ _______ _______ _____ _____    ______ ____
ROOT
ATOM      2  O   UNL     1      -0.601   4.151  24.653  0.00  0.00    -0.366 OA
ATOM     11  C   UNL     1      -1.263   4.356  25.914  0.00  0.00    +0.158 C 
ATOM     12  C   UNL     1      -1.236   3.008  26.615  0.00  0.00    +0.175 C 
ATOM     13  C   UNL     1       0.105   2.463  26.172  0.00  0.00    +0.175 C 
ATOM     14  C   UNL     1       0.177   2.935  24.725  0.00  0.00    +0.165 C 
ENDROOT
BRANCH  12   3
ATOM      3  O   UNL     1      -1.352   3.138  28.016  0.00  0.00    -0.387 OA
ATOM     35  H   UNL     1      -1.285   4.085  28.227  0.00  0.00    +0.210 HD
ENDBRANCH  12   3
BRANCH  13   4
ATOM      4  O   UNL     1       1.161   3.093  26.897  0.00  0.00    -0.387 OA
ATOM     36  H   UNL     1       0.941   3.032  27.841  0.00  0.00    +0.210 HD
ENDBRANCH  13   4
BRANCH  11  15
ATOM     15  C   UNL     1      -2.667   4.883  25.675  0.00  0.00    +0.130 C 
BRANCH  15  17
ATOM      5  O   UNL     1      -3.488   5.000  23.449  0.00  0.00    -0.276 OA
ATOM      8  N   UNL     1      -3.452   2.897  24.440  0.00  0.00    -0.298 N 
ATOM      9  N   UNL     1      -3.735   0.020  24.300  0.00  0.00    -0.327 N 
ATOM     17  C   UNL     1      -3.237   4.276  24.417  0.00  0.00    +0.218 C 
ATOM     18  C   UNL     1      -4.007   2.235  23.262  0.00  0.00    +0.126 C 
ATOM     19  C   UNL     1      -3.144   2.038  25.585  0.00  0.00    +0.126 C 
ATOM     20  C   UNL     1      -3.469   0.816  23.100  0.00  0.00    +0.124 C 
ATOM     21  C   UNL     1      -3.930   0.727  25.570  0.00  0.00    +0.124 C 
BRANCH   9  22
ATOM     22  C   UNL     1      -3.834  -1.367  24.228  0.00  0.00    +0.030 A 
ATOM     24  C   UNL     1      -4.684  -1.957  23.293  0.00  0.00    +0.023 A 
ATOM     25  C   UNL     1      -3.084  -2.166  25.091  0.00  0.00    +0.023 A 
ATOM     28  C   UNL     1      -4.784  -3.347  23.220  0.00  0.00    +0.002 A 
ATOM     29  C   UNL     1      -3.185  -3.556  25.018  0.00  0.00    +0.002 A 
ATOM     30  C   UNL     1      -4.035  -4.146  24.083  0.00  0.00    +0.000 A 
ENDBRANCH   9  22
ENDBRANCH  15  17
ENDBRANCH  11  15
BRANCH  14  16
ATOM     16  C   UNL     1      -0.423   1.939  23.741  0.00  0.00    +0.140 C 
BRANCH  16  10
ATOM     10  N   UNL     1       0.569   1.445  22.833  0.00  0.00    -0.187 NA
ATOM     37  H   UNL     1       0.745   2.011  21.994  0.00  0.00    +0.148 HD
BRANCH  10   1
ATOM      1  S   UNL     1       0.944  -0.235  22.746  0.00  0.00    +0.058 S 
ATOM      6  O   UNL     1       0.733  -0.686  21.384  0.00  0.00    -0.153 OA
ATOM      7  O   UNL     1       0.329  -0.943  23.853  0.00  0.00    -0.153 OA
BRANCH   1  23
ATOM     23  C   UNL     1       2.686  -0.215  23.049  0.00  0.00    +0.105 A 
ATOM     26  C   UNL     1       3.433   0.922  22.742  0.00  0.00    +0.029 A 
ATOM     27  C   UNL     1       3.312  -1.334  23.595  0.00  0.00    +0.029 A 
ATOM     31  C   UNL     1       4.808   0.938  22.980  0.00  0.00    +0.005 A 
ATOM     32  C   UNL     1       4.686  -1.319  23.834  0.00  0.00    +0.005 A 
ATOM     33  C   UNL     1       5.434  -0.182  23.527  0.00  0.00    -0.050 A 
ATOM     34  C   UNL     1       6.903  -0.164  23.782  0.00  0.00    +0.044 C 
ENDBRANCH   1  23
ENDBRANCH  10   1
ENDBRANCH  16  10
ENDBRANCH  14  16
TORSDOF 9
ENDMDL
MODEL 9
REMARK VINA RESULT:       5.6      2.188      6.808
REMARK  Name = 40778175
REMARK  10 active torsions:
REMARK  status: ('A' for Active; 'I' for Inactive)
REMARK    1  A    between atoms: S_1  and  N_10
REMARK    2  A    between atoms: S_1  and  C_23
REMARK    3  A    between atoms: O_3  and  C_12
REMARK    4  A    between atoms: O_4  and  C_13
REMARK    5  A    between atoms: N_9  and  C_22
REMARK    6  A    between atoms: N_10  and  C_16
REMARK    7  A    between atoms: C_11  and  C_15
REMARK    8  A    between atoms: C_14  and  C_16
REMARK    9  A    between atoms: C_15  and  C_17
REMARK   10  A    between atoms: C_33  and  C_34
REMARK                            x       y       z     vdW  Elec       q    Type
REMARK                         _______ _______ _______ _____ _____    ______ ____
ROOT
ATOM      2  O   UNL     1      -2.398   3.539  24.014  0.00  0.00    -0.366 OA
ATOM     11  C   UNL     1      -2.219   4.764  24.748  0.00  0.00    +0.158 C 
ATOM     12  C   UNL     1      -0.737   4.833  25.077  0.00  0.00    +0.175 C 
ATOM     13  C   UNL     1      -0.123   4.212  23.840  0.00  0.00    +0.175 C 
ATOM     14  C   UNL     1      -1.113   3.099  23.519  0.00  0.00    +0.165 C 
ENDROOT
BRANCH  12   3
ATOM      3  O   UNL     1      -0.308   6.158  25.310  0.00  0.00    -0.387 OA
ATOM     35  H   UNL     1       0.095   6.482  24.487  0.00  0.00    +0.210 HD
ENDBRANCH  12   3
BRANCH  13   4
ATOM      4  O   UNL     1      -0.137   5.143  22.758  0.00  0.00    -0.387 OA
ATOM     36  H   UNL     1       0.787   5.363  22.554  0.00  0.00    +0.210 HD
ENDBRANCH  13   4
BRANCH  11  15
ATOM     15  C   UNL     1      -3.110   4.758  25.977  0.00  0.00    +0.130 C 
BRANCH  15  17
ATOM      5  O   UNL     1      -5.456   4.571  25.658  0.00  0.00    -0.276 OA
ATOM      8  N   UNL     1      -4.220   2.609  25.492  0.00  0.00    -0.298 N 
ATOM      9  N   UNL     1      -3.996  -0.203  24.843  0.00  0.00    -0.327 N 
ATOM     17  C   UNL     1      -4.372   3.981  25.694  0.00  0.00    +0.218 C 
ATOM     18  C   UNL     1      -5.396   1.787  25.217  0.00  0.00    +0.126 C 
ATOM     19  C   UNL     1      -2.932   1.913  25.524  0.00  0.00    +0.126 C 
ATOM     20  C   UNL     1      -5.072   0.621  24.287  0.00  0.00    +0.124 C 
ATOM     21  C   UNL     1      -3.075   0.416  25.801  0.00  0.00    +0.124 C 
BRANCH   9  22
ATOM     22  C   UNL     1      -3.876  -1.547  24.498  0.00  0.00    +0.030 A 
ATOM     24  C   UNL     1      -2.842  -2.314  25.031  0.00  0.00    +0.023 A 
ATOM     25  C   UNL     1      -4.791  -2.125  23.617  0.00  0.00    +0.023 A 
ATOM     28  C   UNL     1      -2.721  -3.661  24.686  0.00  0.00    +0.002 A 
ATOM     29  C   UNL     1      -4.670  -3.471  23.271  0.00  0.00    +0.002 A 
ATOM     30  C   UNL     1      -3.636  -4.238  23.805  0.00  0.00    +0.000 A 
ENDBRANCH   9  22
ENDBRANCH  15  17
ENDBRANCH  11  15
BRANCH  14  16
ATOM     16  C   UNL     1      -0.775   1.783  24.207  0.00  0.00    +0.140 C 
BRANCH  16  10
ATOM     10  N   UNL     1       0.562   1.365  23.899  0.00  0.00    -0.187 NA
ATOM     37  H   UNL     1       1.234   2.110  23.676  0.00  0.00    +0.148 HD
BRANCH  10   1
ATOM      1  S   UNL     1       0.885  -0.207  23.272  0.00  0.00    +0.058 S 
ATOM      6  O   UNL     1       0.460  -0.248  21.887  0.00  0.00    -0.153 OA
ATOM      7  O   UNL     1       0.432  -1.221  24.205  0.00  0.00    -0.153 OA
BRANCH   1  23
ATOM     23  C   UNL     1       2.653  -0.232  23.301  0.00  0.00    +0.105 A 
ATOM     26  C   UNL     1       3.372   0.882  22.867  0.00  0.00    +0.029 A 
ATOM     27  C   UNL     1       3.327  -1.363  23.758  0.00  0.00    +0.029 A 
ATOM     31  C   UNL     1       4.767   0.862  22.888  0.00  0.00    +0.005 A 
ATOM     32  C   UNL     1       4.722  -1.383  23.780  0.00  0.00    +0.005 A 
ATOM     33  C   UNL     1       5.441  -0.270  23.346  0.00  0.00    -0.050 A 
ATOM     34  C   UNL     1       6.932  -0.290  23.370  0.00  0.00    +0.044 C 
ENDBRANCH   1  23
ENDBRANCH  10   1
ENDBRANCH  16  10
ENDBRANCH  14  16
TORSDOF 9
ENDMDL
MODEL 10
REMARK VINA RESULT:       6.3      1.981      4.646
REMARK  Name = 40778175
REMARK  10 active torsions:
REMARK  status: ('A' for Active; 'I' for Inactive)
REMARK    1  A    between atoms: S_1  and  N_10
REMARK    2  A    between atoms: S_1  and  C_23
REMARK    3  A    between atoms: O_3  and  C_12
REMARK    4  A    between atoms: O_4  and  C_13
REMARK    5  A    between atoms: N_9  and  C_22
REMARK    6  A    between atoms: N_10  and  C_16
REMARK    7  A    between atoms: C_11  and  C_15
REMARK    8  A    between atoms: C_14  and  C_16
REMARK    9  A    between atoms: C_15  and  C_17
REMARK   10  A    between atoms: C_33  and  C_34
REMARK                            x       y       z     vdW  Elec       q    Type
REMARK                         _______ _______ _______ _____ _____    ______ ____
ROOT
ATOM      2  O   UNL     1      -3.090   0.094  25.106  0.00  0.00    -0.366 OA
ATOM     11  C   UNL     1      -3.383  -0.817  24.033  0.00  0.00    +0.158 C 
ATOM     12  C   UNL     1      -2.447  -1.998  24.229  0.00  0.00    +0.175 C 
ATOM     13  C   UNL     1      -2.385  -2.087  25.739  0.00  0.00    +0.175 C 
ATOM     14  C   UNL     1      -2.379  -0.618  26.145  0.00  0.00    +0.165 C 
ENDROOT
BRANCH  12   3
ATOM      3  O   UNL     1      -2.939  -3.171  23.618  0.00  0.00    -0.387 OA
ATOM     35  H   UNL     1      -3.663  -3.507  24.174  0.00  0.00    +0.210 HD
ENDBRANCH  12   3
BRANCH  13   4
ATOM      4  O   UNL     1      -3.576  -2.684  26.250  0.00  0.00    -0.387 OA
ATOM     36  H   UNL     1      -3.723  -2.323  27.140  0.00  0.00    +0.210 HD
ENDBRANCH  13   4
BRANCH  11  15
ATOM     15  C   UNL     1      -3.196  -0.114  22.700  0.00  0.00    +0.130 C 
BRANCH  15  17
ATOM      5  O   UNL     1      -2.718   2.195  22.980  0.00  0.00    -0.276 OA
ATOM      8  N   UNL     1      -0.894   0.758  22.865  0.00  0.00    -0.298 N 
ATOM      9  N   UNL     1       1.942   0.232  23.100  0.00  0.00    -0.327 N 
ATOM     17  C   UNL     1      -2.258   1.056  22.863  0.00  0.00    +0.218 C 
ATOM     18  C   UNL     1       0.079   1.838  23.013  0.00  0.00    +0.126 C 
ATOM     19  C   UNL     1      -0.351  -0.596  22.737  0.00  0.00    +0.126 C 
ATOM     20  C   UNL     1       1.326   1.381  23.766  0.00  0.00    +0.124 C 
ATOM     21  C   UNL     1       1.097  -0.608  22.245  0.00  0.00    +0.124 C 
BRANCH   9  22
ATOM     22  C   UNL     1       3.302  -0.033  23.248  0.00  0.00    +0.030 A 
ATOM     24  C   UNL     1       4.241   0.951  22.940  0.00  0.00    +0.023 A 
ATOM     25  C   UNL     1       3.724  -1.282  23.703  0.00  0.00    +0.023 A 
ATOM     28  C   UNL     1       5.603   0.687  23.088  0.00  0.00    +0.002 A 
ATOM     29  C   UNL     1       5.085  -1.546  23.850  0.00  0.00    +0.002 A 
ATOM     30  C   UNL     1       6.024  -0.562  23.543  0.00  0.00    +0.000 A 
ENDBRANCH   9  22
ENDBRANCH  15  17
ENDBRANCH  11  15
BRANCH  14  16
ATOM     16  C   UNL     1      -0.978  -0.030  26.237  0.00  0.00    +0.140 C 
BRANCH  16  10
ATOM     10  N   UNL     1      -0.879   1.194  25.496  0.00  0.00    -0.187 NA
ATOM     37  H   UNL     1      -0.506   1.122  24.541  0.00  0.00    +0.148 HD
BRANCH  10   1
ATOM      1  S   UNL     1      -0.721   2.712  26.294  0.00  0.00    +0.058 S 
ATOM      6  O   UNL     1       0.287   3.494  25.605  0.00  0.00    -0.153 OA
ATOM      7  O   UNL     1      -0.638   2.517  27.730  0.00  0.00    -0.153 OA
BRANCH   1  23
ATOM     23  C   UNL     1      -2.297   3.441  25.963  0.00  0.00    +0.105 A 
ATOM     26  C   UNL     1      -2.372   4.681  25.328  0.00  0.00    +0.029 A 
ATOM     27  C   UNL     1      -3.465   2.777  26.336  0.00  0.00    +0.029 A 
ATOM     31  C   UNL     1      -3.615   5.257  25.068  0.00  0.00    +0.005 A 
ATOM     32  C   UNL     1      -4.709   3.352  26.076  0.00  0.00    +0.005 A 
ATOM     33  C   UNL     1      -4.784   4.592  25.441  0.00  0.00    -0.050 A 
ATOM     34  C   UNL     1      -6.113   5.208  25.161  0.00  0.00    +0.044 C 
ENDBRANCH   1  23
ENDBRANCH  10   1
ENDBRANCH  16  10
ENDBRANCH  14  16
TORSDOF 9
ENDMDL
