MODEL 1
REMARK VINA RESULT:       5.3      0.000      0.000
REMARK  Name = 7051087
REMARK  12 active torsions:
REMARK  status: ('A' for Active; 'I' for Inactive)
REMARK    1  A    between atoms: O_3  and  C_15
REMARK    2  A    between atoms: O_4  and  C_20
REMARK    3  A    between atoms: N_8  and  C_26
REMARK    4  A    between atoms: N_8  and  C_27
REMARK    5  A    between atoms: C_10  and  C_18
REMARK    6  A    between atoms: C_12  and  C_20
REMARK    7  A    between atoms: C_12  and  C_21
REMARK    8  A    between atoms: C_13  and  C_23
REMARK    9  A    between atoms: C_23  and  C_24
REMARK   10  A    between atoms: C_26  and  C_29
REMARK   11  A    between atoms: C_27  and  C_30
REMARK   12  A    between atoms: C_28  and  C_31
REMARK                            x       y       z     vdW  Elec       q    Type
REMARK                         _______ _______ _______ _____ _____    ______ ____
ROOT
ATOM      1  S   UNL     1       0.496   2.288  25.732  0.00  0.00    -0.057 S 
ATOM      6  O   UNL     1       1.930  -0.192  22.104  0.00  0.00    -0.269 OA
ATOM      7  N   UNL     1      -0.242   1.111  23.549  0.00  0.00    -0.229 NA
ATOM      9  N   UNL     1       2.098   0.989  24.112  0.00  0.00    -0.260 N 
ATOM     10  C   UNL     1      -3.890   1.929  24.495  0.00  0.00    -0.019 C 
ATOM     11  C   UNL     1      -3.476   3.266  25.255  0.00  0.00    +0.011 C 
ATOM     12  C   UNL     1      -4.621   4.042  26.013  0.00  0.00    +0.021 C 
ATOM     13  C   UNL     1      -2.723   1.565  23.467  0.00  0.00    +0.054 C 
ATOM     14  C   UNL     1      -5.192   2.176  23.690  0.00  0.00    +0.010 C 
ATOM     15  C   UNL     1      -5.861   4.161  25.084  0.00  0.00    +0.123 C 
ATOM     16  C   UNL     1      -2.188   3.061  26.105  0.00  0.00    +0.049 C 
ATOM     17  C   UNL     1      -6.306   2.824  24.501  0.00  0.00    +0.032 C 
ATOM     18  C   UNL     1      -4.120   0.737  25.457  0.00  0.00    +0.012 C 
ATOM     19  C   UNL     1      -1.370   1.669  24.122  0.00  0.00    +0.058 A 
ATOM     21  C   UNL     1      -4.135   5.487  26.322  0.00  0.00    +0.016 C 
ATOM     22  C   UNL     1      -1.149   2.361  25.296  0.00  0.00    +0.015 A 
ATOM     25  C   UNL     1       0.797   1.368  24.313  0.00  0.00    +0.165 A 
ATOM     28  C   UNL     1       2.612   0.234  23.033  0.00  0.00    +0.256 C 
ATOM     37  H   UNL     1       2.746   1.290  24.835  0.00  0.00    +0.157 HD
ENDROOT
BRANCH  28  31
ATOM      2  S   UNL     1       4.566  -1.540  23.803  0.00  0.00    -0.092 S 
ATOM     31  C   UNL     1       4.053  -0.061  23.110  0.00  0.00    +0.074 A 
ATOM     32  C   UNL     1       5.115   0.708  22.687  0.00  0.00    +0.021 A 
ATOM     33  C   UNL     1       6.367   0.074  22.936  0.00  0.00    +0.008 A 
ATOM     34  C   UNL     1       6.214  -1.156  23.540  0.00  0.00    +0.046 A 
ENDBRANCH  28  31
BRANCH  15   3
ATOM      3  O   UNL     1      -6.960   4.745  25.783  0.00  0.00    -0.391 OA
ATOM     35  H   UNL     1      -6.604   5.212  26.556  0.00  0.00    +0.210 HD
ENDBRANCH  15   3
BRANCH  12  20
ATOM     20  C   UNL     1      -5.011   3.436  27.379  0.00  0.00    +0.165 C 
BRANCH  20   4
ATOM      4  O   UNL     1      -6.100   2.564  27.170  0.00  0.00    -0.394 OA
ATOM     36  H   UNL     1      -6.489   2.372  28.040  0.00  0.00    +0.209 HD
ENDBRANCH  20   4
ENDBRANCH  12  20
BRANCH  13  23
ATOM     23  C   UNL     1      -2.899   0.218  22.752  0.00  0.00    +0.106 C 
BRANCH  23  24
ATOM      5  O   UNL     1      -4.794  -0.858  23.751  0.00  0.00    -0.276 OA
ATOM      8  N   UNL     1      -2.701  -1.697  24.298  0.00  0.00    -0.302 N 
ATOM     24  C   UNL     1      -3.565  -0.817  23.637  0.00  0.00    +0.216 C 
BRANCH   8  26
ATOM     26  C   UNL     1      -1.249  -1.629  24.148  0.00  0.00    +0.104 C 
ATOM     29  C   UNL     1      -0.551  -1.677  25.492  0.00  0.00    +0.024 C 
ENDBRANCH   8  26
BRANCH   8  27
ATOM     27  C   UNL     1      -3.184  -2.749  25.184  0.00  0.00    +0.104 C 
ATOM     30  C   UNL     1      -3.908  -3.834  24.413  0.00  0.00    +0.024 C 
ENDBRANCH   8  27
ENDBRANCH  23  24
ENDBRANCH  13  23
TORSDOF 8
ENDMDL
MODEL 2
REMARK VINA RESULT:       6.8      0.863      1.374
REMARK  Name = 7051087
REMARK  12 active torsions:
REMARK  status: ('A' for Active; 'I' for Inactive)
REMARK    1  A    between atoms: O_3  and  C_15
REMARK    2  A    between atoms: O_4  and  C_20
REMARK    3  A    between atoms: N_8  and  C_26
REMARK    4  A    between atoms: N_8  and  C_27
REMARK    5  A    between atoms: C_10  and  C_18
REMARK    6  A    between atoms: C_12  and  C_20
REMARK    7  A    between atoms: C_12  and  C_21
REMARK    8  A    between atoms: C_13  and  C_23
REMARK    9  A    between atoms: C_23  and  C_24
REMARK   10  A    between atoms: C_26  and  C_29
REMARK   11  A    between atoms: C_27  and  C_30
REMARK   12  A    between atoms: C_28  and  C_31
REMARK                            x       y       z     vdW  Elec       q    Type
REMARK                         _______ _______ _______ _____ _____    ______ ____
ROOT
ATOM      1  S   UNL     1       0.546   2.356  25.700  0.00  0.00    -0.057 S 
ATOM      6  O   UNL     1       1.999  -0.259  22.175  0.00  0.00    -0.269 OA
ATOM      7  N   UNL     1      -0.188   1.058  23.585  0.00  0.00    -0.229 NA
ATOM      9  N   UNL     1       2.161   1.020  24.122  0.00  0.00    -0.260 N 
ATOM     10  C   UNL     1      -3.844   1.830  24.539  0.00  0.00    -0.019 C 
ATOM     11  C   UNL     1      -3.455   3.211  25.230  0.00  0.00    +0.011 C 
ATOM     12  C   UNL     1      -4.610   3.994  25.965  0.00  0.00    +0.021 C 
ATOM     13  C   UNL     1      -2.680   1.447  23.514  0.00  0.00    +0.054 C 
ATOM     14  C   UNL     1      -5.161   2.007  23.740  0.00  0.00    +0.010 C 
ATOM     15  C   UNL     1      -5.864   4.038  25.047  0.00  0.00    +0.123 C 
ATOM     16  C   UNL     1      -2.152   3.079  26.071  0.00  0.00    +0.049 C 
ATOM     17  C   UNL     1      -6.282   2.664  24.534  0.00  0.00    +0.032 C 
ATOM     18  C   UNL     1      -4.032   0.680  25.559  0.00  0.00    +0.012 C 
ATOM     19  C   UNL     1      -1.323   1.615  24.146  0.00  0.00    +0.058 A 
ATOM     21  C   UNL     1      -4.156   5.464  26.199  0.00  0.00    +0.016 C 
ATOM     22  C   UNL     1      -1.106   2.367  25.283  0.00  0.00    +0.015 A 
ATOM     25  C   UNL     1       0.853   1.377  24.322  0.00  0.00    +0.165 A 
ATOM     28  C   UNL     1       2.680   0.228  23.074  0.00  0.00    +0.256 C 
ATOM     37  H   UNL     1       2.810   1.372  24.822  0.00  0.00    +0.157 HD
ENDROOT
BRANCH  28  31
ATOM      2  S   UNL     1       4.685  -1.497  23.826  0.00  0.00    -0.092 S 
ATOM     31  C   UNL     1       4.130  -0.028  23.145  0.00  0.00    +0.074 A 
ATOM     32  C   UNL     1       5.169   0.774  22.727  0.00  0.00    +0.021 A 
ATOM     33  C   UNL     1       6.439   0.173  22.968  0.00  0.00    +0.008 A 
ATOM     34  C   UNL     1       6.321  -1.065  23.563  0.00  0.00    +0.046 A 
ENDBRANCH  28  31
BRANCH  15   3
ATOM      3  O   UNL     1      -6.968   4.628  25.732  0.00  0.00    -0.391 OA
ATOM     35  H   UNL     1      -6.696   5.514  26.025  0.00  0.00    +0.210 HD
ENDBRANCH  15   3
BRANCH  12  20
ATOM     20  C   UNL     1      -4.968   3.444  27.363  0.00  0.00    +0.165 C 
BRANCH  20   4
ATOM      4  O   UNL     1      -6.051   2.554  27.212  0.00  0.00    -0.394 OA
ATOM     36  H   UNL     1      -6.619   2.653  27.995  0.00  0.00    +0.209 HD
ENDBRANCH  20   4
ENDBRANCH  12  20
BRANCH  13  23
ATOM     23  C   UNL     1      -2.831   0.063  22.866  0.00  0.00    +0.106 C 
BRANCH  23  24
ATOM      5  O   UNL     1      -1.251  -1.097  24.246  0.00  0.00    -0.276 OA
ATOM      8  N   UNL     1      -3.380  -2.007  24.095  0.00  0.00    -0.302 N 
ATOM     24  C   UNL     1      -2.399  -1.054  23.796  0.00  0.00    +0.216 C 
BRANCH   8  26
ATOM     26  C   UNL     1      -4.734  -1.935  23.550  0.00  0.00    +0.104 C 
ATOM     29  C   UNL     1      -5.264  -3.310  23.202  0.00  0.00    +0.024 C 
ENDBRANCH   8  26
BRANCH   8  27
ATOM     27  C   UNL     1      -3.125  -3.141  24.974  0.00  0.00    +0.104 C 
ATOM     30  C   UNL     1      -3.071  -2.716  26.427  0.00  0.00    +0.024 C 
ENDBRANCH   8  27
ENDBRANCH  23  24
ENDBRANCH  13  23
TORSDOF 8
ENDMDL
