MODEL 1
REMARK VINA RESULT:      -6.1      0.000      0.000
REMARK  Name = 75367095
REMARK  7 active torsions:
REMARK  status: ('A' for Active; 'I' for Inactive)
REMARK    1  A    between atoms: S_1  and  N_7
REMARK    2  A    between atoms: S_1  and  C_18
REMARK    3  A    between atoms: O_3  and  C_10
REMARK    4  A    between atoms: N_6  and  C_8
REMARK    5  A    between atoms: N_6  and  C_9
REMARK    6  A    between atoms: N_7  and  C_17
REMARK    7  A    between atoms: C_13  and  C_17
REMARK                            x       y       z     vdW  Elec       q    Type
REMARK                         _______ _______ _______ _____ _____    ______ ____
ROOT
ATOM      2  O   UNL     1      -2.904   2.942  23.813  0.00  0.00    -0.371 OA
ATOM      9  C   UNL     1      -4.858   1.687  24.310  0.00  0.00    +0.111 C 
ATOM     10  C   UNL     1      -4.483   2.519  25.522  0.00  0.00    +0.164 C 
ATOM     13  C   UNL     1      -3.611   3.591  24.883  0.00  0.00    +0.164 C 
ATOM     16  C   UNL     1      -3.554   1.692  23.527  0.00  0.00    +0.181 C 
ENDROOT
BRANCH  10   3
ATOM      3  O   UNL     1      -5.610   3.074  26.172  0.00  0.00    -0.388 OA
ATOM     25  H   UNL     1      -5.402   3.992  26.416  0.00  0.00    +0.210 HD
ENDBRANCH  10   3
BRANCH   9   6
ATOM      6  N   UNL     1      -5.313   0.346  24.640  0.00  0.00    -0.306 NA
ATOM     24  H   UNL     1      -6.054   0.059  24.002  0.00  0.00    +0.123 HD
BRANCH   6   8
ATOM      8  C   UNL     1      -4.218  -0.605  24.594  0.00  0.00    +0.054 C 
ATOM     11  C   UNL     1      -4.529  -1.821  23.732  0.00  0.00    +0.019 C 
ATOM     12  C   UNL     1      -3.924  -1.233  25.951  0.00  0.00    +0.019 C 
ATOM     14  C   UNL     1      -3.492  -2.851  24.173  0.00  0.00    +0.002 C 
ATOM     15  C   UNL     1      -3.101  -2.471  25.604  0.00  0.00    +0.002 C 
ENDBRANCH   6   8
ENDBRANCH   9   6
BRANCH  13  17
ATOM     17  C   UNL     1      -2.620   4.214  25.850  0.00  0.00    +0.140 C 
BRANCH  17   7
ATOM      7  N   UNL     1      -1.697   3.176  26.350  0.00  0.00    -0.187 NA
ATOM     26  H   UNL     1      -1.882   2.835  27.302  0.00  0.00    +0.148 HD
BRANCH   7   1
ATOM      1  S   UNL     1      -0.105   3.094  25.758  0.00  0.00    +0.058 S 
ATOM      4  O   UNL     1       0.822   3.053  26.872  0.00  0.00    -0.153 OA
ATOM      5  O   UNL     1       0.060   4.081  24.708  0.00  0.00    -0.153 OA
BRANCH   1  18
ATOM     18  C   UNL     1      -0.089   1.506  24.980  0.00  0.00    +0.105 A 
ATOM     19  C   UNL     1      -0.678   0.413  25.615  0.00  0.00    +0.028 A 
ATOM     20  C   UNL     1       0.515   1.346  23.733  0.00  0.00    +0.028 A 
ATOM     21  C   UNL     1      -0.663  -0.841  25.004  0.00  0.00    +0.002 A 
ATOM     22  C   UNL     1       0.530   0.093  23.122  0.00  0.00    +0.002 A 
ATOM     23  C   UNL     1      -0.058  -1.001  23.756  0.00  0.00    +0.000 A 
ENDBRANCH   1  18
ENDBRANCH   7   1
ENDBRANCH  17   7
ENDBRANCH  13  17
TORSDOF 7
ENDMDL
MODEL 2
REMARK VINA RESULT:      -5.4      2.278      4.045
REMARK  Name = 75367095
REMARK  7 active torsions:
REMARK  status: ('A' for Active; 'I' for Inactive)
REMARK    1  A    between atoms: S_1  and  N_7
REMARK    2  A    between atoms: S_1  and  C_18
REMARK    3  A    between atoms: O_3  and  C_10
REMARK    4  A    between atoms: N_6  and  C_8
REMARK    5  A    between atoms: N_6  and  C_9
REMARK    6  A    between atoms: N_7  and  C_17
REMARK    7  A    between atoms: C_13  and  C_17
REMARK                            x       y       z     vdW  Elec       q    Type
REMARK                         _______ _______ _______ _____ _____    ______ ____
ROOT
ATOM      2  O   UNL     1      -1.086   1.928  23.210  0.00  0.00    -0.371 OA
ATOM      9  C   UNL     1      -2.642   3.642  23.740  0.00  0.00    +0.111 C 
ATOM     10  C   UNL     1      -1.790   3.352  24.962  0.00  0.00    +0.164 C 
ATOM     13  C   UNL     1      -0.581   2.683  24.323  0.00  0.00    +0.164 C 
ATOM     16  C   UNL     1      -2.416   2.388  22.911  0.00  0.00    +0.181 C 
ENDROOT
BRANCH  10   3
ATOM      3  O   UNL     1      -1.433   4.524  25.668  0.00  0.00    -0.388 OA
ATOM     25  H   UNL     1      -2.082   4.664  26.378  0.00  0.00    +0.210 HD
ENDBRANCH  10   3
BRANCH   9   6
ATOM      6  N   UNL     1      -4.045   3.871  24.047  0.00  0.00    -0.306 NA
ATOM     24  H   UNL     1      -4.594   3.886  23.189  0.00  0.00    +0.123 HD
BRANCH   6   8
ATOM      8  C   UNL     1      -4.555   2.855  24.949  0.00  0.00    +0.054 C 
ATOM     11  C   UNL     1      -5.667   2.020  24.328  0.00  0.00    +0.019 C 
ATOM     12  C   UNL     1      -5.238   3.446  26.177  0.00  0.00    +0.019 C 
ATOM     14  C   UNL     1      -6.341   1.365  25.531  0.00  0.00    +0.002 C 
ATOM     15  C   UNL     1      -6.064   2.285  26.724  0.00  0.00    +0.002 C 
ENDBRANCH   6   8
ENDBRANCH   9   6
BRANCH  13  17
ATOM     17  C   UNL     1       0.166   1.762  25.272  0.00  0.00    +0.140 C 
BRANCH  17   7
ATOM      7  N   UNL     1      -0.682   0.600  25.603  0.00  0.00    -0.187 NA
ATOM     26  H   UNL     1      -1.115   0.616  26.535  0.00  0.00    +0.148 HD
BRANCH   7   1
ATOM      1  S   UNL     1      -0.384  -0.908  24.875  0.00  0.00    +0.058 S 
ATOM      4  O   UNL     1       0.184  -1.812  25.857  0.00  0.00    -0.153 OA
ATOM      5  O   UNL     1       0.286  -0.696  23.606  0.00  0.00    -0.153 OA
BRANCH   1  18
ATOM     18  C   UNL     1      -2.022  -1.462  24.508  0.00  0.00    +0.105 A 
ATOM     19  C   UNL     1      -2.307  -2.828  24.486  0.00  0.00    +0.028 A 
ATOM     20  C   UNL     1      -3.028  -0.536  24.236  0.00  0.00    +0.028 A 
ATOM     21  C   UNL     1      -3.599  -3.266  24.192  0.00  0.00    +0.002 A 
ATOM     22  C   UNL     1      -4.319  -0.973  23.943  0.00  0.00    +0.002 A 
ATOM     23  C   UNL     1      -4.605  -2.338  23.921  0.00  0.00    +0.000 A 
ENDBRANCH   1  18
ENDBRANCH   7   1
ENDBRANCH  17   7
ENDBRANCH  13  17
TORSDOF 7
ENDMDL
MODEL 3
REMARK VINA RESULT:      -5.3      2.058      5.037
REMARK  Name = 75367095
REMARK  7 active torsions:
REMARK  status: ('A' for Active; 'I' for Inactive)
REMARK    1  A    between atoms: S_1  and  N_7
REMARK    2  A    between atoms: S_1  and  C_18
REMARK    3  A    between atoms: O_3  and  C_10
REMARK    4  A    between atoms: N_6  and  C_8
REMARK    5  A    between atoms: N_6  and  C_9
REMARK    6  A    between atoms: N_7  and  C_17
REMARK    7  A    between atoms: C_13  and  C_17
REMARK                            x       y       z     vdW  Elec       q    Type
REMARK                         _______ _______ _______ _____ _____    ______ ____
ROOT
ATOM      2  O   UNL     1      -1.511   3.052  25.793  0.00  0.00    -0.371 OA
ATOM      9  C   UNL     1      -0.615   1.496  24.240  0.00  0.00    +0.111 C 
ATOM     10  C   UNL     1      -1.954   1.991  23.727  0.00  0.00    +0.164 C 
ATOM     13  C   UNL     1      -2.104   3.290  24.506  0.00  0.00    +0.164 C 
ATOM     16  C   UNL     1      -0.700   1.867  25.712  0.00  0.00    +0.181 C 
ENDROOT
BRANCH  10   3
ATOM      3  O   UNL     1      -1.955   2.210  22.330  0.00  0.00    -0.388 OA
ATOM     25  H   UNL     1      -1.370   2.962  22.137  0.00  0.00    +0.210 HD
ENDBRANCH  10   3
BRANCH   9   6
ATOM      6  N   UNL     1      -0.397   0.074  24.028  0.00  0.00    -0.306 NA
ATOM     24  H   UNL     1      -1.096  -0.297  23.385  0.00  0.00    +0.123 HD
BRANCH   6   8
ATOM      8  C   UNL     1       0.937  -0.181  23.517  0.00  0.00    +0.054 C 
ATOM     11  C   UNL     1       1.858   1.025  23.646  0.00  0.00    +0.019 C 
ATOM     12  C   UNL     1       0.953  -0.445  22.016  0.00  0.00    +0.019 C 
ATOM     14  C   UNL     1       2.998   0.712  22.680  0.00  0.00    +0.002 C 
ATOM     15  C   UNL     1       2.414  -0.236  21.629  0.00  0.00    +0.002 C 
ENDBRANCH   6   8
ENDBRANCH   9   6
BRANCH  13  17
ATOM     17  C   UNL     1      -3.549   3.724  24.678  0.00  0.00    +0.140 C 
BRANCH  17   7
ATOM      7  N   UNL     1      -4.444   2.711  24.084  0.00  0.00    -0.187 NA
ATOM     26  H   UNL     1      -4.766   2.907  23.127  0.00  0.00    +0.148 HD
BRANCH   7   1
ATOM      1  S   UNL     1      -5.422   1.745  25.085  0.00  0.00    +0.058 S 
ATOM      4  O   UNL     1      -6.725   1.580  24.469  0.00  0.00    -0.153 OA
ATOM      5  O   UNL     1      -5.316   2.222  26.451  0.00  0.00    -0.153 OA
BRANCH   1  18
ATOM     18  C   UNL     1      -4.586   0.189  25.015  0.00  0.00    +0.105 A 
ATOM     19  C   UNL     1      -3.792  -0.225  26.085  0.00  0.00    +0.028 A 
ATOM     20  C   UNL     1      -4.716  -0.623  23.888  0.00  0.00    +0.028 A 
ATOM     21  C   UNL     1      -3.130  -1.451  26.028  0.00  0.00    +0.002 A 
ATOM     22  C   UNL     1      -4.053  -1.849  23.831  0.00  0.00    +0.002 A 
ATOM     23  C   UNL     1      -3.260  -2.263  24.901  0.00  0.00    +0.000 A 
ENDBRANCH   1  18
ENDBRANCH   7   1
ENDBRANCH  17   7
ENDBRANCH  13  17
TORSDOF 7
ENDMDL
MODEL 4
REMARK VINA RESULT:      -5.1      2.750      5.897
REMARK  Name = 75367095
REMARK  7 active torsions:
REMARK  status: ('A' for Active; 'I' for Inactive)
REMARK    1  A    between atoms: S_1  and  N_7
REMARK    2  A    between atoms: S_1  and  C_18
REMARK    3  A    between atoms: O_3  and  C_10
REMARK    4  A    between atoms: N_6  and  C_8
REMARK    5  A    between atoms: N_6  and  C_9
REMARK    6  A    between atoms: N_7  and  C_17
REMARK    7  A    between atoms: C_13  and  C_17
REMARK                            x       y       z     vdW  Elec       q    Type
REMARK                         _______ _______ _______ _____ _____    ______ ____
ROOT
ATOM      2  O   UNL     1      -0.075  -0.001  23.672  0.00  0.00    -0.371 OA
ATOM      9  C   UNL     1      -0.280   1.166  25.730  0.00  0.00    +0.111 C 
ATOM     10  C   UNL     1      -0.980  -0.175  25.850  0.00  0.00    +0.164 C 
ATOM     13  C   UNL     1      -0.317  -0.952  24.721  0.00  0.00    +0.164 C 
ATOM     16  C   UNL     1      -0.189   1.324  24.220  0.00  0.00    +0.181 C 
ENDROOT
BRANCH  10   3
ATOM      3  O   UNL     1      -0.770  -0.789  27.107  0.00  0.00    -0.388 OA
ATOM     25  H   UNL     1       0.176  -0.728  27.324  0.00  0.00    +0.210 HD
ENDBRANCH  10   3
BRANCH   9   6
ATOM      6  N   UNL     1      -0.997   2.257  26.370  0.00  0.00    -0.306 NA
ATOM     24  H   UNL     1      -0.453   2.627  27.149  0.00  0.00    +0.123 HD
BRANCH   6   8
ATOM      8  C   UNL     1      -1.293   3.316  25.422  0.00  0.00    +0.054 C 
ATOM     11  C   UNL     1      -0.086   4.194  25.122  0.00  0.00    +0.019 C 
ATOM     12  C   UNL     1      -2.304   4.322  25.958  0.00  0.00    +0.019 C 
ATOM     14  C   UNL     1      -0.697   5.449  24.505  0.00  0.00    +0.002 C 
ATOM     15  C   UNL     1      -2.128   5.532  25.044  0.00  0.00    +0.002 C 
ENDBRANCH   6   8
ENDBRANCH   9   6
BRANCH  13  17
ATOM     17  C   UNL     1      -1.172  -2.091  24.194  0.00  0.00    +0.140 C 
BRANCH  17   7
ATOM      7  N   UNL     1      -2.404  -1.547  23.590  0.00  0.00    -0.187 NA
ATOM     26  H   UNL     1      -2.267  -0.846  22.851  0.00  0.00    +0.148 HD
BRANCH   7   1
ATOM      1  S   UNL     1      -3.847  -1.500  24.491  0.00  0.00    +0.058 S 
ATOM      4  O   UNL     1      -3.567  -1.865  25.866  0.00  0.00    -0.153 OA
ATOM      5  O   UNL     1      -4.888  -2.189  23.751  0.00  0.00    -0.153 OA
BRANCH   1  18
ATOM     18  C   UNL     1      -4.241   0.222  24.454  0.00  0.00    +0.105 A 
ATOM     19  C   UNL     1      -5.188   0.740  25.339  0.00  0.00    +0.028 A 
ATOM     20  C   UNL     1      -3.610   1.063  23.538  0.00  0.00    +0.028 A 
ATOM     21  C   UNL     1      -5.502   2.099  25.308  0.00  0.00    +0.002 A 
ATOM     22  C   UNL     1      -3.924   2.422  23.507  0.00  0.00    +0.002 A 
ATOM     23  C   UNL     1      -4.870   2.940  24.391  0.00  0.00    +0.000 A 
ENDBRANCH   1  18
ENDBRANCH   7   1
ENDBRANCH  17   7
ENDBRANCH  13  17
TORSDOF 7
ENDMDL
MODEL 5
REMARK VINA RESULT:      -4.8      2.707      5.919
REMARK  Name = 75367095
REMARK  7 active torsions:
REMARK  status: ('A' for Active; 'I' for Inactive)
REMARK    1  A    between atoms: S_1  and  N_7
REMARK    2  A    between atoms: S_1  and  C_18
REMARK    3  A    between atoms: O_3  and  C_10
REMARK    4  A    between atoms: N_6  and  C_8
REMARK    5  A    between atoms: N_6  and  C_9
REMARK    6  A    between atoms: N_7  and  C_17
REMARK    7  A    between atoms: C_13  and  C_17
REMARK                            x       y       z     vdW  Elec       q    Type
REMARK                         _______ _______ _______ _____ _____    ______ ____
ROOT
ATOM      2  O   UNL     1      -0.957   0.140  24.491  0.00  0.00    -0.371 OA
ATOM      9  C   UNL     1       1.176   0.286  23.456  0.00  0.00    +0.111 C 
ATOM     10  C   UNL     1       0.576   1.677  23.553  0.00  0.00    +0.164 C 
ATOM     13  C   UNL     1      -0.454   1.476  24.656  0.00  0.00    +0.164 C 
ATOM     16  C   UNL     1      -0.057  -0.586  23.635  0.00  0.00    +0.181 C 
ENDROOT
BRANCH  10   3
ATOM      3  O   UNL     1       1.533   2.660  23.897  0.00  0.00    -0.388 OA
ATOM     25  H   UNL     1       2.043   2.883  23.101  0.00  0.00    +0.210 HD
ENDBRANCH  10   3
BRANCH   9   6
ATOM      6  N   UNL     1       1.868   0.035  22.203  0.00  0.00    -0.306 NA
ATOM     24  H   UNL     1       1.750   0.826  21.571  0.00  0.00    +0.123 HD
BRANCH   6   8
ATOM      8  C   UNL     1       3.280  -0.218  22.427  0.00  0.00    +0.054 C 
ATOM     11  C   UNL     1       3.533  -1.142  23.611  0.00  0.00    +0.019 C 
ATOM     12  C   UNL     1       4.049   1.037  22.822  0.00  0.00    +0.019 C 
ATOM     14  C   UNL     1       5.005  -0.912  23.940  0.00  0.00    +0.002 C 
ATOM     15  C   UNL     1       5.338   0.493  23.430  0.00  0.00    +0.002 C 
ENDBRANCH   6   8
ENDBRANCH   9   6
BRANCH  13  17
ATOM     17  C   UNL     1      -1.601   2.468  24.594  0.00  0.00    +0.140 C 
BRANCH  17   7
ATOM      7  N   UNL     1      -2.682   2.033  25.500  0.00  0.00    -0.187 NA
ATOM     26  H   UNL     1      -2.379   1.645  26.403  0.00  0.00    +0.148 HD
BRANCH   7   1
ATOM      1  S   UNL     1      -4.176   1.526  24.864  0.00  0.00    +0.058 S 
ATOM      4  O   UNL     1      -4.308   2.010  23.503  0.00  0.00    -0.153 OA
ATOM      5  O   UNL     1      -5.219   1.792  25.837  0.00  0.00    -0.153 OA
BRANCH   1  18
ATOM     18  C   UNL     1      -3.966  -0.228  24.800  0.00  0.00    +0.105 A 
ATOM     19  C   UNL     1      -3.446  -0.909  25.901  0.00  0.00    +0.028 A 
ATOM     20  C   UNL     1      -4.315  -0.931  23.647  0.00  0.00    +0.028 A 
ATOM     21  C   UNL     1      -3.276  -2.292  25.849  0.00  0.00    +0.002 A 
ATOM     22  C   UNL     1      -4.145  -2.314  23.595  0.00  0.00    +0.002 A 
ATOM     23  C   UNL     1      -3.626  -2.995  24.696  0.00  0.00    +0.000 A 
ENDBRANCH   1  18
ENDBRANCH   7   1
ENDBRANCH  17   7
ENDBRANCH  13  17
TORSDOF 7
ENDMDL
MODEL 6
REMARK VINA RESULT:      -4.8      2.615      4.627
REMARK  Name = 75367095
REMARK  7 active torsions:
REMARK  status: ('A' for Active; 'I' for Inactive)
REMARK    1  A    between atoms: S_1  and  N_7
REMARK    2  A    between atoms: S_1  and  C_18
REMARK    3  A    between atoms: O_3  and  C_10
REMARK    4  A    between atoms: N_6  and  C_8
REMARK    5  A    between atoms: N_6  and  C_9
REMARK    6  A    between atoms: N_7  and  C_17
REMARK    7  A    between atoms: C_13  and  C_17
REMARK                            x       y       z     vdW  Elec       q    Type
REMARK                         _______ _______ _______ _____ _____    ______ ____
ROOT
ATOM      2  O   UNL     1      -1.879  -1.038  26.135  0.00  0.00    -0.371 OA
ATOM      9  C   UNL     1      -4.053  -0.813  25.205  0.00  0.00    +0.111 C 
ATOM     10  C   UNL     1      -3.132  -1.431  24.169  0.00  0.00    +0.164 C 
ATOM     13  C   UNL     1      -2.018  -1.973  25.053  0.00  0.00    +0.164 C 
ATOM     16  C   UNL     1      -3.050  -0.203  26.172  0.00  0.00    +0.181 C 
ENDROOT
BRANCH  10   3
ATOM      3  O   UNL     1      -3.761  -2.456  23.424  0.00  0.00    -0.388 OA
ATOM     25  H   UNL     1      -3.161  -2.727  22.708  0.00  0.00    +0.210 HD
ENDBRANCH  10   3
BRANCH   9   6
ATOM      6  N   UNL     1      -4.975   0.167  24.655  0.00  0.00    -0.306 NA
ATOM     24  H   UNL     1      -5.929  -0.048  24.943  0.00  0.00    +0.123 HD
BRANCH   6   8
ATOM      8  C   UNL     1      -4.619   1.512  25.071  0.00  0.00    +0.054 C 
ATOM     11  C   UNL     1      -5.816   2.312  25.568  0.00  0.00    +0.019 C 
ATOM     12  C   UNL     1      -4.108   2.369  23.920  0.00  0.00    +0.019 C 
ATOM     14  C   UNL     1      -5.330   3.758  25.514  0.00  0.00    +0.002 C 
ATOM     15  C   UNL     1      -4.228   3.795  24.451  0.00  0.00    +0.002 C 
ENDBRANCH   6   8
ENDBRANCH   9   6
BRANCH  13  17
ATOM     17  C   UNL     1      -0.693  -2.119  24.327  0.00  0.00    +0.140 C 
BRANCH  17   7
ATOM      7  N   UNL     1       0.174  -0.966  24.642  0.00  0.00    -0.187 NA
ATOM     26  H   UNL     1       0.224  -0.702  25.634  0.00  0.00    +0.148 HD
BRANCH   7   1
ATOM      1  S   UNL     1       0.451   0.237  23.471  0.00  0.00    +0.058 S 
ATOM      4  O   UNL     1      -0.441   0.029  22.347  0.00  0.00    -0.153 OA
ATOM      5  O   UNL     1       1.879   0.365  23.254  0.00  0.00    -0.153 OA
BRANCH   1  18
ATOM     18  C   UNL     1      -0.075   1.696  24.320  0.00  0.00    +0.105 A 
ATOM     19  C   UNL     1      -0.299   2.875  23.608  0.00  0.00    +0.028 A 
ATOM     20  C   UNL     1      -0.261   1.670  25.702  0.00  0.00    +0.028 A 
ATOM     21  C   UNL     1      -0.711   4.027  24.278  0.00  0.00    +0.002 A 
ATOM     22  C   UNL     1      -0.673   2.822  26.372  0.00  0.00    +0.002 A 
ATOM     23  C   UNL     1      -0.897   4.001  25.661  0.00  0.00    +0.000 A 
ENDBRANCH   1  18
ENDBRANCH   7   1
ENDBRANCH  17   7
ENDBRANCH  13  17
TORSDOF 7
ENDMDL
MODEL 7
REMARK VINA RESULT:      -4.6      2.044      4.487
REMARK  Name = 75367095
REMARK  7 active torsions:
REMARK  status: ('A' for Active; 'I' for Inactive)
REMARK    1  A    between atoms: S_1  and  N_7
REMARK    2  A    between atoms: S_1  and  C_18
REMARK    3  A    between atoms: O_3  and  C_10
REMARK    4  A    between atoms: N_6  and  C_8
REMARK    5  A    between atoms: N_6  and  C_9
REMARK    6  A    between atoms: N_7  and  C_17
REMARK    7  A    between atoms: C_13  and  C_17
REMARK                            x       y       z     vdW  Elec       q    Type
REMARK                         _______ _______ _______ _____ _____    ______ ____
ROOT
ATOM      2  O   UNL     1      -0.744   1.651  25.961  0.00  0.00    -0.371 OA
ATOM      9  C   UNL     1      -0.125  -0.322  24.792  0.00  0.00    +0.111 C 
ATOM     10  C   UNL     1       0.127   0.881  23.902  0.00  0.00    +0.164 C 
ATOM     13  C   UNL     1       0.198   1.999  24.933  0.00  0.00    +0.164 C 
ATOM     16  C   UNL     1      -1.084   0.261  25.820  0.00  0.00    +0.181 C 
ENDROOT
BRANCH  10   3
ATOM      3  O   UNL     1       1.327   0.769  23.162  0.00  0.00    -0.388 OA
ATOM     25  H   UNL     1       1.682  -0.128  23.287  0.00  0.00    +0.210 HD
ENDBRANCH  10   3
BRANCH   9   6
ATOM      6  N   UNL     1      -0.681  -1.465  24.086  0.00  0.00    -0.306 NA
ATOM     24  H   UNL     1      -0.113  -2.294  24.258  0.00  0.00    +0.123 HD
BRANCH   6   8
ATOM      8  C   UNL     1      -2.055  -1.709  24.485  0.00  0.00    +0.054 C 
ATOM     11  C   UNL     1      -2.398  -3.192  24.540  0.00  0.00    +0.019 C 
ATOM     12  C   UNL     1      -3.065  -1.177  23.476  0.00  0.00    +0.019 C 
ATOM     14  C   UNL     1      -3.924  -3.209  24.523  0.00  0.00    +0.002 C 
ATOM     15  C   UNL     1      -4.354  -1.909  23.837  0.00  0.00    +0.002 C 
ENDBRANCH   6   8
ENDBRANCH   9   6
BRANCH  13  17
ATOM     17  C   UNL     1      -0.146   3.363  24.363  0.00  0.00    +0.140 C 
BRANCH  17   7
ATOM      7  N   UNL     1      -1.554   3.376  23.920  0.00  0.00    -0.187 NA
ATOM     26  H   UNL     1      -1.714   3.134  22.934  0.00  0.00    +0.148 HD
BRANCH   7   1
ATOM      1  S   UNL     1      -2.684   4.379  24.701  0.00  0.00    +0.058 S 
ATOM      4  O   UNL     1      -3.167   5.377  23.766  0.00  0.00    -0.153 OA
ATOM      5  O   UNL     1      -2.148   4.783  25.986  0.00  0.00    -0.153 OA
BRANCH   1  18
ATOM     18  C   UNL     1      -4.007   3.252  25.024  0.00  0.00    +0.105 A 
ATOM     19  C   UNL     1      -5.067   3.637  25.845  0.00  0.00    +0.028 A 
ATOM     20  C   UNL     1      -3.989   1.975  24.462  0.00  0.00    +0.028 A 
ATOM     21  C   UNL     1      -6.108   2.746  26.104  0.00  0.00    +0.002 A 
ATOM     22  C   UNL     1      -5.030   1.084  24.721  0.00  0.00    +0.002 A 
ATOM     23  C   UNL     1      -6.090   1.469  25.541  0.00  0.00    +0.000 A 
ENDBRANCH   1  18
ENDBRANCH   7   1
ENDBRANCH  17   7
ENDBRANCH  13  17
TORSDOF 7
ENDMDL
MODEL 8
REMARK VINA RESULT:      -4.4      2.067      4.547
REMARK  Name = 75367095
REMARK  7 active torsions:
REMARK  status: ('A' for Active; 'I' for Inactive)
REMARK    1  A    between atoms: S_1  and  N_7
REMARK    2  A    between atoms: S_1  and  C_18
REMARK    3  A    between atoms: O_3  and  C_10
REMARK    4  A    between atoms: N_6  and  C_8
REMARK    5  A    between atoms: N_6  and  C_9
REMARK    6  A    between atoms: N_7  and  C_17
REMARK    7  A    between atoms: C_13  and  C_17
REMARK                            x       y       z     vdW  Elec       q    Type
REMARK                         _______ _______ _______ _____ _____    ______ ____
ROOT
ATOM      2  O   UNL     1      -1.095   2.058  26.148  0.00  0.00    -0.371 OA
ATOM      9  C   UNL     1      -0.235   0.190  24.959  0.00  0.00    +0.111 C 
ATOM     10  C   UNL     1      -0.010   1.446  24.137  0.00  0.00    +0.164 C 
ATOM     13  C   UNL     1      -0.107   2.520  25.212  0.00  0.00    +0.164 C 
ATOM     16  C   UNL     1      -1.312   0.654  25.927  0.00  0.00    +0.181 C 
ENDROOT
BRANCH  10   3
ATOM      3  O   UNL     1       1.248   1.457  23.492  0.00  0.00    -0.388 OA
ATOM     25  H   UNL     1       1.631   0.566  23.551  0.00  0.00    +0.210 HD
ENDBRANCH  10   3
BRANCH   9   6
ATOM      6  N   UNL     1      -0.643  -0.959  24.168  0.00  0.00    -0.306 NA
ATOM     24  H   UNL     1       0.030  -1.717  24.275  0.00  0.00    +0.123 HD
BRANCH   6   8
ATOM      8  C   UNL     1      -1.969  -1.411  24.547  0.00  0.00    +0.054 C 
ATOM     11  C   UNL     1      -2.082  -2.929  24.600  0.00  0.00    +0.019 C 
ATOM     12  C   UNL     1      -3.034  -1.041  23.522  0.00  0.00    +0.019 C 
ATOM     14  C   UNL     1      -3.587  -3.181  24.561  0.00  0.00    +0.002 C 
ATOM     15  C   UNL     1      -4.201  -1.962  23.866  0.00  0.00    +0.002 C 
ENDBRANCH   6   8
ENDBRANCH   9   6
BRANCH  13  17
ATOM     17  C   UNL     1      -0.512   3.879  24.668  0.00  0.00    +0.140 C 
BRANCH  17   7
ATOM      7  N   UNL     1      -1.944   4.114  24.938  0.00  0.00    -0.187 NA
ATOM     26  H   UNL     1      -2.222   4.087  25.927  0.00  0.00    +0.148 HD
BRANCH   7   1
ATOM      1  S   UNL     1      -3.108   3.727  23.760  0.00  0.00    +0.058 S 
ATOM      4  O   UNL     1      -2.556   2.752  22.840  0.00  0.00    -0.153 OA
ATOM      5  O   UNL     1      -3.697   4.953  23.256  0.00  0.00    -0.153 OA
BRANCH   1  18
ATOM     18  C   UNL     1      -4.348   2.920  24.729  0.00  0.00    +0.105 A 
ATOM     19  C   UNL     1      -4.568   1.550  24.579  0.00  0.00    +0.028 A 
ATOM     20  C   UNL     1      -5.108   3.652  25.640  0.00  0.00    +0.028 A 
ATOM     21  C   UNL     1      -5.549   0.914  25.340  0.00  0.00    +0.002 A 
ATOM     22  C   UNL     1      -6.089   3.017  26.401  0.00  0.00    +0.002 A 
ATOM     23  C   UNL     1      -6.310   1.648  26.251  0.00  0.00    +0.000 A 
ENDBRANCH   1  18
ENDBRANCH   7   1
ENDBRANCH  17   7
ENDBRANCH  13  17
TORSDOF 7
ENDMDL
MODEL 9
REMARK VINA RESULT:      -4.4      2.031      5.065
REMARK  Name = 75367095
REMARK  7 active torsions:
REMARK  status: ('A' for Active; 'I' for Inactive)
REMARK    1  A    between atoms: S_1  and  N_7
REMARK    2  A    between atoms: S_1  and  C_18
REMARK    3  A    between atoms: O_3  and  C_10
REMARK    4  A    between atoms: N_6  and  C_8
REMARK    5  A    between atoms: N_6  and  C_9
REMARK    6  A    between atoms: N_7  and  C_17
REMARK    7  A    between atoms: C_13  and  C_17
REMARK                            x       y       z     vdW  Elec       q    Type
REMARK                         _______ _______ _______ _____ _____    ______ ____
ROOT
ATOM      2  O   UNL     1      -1.061   3.125  26.639  0.00  0.00    -0.371 OA
ATOM      9  C   UNL     1       0.056   2.083  24.821  0.00  0.00    +0.111 C 
ATOM     10  C   UNL     1      -1.297   2.585  24.349  0.00  0.00    +0.164 C 
ATOM     13  C   UNL     1      -1.607   3.631  25.410  0.00  0.00    +0.164 C 
ATOM     16  C   UNL     1      -0.140   2.065  26.329  0.00  0.00    +0.181 C 
ENDROOT
BRANCH  10   3
ATOM      3  O   UNL     1      -1.247   3.147  23.052  0.00  0.00    -0.388 OA
ATOM     25  H   UNL     1      -2.079   3.624  22.893  0.00  0.00    +0.210 HD
ENDBRANCH  10   3
BRANCH   9   6
ATOM      6  N   UNL     1       0.415   0.781  24.283  0.00  0.00    -0.306 NA
ATOM     24  H   UNL     1      -0.421   0.283  23.979  0.00  0.00    +0.123 HD
BRANCH   6   8
ATOM      8  C   UNL     1       1.349   0.911  23.179  0.00  0.00    +0.054 C 
ATOM     11  C   UNL     1       1.373  -0.319  22.280  0.00  0.00    +0.019 C 
ATOM     12  C   UNL     1       2.798   1.007  23.640  0.00  0.00    +0.019 C 
ATOM     14  C   UNL     1       2.680  -0.172  21.505  0.00  0.00    +0.002 C 
ATOM     15  C   UNL     1       3.599   0.683  22.382  0.00  0.00    +0.002 C 
ENDBRANCH   6   8
ENDBRANCH   9   6
BRANCH  13  17
ATOM     17  C   UNL     1      -3.093   3.894  25.578  0.00  0.00    +0.140 C 
BRANCH  17   7
ATOM      7  N   UNL     1      -3.788   2.628  25.883  0.00  0.00    -0.187 NA
ATOM     26  H   UNL     1      -3.361   2.050  26.618  0.00  0.00    +0.148 HD
BRANCH   7   1
ATOM      1  S   UNL     1      -4.718   1.856  24.686  0.00  0.00    +0.058 S 
ATOM      4  O   UNL     1      -4.398   2.421  23.389  0.00  0.00    -0.153 OA
ATOM      5  O   UNL     1      -6.098   1.788  25.130  0.00  0.00    -0.153 OA
BRANCH   1  18
ATOM     18  C   UNL     1      -4.078   0.210  24.735  0.00  0.00    +0.105 A 
ATOM     19  C   UNL     1      -3.086  -0.126  25.658  0.00  0.00    +0.028 A 
ATOM     20  C   UNL     1      -4.560  -0.754  23.850  0.00  0.00    +0.028 A 
ATOM     21  C   UNL     1      -2.577  -1.424  25.694  0.00  0.00    +0.002 A 
ATOM     22  C   UNL     1      -4.051  -2.052  23.886  0.00  0.00    +0.002 A 
ATOM     23  C   UNL     1      -3.060  -2.388  24.808  0.00  0.00    +0.000 A 
ENDBRANCH   1  18
ENDBRANCH   7   1
ENDBRANCH  17   7
ENDBRANCH  13  17
TORSDOF 7
ENDMDL
MODEL 10
REMARK VINA RESULT:      -3.9      3.249      4.834
REMARK  Name = 75367095
REMARK  7 active torsions:
REMARK  status: ('A' for Active; 'I' for Inactive)
REMARK    1  A    between atoms: S_1  and  N_7
REMARK    2  A    between atoms: S_1  and  C_18
REMARK    3  A    between atoms: O_3  and  C_10
REMARK    4  A    between atoms: N_6  and  C_8
REMARK    5  A    between atoms: N_6  and  C_9
REMARK    6  A    between atoms: N_7  and  C_17
REMARK    7  A    between atoms: C_13  and  C_17
REMARK                            x       y       z     vdW  Elec       q    Type
REMARK                         _______ _______ _______ _____ _____    ______ ____
ROOT
ATOM      2  O   UNL     1      -1.405  -0.777  25.756  0.00  0.00    -0.371 OA
ATOM      9  C   UNL     1      -3.733  -0.622  25.316  0.00  0.00    +0.111 C 
ATOM     10  C   UNL     1      -3.071  -1.413  24.203  0.00  0.00    +0.164 C 
ATOM     13  C   UNL     1      -1.784  -1.855  24.885  0.00  0.00    +0.164 C 
ATOM     16  C   UNL     1      -2.538   0.090  25.931  0.00  0.00    +0.181 C 
ENDROOT
BRANCH  10   3
ATOM      3  O   UNL     1      -3.850  -2.516  23.781  0.00  0.00    -0.388 OA
ATOM     25  H   UNL     1      -3.407  -3.332  24.067  0.00  0.00    +0.210 HD
ENDBRANCH  10   3
BRANCH   9   6
ATOM      6  N   UNL     1      -4.759   0.296  24.849  0.00  0.00    -0.306 NA
ATOM     24  H   UNL     1      -5.650   0.087  25.298  0.00  0.00    +0.123 HD
BRANCH   6   8
ATOM      8  C   UNL     1      -4.383   1.675  25.105  0.00  0.00    +0.054 C 
ATOM     11  C   UNL     1      -5.541   2.514  25.629  0.00  0.00    +0.019 C 
ATOM     12  C   UNL     1      -3.986   2.423  23.838  0.00  0.00    +0.019 C 
ATOM     14  C   UNL     1      -5.079   3.950  25.398  0.00  0.00    +0.002 C 
ATOM     15  C   UNL     1      -4.075   3.891  24.243  0.00  0.00    +0.002 C 
ENDBRANCH   6   8
ENDBRANCH   9   6
BRANCH  13  17
ATOM     17  C   UNL     1      -0.658  -2.147  23.908  0.00  0.00    +0.140 C 
BRANCH  17   7
ATOM      7  N   UNL     1       0.501  -1.286  24.217  0.00  0.00    -0.187 NA
ATOM     26  H   UNL     1       0.704  -1.153  25.216  0.00  0.00    +0.148 HD
BRANCH   7   1
ATOM      1  S   UNL     1       0.974  -0.069  23.127  0.00  0.00    +0.058 S 
ATOM      4  O   UNL     1       0.533   1.220  23.623  0.00  0.00    -0.153 OA
ATOM      5  O   UNL     1       0.636  -0.486  21.779  0.00  0.00    -0.153 OA
BRANCH   1  18
ATOM     18  C   UNL     1       2.736  -0.130  23.259  0.00  0.00    +0.105 A 
ATOM     19  C   UNL     1       3.361  -1.290  23.717  0.00  0.00    +0.028 A 
ATOM     20  C   UNL     1       3.501   0.983  22.911  0.00  0.00    +0.028 A 
ATOM     21  C   UNL     1       4.751  -1.337  23.826  0.00  0.00    +0.002 A 
ATOM     22  C   UNL     1       4.890   0.937  23.020  0.00  0.00    +0.002 A 
ATOM     23  C   UNL     1       5.516  -0.223  23.477  0.00  0.00    +0.000 A 
ENDBRANCH   1  18
ENDBRANCH   7   1
ENDBRANCH  17   7
ENDBRANCH  13  17
TORSDOF 7
ENDMDL
