MODEL 1
REMARK VINA RESULT:      12.3      0.000      0.000
REMARK  Name = 51136895
REMARK  9 active torsions:
REMARK  status: ('A' for Active; 'I' for Inactive)
REMARK    1  A    between atoms: O_3  and  C_27
REMARK    2  A    between atoms: O_3  and  C_30
REMARK    3  A    between atoms: N_4  and  C_13
REMARK    4  A    between atoms: N_8  and  C_22
REMARK    5  A    between atoms: C_9  and  C_14
REMARK    6  A    between atoms: C_13  and  C_15
REMARK    7  A    between atoms: C_13  and  C_16
REMARK    8  A    between atoms: C_17  and  C_18
REMARK    9  A    between atoms: C_23  and  C_24
REMARK                            x       y       z     vdW  Elec       q    Type
REMARK                         _______ _______ _______ _____ _____    ______ ____
ROOT
ATOM      7  N   UNL     1       1.878   1.830  24.094  0.00  0.00    -0.239 NA
ATOM     18  C   UNL     1      -0.340   0.922  23.771  0.00  0.00    +0.041 A 
ATOM     19  C   UNL     1       0.204  -0.218  23.190  0.00  0.00    +0.016 A 
ATOM     20  C   UNL     1       0.532   1.909  24.203  0.00  0.00    +0.124 A 
ATOM     21  C   UNL     1       1.583  -0.336  23.061  0.00  0.00    +0.044 A 
ATOM     22  C   UNL     1       2.369   0.707  23.524  0.00  0.00    +0.125 A 
ENDROOT
BRANCH  18  17
ATOM      1  O   UNL     1      -3.852   1.151  23.498  0.00  0.00    -0.336 OA
ATOM      5  N   UNL     1      -2.324   1.393  25.118  0.00  0.00    -0.190 NA
ATOM      6  N   UNL     1      -2.608   0.911  22.900  0.00  0.00    -0.056 NA
ATOM     14  C   UNL     1      -3.595   1.427  24.804  0.00  0.00    +0.245 A 
ATOM     17  C   UNL     1      -1.758   1.073  23.919  0.00  0.00    +0.204 A 
BRANCH  14   9
ATOM      4  N   UNL     1      -5.365   3.084  25.591  0.00  0.00    -0.289 NA
ATOM      9  C   UNL     1      -4.800   1.727  25.684  0.00  0.00    +0.146 C 
ATOM     10  C   UNL     1      -6.034   0.863  25.388  0.00  0.00    +0.030 C 
ATOM     11  C   UNL     1      -6.296   3.100  24.470  0.00  0.00    +0.085 C 
ATOM     12  C   UNL     1      -6.960   1.732  24.537  0.00  0.00    +0.017 C 
BRANCH   4  13
ATOM     13  C   UNL     1      -4.418   4.184  25.579  0.00  0.00    +0.051 C 
ATOM     15  C   UNL     1      -3.808   4.341  24.189  0.00  0.00    +0.024 C 
ATOM     16  C   UNL     1      -3.338   3.934  26.627  0.00  0.00    +0.024 C 
ENDBRANCH   4  13
ENDBRANCH  14   9
ENDBRANCH  18  17
BRANCH  22   8
ATOM      2  O   UNL     1       4.146  -1.670  23.953  0.00  0.00    -0.270 OA
ATOM      8  N   UNL     1       3.756   0.578  23.389  0.00  0.00    -0.266 N 
ATOM     23  C   UNL     1       4.537  -0.562  23.602  0.00  0.00    +0.249 C 
ATOM     31  H   UNL     1       4.200   1.429  23.056  0.00  0.00    +0.157 HD
BRANCH  23  24
ATOM     24  C   UNL     1       5.992  -0.391  23.346  0.00  0.00    +0.037 A 
ATOM     25  C   UNL     1       6.667   0.713  23.867  0.00  0.00    +0.016 A 
ATOM     26  C   UNL     1       6.682  -1.335  22.586  0.00  0.00    +0.016 A 
ATOM     27  C   UNL     1       8.721  -0.070  22.867  0.00  0.00    +0.120 A 
ATOM     28  C   UNL     1       8.031   0.874  23.627  0.00  0.00    +0.046 A 
ATOM     29  C   UNL     1       8.047  -1.174  22.345  0.00  0.00    +0.046 A 
BRANCH  27   3
ATOM      3  O   UNL     1      10.052   0.086  22.632  0.00  0.00    -0.495 OA
ATOM     30  C   UNL     1      10.458   1.278  21.960  0.00  0.00    +0.277 C 
ENDBRANCH  27   3
ENDBRANCH  23  24
ENDBRANCH  22   8
TORSDOF 6
ENDMDL
MODEL 2
REMARK VINA RESULT:      12.4      0.719      1.806
REMARK  Name = 51136895
REMARK  9 active torsions:
REMARK  status: ('A' for Active; 'I' for Inactive)
REMARK    1  A    between atoms: O_3  and  C_27
REMARK    2  A    between atoms: O_3  and  C_30
REMARK    3  A    between atoms: N_4  and  C_13
REMARK    4  A    between atoms: N_8  and  C_22
REMARK    5  A    between atoms: C_9  and  C_14
REMARK    6  A    between atoms: C_13  and  C_15
REMARK    7  A    between atoms: C_13  and  C_16
REMARK    8  A    between atoms: C_17  and  C_18
REMARK    9  A    between atoms: C_23  and  C_24
REMARK                            x       y       z     vdW  Elec       q    Type
REMARK                         _______ _______ _______ _____ _____    ______ ____
ROOT
ATOM      7  N   UNL     1       1.988   1.876  23.907  0.00  0.00    -0.239 NA
ATOM     18  C   UNL     1      -0.233   0.996  23.536  0.00  0.00    +0.041 A 
ATOM     19  C   UNL     1       0.309  -0.164  22.993  0.00  0.00    +0.016 A 
ATOM     20  C   UNL     1       0.642   1.978  23.974  0.00  0.00    +0.124 A 
ATOM     21  C   UNL     1       1.690  -0.304  22.907  0.00  0.00    +0.044 A 
ATOM     22  C   UNL     1       2.478   0.735  23.374  0.00  0.00    +0.125 A 
ENDROOT
BRANCH  18  17
ATOM      1  O   UNL     1      -3.751   0.777  23.737  0.00  0.00    -0.336 OA
ATOM      5  N   UNL     1      -2.215   2.408  23.768  0.00  0.00    -0.190 NA
ATOM      6  N   UNL     1      -2.507   0.144  23.611  0.00  0.00    -0.056 NA
ATOM     14  C   UNL     1      -3.488   2.107  23.823  0.00  0.00    +0.245 A 
ATOM     17  C   UNL     1      -1.653   1.171  23.638  0.00  0.00    +0.204 A 
BRANCH  14   9
ATOM      4  N   UNL     1      -5.489   2.883  25.199  0.00  0.00    -0.289 NA
ATOM      9  C   UNL     1      -4.692   3.028  23.969  0.00  0.00    +0.146 C 
ATOM     10  C   UNL     1      -4.348   4.524  24.004  0.00  0.00    +0.030 C 
ATOM     11  C   UNL     1      -4.861   3.695  26.233  0.00  0.00    +0.085 C 
ATOM     12  C   UNL     1      -4.383   4.927  25.478  0.00  0.00    +0.017 C 
BRANCH   4  13
ATOM     13  C   UNL     1      -5.792   1.528  25.623  0.00  0.00    +0.051 C 
ATOM     15  C   UNL     1      -6.638   0.821  24.568  0.00  0.00    +0.024 C 
ATOM     16  C   UNL     1      -6.511   1.567  26.968  0.00  0.00    +0.024 C 
ENDBRANCH   4  13
ENDBRANCH  14   9
ENDBRANCH  18  17
BRANCH  22   8
ATOM      2  O   UNL     1       4.207  -1.649  23.937  0.00  0.00    -0.270 OA
ATOM      8  N   UNL     1       3.867   0.582  23.282  0.00  0.00    -0.266 N 
ATOM     23  C   UNL     1       4.625  -0.560  23.558  0.00  0.00    +0.249 C 
ATOM     31  H   UNL     1       4.332   1.414  22.932  0.00  0.00    +0.157 HD
BRANCH  23  24
ATOM     24  C   UNL     1       6.088  -0.418  23.338  0.00  0.00    +0.037 A 
ATOM     25  C   UNL     1       6.778   0.654  23.903  0.00  0.00    +0.016 A 
ATOM     26  C   UNL     1       6.771  -1.358  22.566  0.00  0.00    +0.016 A 
ATOM     27  C   UNL     1       8.834  -0.152  22.924  0.00  0.00    +0.120 A 
ATOM     28  C   UNL     1       8.151   0.787  23.696  0.00  0.00    +0.046 A 
ATOM     29  C   UNL     1       8.144  -1.225  22.359  0.00  0.00    +0.046 A 
BRANCH  27   3
ATOM      3  O   UNL     1      10.174  -0.023  22.722  0.00  0.00    -0.495 OA
ATOM     30  C   UNL     1      10.609   1.098  21.953  0.00  0.00    +0.277 C 
ENDBRANCH  27   3
ENDBRANCH  23  24
ENDBRANCH  22   8
TORSDOF 6
ENDMDL
MODEL 3
REMARK VINA RESULT:      13.5      1.501      2.354
REMARK  Name = 51136895
REMARK  9 active torsions:
REMARK  status: ('A' for Active; 'I' for Inactive)
REMARK    1  A    between atoms: O_3  and  C_27
REMARK    2  A    between atoms: O_3  and  C_30
REMARK    3  A    between atoms: N_4  and  C_13
REMARK    4  A    between atoms: N_8  and  C_22
REMARK    5  A    between atoms: C_9  and  C_14
REMARK    6  A    between atoms: C_13  and  C_15
REMARK    7  A    between atoms: C_13  and  C_16
REMARK    8  A    between atoms: C_17  and  C_18
REMARK    9  A    between atoms: C_23  and  C_24
REMARK                            x       y       z     vdW  Elec       q    Type
REMARK                         _______ _______ _______ _____ _____    ______ ____
ROOT
ATOM      7  N   UNL     1       2.223   2.196  23.852  0.00  0.00    -0.239 NA
ATOM     18  C   UNL     1      -0.040   1.471  23.411  0.00  0.00    +0.041 A 
ATOM     19  C   UNL     1       0.439   0.300  22.833  0.00  0.00    +0.016 A 
ATOM     20  C   UNL     1       0.885   2.379  23.901  0.00  0.00    +0.124 A 
ATOM     21  C   UNL     1       1.810   0.076  22.765  0.00  0.00    +0.044 A 
ATOM     22  C   UNL     1       2.652   1.047  23.283  0.00  0.00    +0.125 A 
ENDROOT
BRANCH  18  17
ATOM      1  O   UNL     1      -3.338   2.728  23.496  0.00  0.00    -0.336 OA
ATOM      5  N   UNL     1      -2.345   0.736  23.758  0.00  0.00    -0.190 NA
ATOM      6  N   UNL     1      -1.966   2.951  23.327  0.00  0.00    -0.056 NA
ATOM     14  C   UNL     1      -3.475   1.399  23.746  0.00  0.00    +0.245 A 
ATOM     17  C   UNL     1      -1.448   1.730  23.496  0.00  0.00    +0.204 A 
BRANCH  14   9
ATOM      4  N   UNL     1      -5.039  -0.327  24.783  0.00  0.00    -0.289 NA
ATOM      9  C   UNL     1      -4.894   0.893  23.970  0.00  0.00    +0.146 C 
ATOM     10  C   UNL     1      -5.806   1.871  24.722  0.00  0.00    +0.030 C 
ATOM     11  C   UNL     1      -5.062   0.075  26.183  0.00  0.00    +0.085 C 
ATOM     12  C   UNL     1      -5.846   1.380  26.169  0.00  0.00    +0.017 C 
BRANCH   4  13
ATOM     13  C   UNL     1      -4.118  -1.412  24.501  0.00  0.00    +0.051 C 
ATOM     15  C   UNL     1      -4.826  -2.517  23.722  0.00  0.00    +0.024 C 
ATOM     16  C   UNL     1      -3.546  -1.944  25.811  0.00  0.00    +0.024 C 
ENDBRANCH   4  13
ENDBRANCH  14   9
ENDBRANCH  18  17
BRANCH  22   8
ATOM      2  O   UNL     1       4.230  -1.430  23.892  0.00  0.00    -0.270 OA
ATOM      8  N   UNL     1       4.030   0.810  23.209  0.00  0.00    -0.266 N 
ATOM     23  C   UNL     1       4.715  -0.371  23.506  0.00  0.00    +0.249 C 
ATOM     31  H   UNL     1       4.547   1.609  22.855  0.00  0.00    +0.157 HD
BRANCH  23  24
ATOM     24  C   UNL     1       6.187  -0.319  23.300  0.00  0.00    +0.037 A 
ATOM     25  C   UNL     1       6.935   0.709  23.874  0.00  0.00    +0.016 A 
ATOM     26  C   UNL     1       6.819  -1.299  22.534  0.00  0.00    +0.016 A 
ATOM     27  C   UNL     1       8.948  -0.221  22.914  0.00  0.00    +0.120 A 
ATOM     28  C   UNL     1       8.316   0.758  23.680  0.00  0.00    +0.046 A 
ATOM     29  C   UNL     1       8.200  -1.249  22.341  0.00  0.00    +0.046 A 
BRANCH  27   3
ATOM      3  O   UNL     1      10.295  -0.174  22.725  0.00  0.00    -0.495 OA
ATOM     30  C   UNL     1      10.803   0.903  21.939  0.00  0.00    +0.277 C 
ENDBRANCH  27   3
ENDBRANCH  23  24
ENDBRANCH  22   8
TORSDOF 6
ENDMDL
