MODEL 1
REMARK VINA RESULT:      -5.4      0.000      0.000
REMARK  Name = 26744501
REMARK  6 active torsions:
REMARK  status: ('A' for Active; 'I' for Inactive)
REMARK    1  A    between atoms: S_1  and  C_17
REMARK    2  A    between atoms: S_1  and  C_18
REMARK    3  A    between atoms: O_3  and  C_12
REMARK    4  A    between atoms: N_7  and  C_15
REMARK    5  A    between atoms: C_10  and  C_14
REMARK    6  A    between atoms: C_16  and  C_17
REMARK                            x       y       z     vdW  Elec       q    Type
REMARK                         _______ _______ _______ _____ _____    ______ ____
ROOT
ATOM      4  O   UNL     1      -0.151   3.564  24.643  0.00  0.00    -0.336 OA
ATOM      8  N   UNL     1      -1.691   2.345  25.721  0.00  0.00    -0.193 NA
ATOM      9  N   UNL     1      -1.162   4.458  25.018  0.00  0.00    -0.060 NA
ATOM     14  C   UNL     1      -0.541   2.343  25.095  0.00  0.00    +0.245 A 
ATOM     16  C   UNL     1      -2.034   3.665  25.648  0.00  0.00    +0.193 A 
ENDROOT
BRANCH  14  10
ATOM      7  N   UNL     1      -0.318  -0.035  24.394  0.00  0.00    -0.292 NA
ATOM     10  C   UNL     1       0.395   1.188  24.814  0.00  0.00    +0.148 C 
ATOM     11  C   UNL     1       1.379   1.484  23.665  0.00  0.00    +0.061 C 
ATOM     12  C   UNL     1       1.175   0.349  22.670  0.00  0.00    +0.130 C 
ATOM     13  C   UNL     1       0.594  -0.767  23.517  0.00  0.00    +0.116 C 
ATOM     15  C   UNL     1      -0.773  -0.848  25.514  0.00  0.00    +0.105 C 
BRANCH  12   3
ATOM      3  O   UNL     1       2.404  -0.027  22.078  0.00  0.00    -0.390 OA
ATOM     24  H   UNL     1       2.402  -0.995  21.990  0.00  0.00    +0.210 HD
ENDBRANCH  12   3
ENDBRANCH  14  10
BRANCH  16  17
ATOM     17  C   UNL     1      -3.280   4.182  26.226  0.00  0.00    +0.251 C 
BRANCH  17   1
ATOM      1  S   UNL     1      -4.605   3.857  25.095  0.00  0.00    +0.004 S 
ATOM      5  O   UNL     1      -4.378   4.664  23.911  0.00  0.00    -0.169 OA
ATOM      6  O   UNL     1      -5.859   3.945  25.818  0.00  0.00    -0.169 OA
BRANCH   1  18
ATOM      2  F   UNL     1      -3.843  -1.802  23.626  0.00  0.00    -0.205 F 
ATOM     18  C   UNL     1      -4.377   2.161  24.655  0.00  0.00    +0.089 A 
ATOM     19  C   UNL     1      -4.899   1.154  25.467  0.00  0.00    +0.030 A 
ATOM     20  C   UNL     1      -3.676   1.830  23.495  0.00  0.00    +0.030 A 
ATOM     21  C   UNL     1      -4.718  -0.185  25.119  0.00  0.00    +0.040 A 
ATOM     22  C   UNL     1      -3.496   0.491  23.148  0.00  0.00    +0.040 A 
ATOM     23  C   UNL     1      -4.016  -0.516  23.960  0.00  0.00    +0.124 A 
ENDBRANCH   1  18
ENDBRANCH  17   1
ENDBRANCH  16  17
TORSDOF 5
ENDMDL
MODEL 2
REMARK VINA RESULT:      -5.3      1.484      1.977
REMARK  Name = 26744501
REMARK  6 active torsions:
REMARK  status: ('A' for Active; 'I' for Inactive)
REMARK    1  A    between atoms: S_1  and  C_17
REMARK    2  A    between atoms: S_1  and  C_18
REMARK    3  A    between atoms: O_3  and  C_12
REMARK    4  A    between atoms: N_7  and  C_15
REMARK    5  A    between atoms: C_10  and  C_14
REMARK    6  A    between atoms: C_16  and  C_17
REMARK                            x       y       z     vdW  Elec       q    Type
REMARK                         _______ _______ _______ _____ _____    ______ ____
ROOT
ATOM      4  O   UNL     1      -0.912   3.023  25.126  0.00  0.00    -0.336 OA
ATOM      8  N   UNL     1      -2.083   1.595  23.859  0.00  0.00    -0.193 NA
ATOM      9  N   UNL     1      -2.190   3.581  24.991  0.00  0.00    -0.060 NA
ATOM     14  C   UNL     1      -0.934   1.857  24.430  0.00  0.00    +0.245 A 
ATOM     16  C   UNL     1      -2.821   2.681  24.232  0.00  0.00    +0.193 A 
ENDROOT
BRANCH  14  10
ATOM      7  N   UNL     1       0.169  -0.296  23.843  0.00  0.00    -0.292 NA
ATOM     10  C   UNL     1       0.347   1.051  24.421  0.00  0.00    +0.148 C 
ATOM     11  C   UNL     1       1.455   1.701  23.570  0.00  0.00    +0.061 C 
ATOM     12  C   UNL     1       1.865   0.627  22.570  0.00  0.00    +0.130 C 
ATOM     13  C   UNL     1       1.452  -0.665  23.247  0.00  0.00    +0.116 C 
ATOM     15  C   UNL     1      -0.289  -1.281  24.814  0.00  0.00    +0.105 C 
BRANCH  12   3
ATOM      3  O   UNL     1       3.258   0.672  22.329  0.00  0.00    -0.390 OA
ATOM     24  H   UNL     1       3.707   0.532  23.180  0.00  0.00    +0.210 HD
ENDBRANCH  12   3
ENDBRANCH  14  10
BRANCH  16  17
ATOM     17  C   UNL     1      -4.221   2.851  23.826  0.00  0.00    +0.251 C 
BRANCH  17   1
ATOM      1  S   UNL     1      -5.254   1.991  24.981  0.00  0.00    +0.004 S 
ATOM      5  O   UNL     1      -6.590   1.939  24.420  0.00  0.00    -0.169 OA
ATOM      6  O   UNL     1      -5.030   2.547  26.302  0.00  0.00    -0.169 OA
BRANCH   1  18
ATOM      2  F   UNL     1      -3.070  -3.486  25.016  0.00  0.00    -0.205 F 
ATOM     18  C   UNL     1      -4.599   0.350  24.991  0.00  0.00    +0.089 A 
ATOM     19  C   UNL     1      -4.721  -0.457  23.859  0.00  0.00    +0.030 A 
ATOM     20  C   UNL     1      -3.961  -0.139  26.131  0.00  0.00    +0.030 A 
ATOM     21  C   UNL     1      -4.204  -1.753  23.868  0.00  0.00    +0.040 A 
ATOM     22  C   UNL     1      -3.444  -1.435  26.139  0.00  0.00    +0.040 A 
ATOM     23  C   UNL     1      -3.566  -2.242  25.008  0.00  0.00    +0.124 A 
ENDBRANCH   1  18
ENDBRANCH  17   1
ENDBRANCH  16  17
TORSDOF 5
ENDMDL
MODEL 3
REMARK VINA RESULT:      -5.3      1.481      1.818
REMARK  Name = 26744501
REMARK  6 active torsions:
REMARK  status: ('A' for Active; 'I' for Inactive)
REMARK    1  A    between atoms: S_1  and  C_17
REMARK    2  A    between atoms: S_1  and  C_18
REMARK    3  A    between atoms: O_3  and  C_12
REMARK    4  A    between atoms: N_7  and  C_15
REMARK    5  A    between atoms: C_10  and  C_14
REMARK    6  A    between atoms: C_16  and  C_17
REMARK                            x       y       z     vdW  Elec       q    Type
REMARK                         _______ _______ _______ _____ _____    ______ ____
ROOT
ATOM      4  O   UNL     1      -0.911   2.954  25.252  0.00  0.00    -0.336 OA
ATOM      8  N   UNL     1      -2.065   1.610  23.881  0.00  0.00    -0.193 NA
ATOM      9  N   UNL     1      -2.186   3.522  25.133  0.00  0.00    -0.060 NA
ATOM     14  C   UNL     1      -0.925   1.834  24.485  0.00  0.00    +0.245 A 
ATOM     16  C   UNL     1      -2.807   2.673  24.310  0.00  0.00    +0.193 A 
ENDROOT
BRANCH  14  10
ATOM      7  N   UNL     1       0.168  -0.309  23.842  0.00  0.00    -0.292 NA
ATOM     10  C   UNL     1       0.355   1.026  24.445  0.00  0.00    +0.148 C 
ATOM     11  C   UNL     1       1.454   1.692  23.595  0.00  0.00    +0.061 C 
ATOM     12  C   UNL     1       1.851   0.638  22.569  0.00  0.00    +0.130 C 
ATOM     13  C   UNL     1       1.443  -0.667  23.224  0.00  0.00    +0.116 C 
ATOM     15  C   UNL     1      -0.281  -1.313  24.797  0.00  0.00    +0.105 C 
BRANCH  12   3
ATOM      3  O   UNL     1       3.241   0.685  22.313  0.00  0.00    -0.390 OA
ATOM     24  H   UNL     1       3.644   1.257  22.989  0.00  0.00    +0.210 HD
ENDBRANCH  12   3
ENDBRANCH  14  10
BRANCH  16  17
ATOM     17  C   UNL     1      -4.201   2.871  23.894  0.00  0.00    +0.251 C 
BRANCH  17   1
ATOM      1  S   UNL     1      -5.256   1.991  25.012  0.00  0.00    +0.004 S 
ATOM      5  O   UNL     1      -6.580   1.946  24.422  0.00  0.00    -0.169 OA
ATOM      6  O   UNL     1      -5.061   2.525  26.347  0.00  0.00    -0.169 OA
BRANCH   1  18
ATOM      2  F   UNL     1      -3.063  -3.483  24.998  0.00  0.00    -0.205 F 
ATOM     18  C   UNL     1      -4.599   0.350  25.008  0.00  0.00    +0.089 A 
ATOM     19  C   UNL     1      -3.954  -0.145  26.142  0.00  0.00    +0.030 A 
ATOM     20  C   UNL     1      -4.726  -0.448  23.872  0.00  0.00    +0.030 A 
ATOM     21  C   UNL     1      -3.435  -1.440  26.138  0.00  0.00    +0.040 A 
ATOM     22  C   UNL     1      -4.207  -1.743  23.869  0.00  0.00    +0.040 A 
ATOM     23  C   UNL     1      -3.561  -2.239  25.001  0.00  0.00    +0.124 A 
ENDBRANCH   1  18
ENDBRANCH  17   1
ENDBRANCH  16  17
TORSDOF 5
ENDMDL
MODEL 4
REMARK VINA RESULT:      -4.8      2.495      3.762
REMARK  Name = 26744501
REMARK  6 active torsions:
REMARK  status: ('A' for Active; 'I' for Inactive)
REMARK    1  A    between atoms: S_1  and  C_17
REMARK    2  A    between atoms: S_1  and  C_18
REMARK    3  A    between atoms: O_3  and  C_12
REMARK    4  A    between atoms: N_7  and  C_15
REMARK    5  A    between atoms: C_10  and  C_14
REMARK    6  A    between atoms: C_16  and  C_17
REMARK                            x       y       z     vdW  Elec       q    Type
REMARK                         _______ _______ _______ _____ _____    ______ ____
ROOT
ATOM      4  O   UNL     1       0.480   0.449  23.896  0.00  0.00    -0.336 OA
ATOM      8  N   UNL     1      -1.231   1.160  25.155  0.00  0.00    -0.193 NA
ATOM      9  N   UNL     1       0.830   1.732  24.339  0.00  0.00    -0.060 NA
ATOM     14  C   UNL     1      -0.745   0.190  24.421  0.00  0.00    +0.245 A 
ATOM     16  C   UNL     1      -0.229   2.083  25.075  0.00  0.00    +0.193 A 
ENDROOT
BRANCH  14  10
ATOM      7  N   UNL     1      -1.409  -2.060  25.253  0.00  0.00    -0.292 NA
ATOM     10  C   UNL     1      -1.353  -1.156  24.087  0.00  0.00    +0.148 C 
ATOM     11  C   UNL     1      -2.811  -1.047  23.602  0.00  0.00    +0.061 C 
ATOM     12  C   UNL     1      -3.603  -1.960  24.529  0.00  0.00    +0.130 C 
ATOM     13  C   UNL     1      -2.562  -2.934  25.044  0.00  0.00    +0.116 C 
ATOM     15  C   UNL     1      -0.179  -2.813  25.456  0.00  0.00    +0.105 C 
BRANCH  12   3
ATOM      3  O   UNL     1      -4.635  -2.620  23.822  0.00  0.00    -0.390 OA
ATOM     24  H   UNL     1      -4.617  -3.557  24.083  0.00  0.00    +0.210 HD
ENDBRANCH  12   3
ENDBRANCH  14  10
BRANCH  16  17
ATOM     17  C   UNL     1      -0.307   3.382  25.755  0.00  0.00    +0.251 C 
BRANCH  17   1
ATOM      1  S   UNL     1      -1.333   4.462  24.795  0.00  0.00    +0.004 S 
ATOM      5  O   UNL     1      -0.842   4.435  23.431  0.00  0.00    -0.169 OA
ATOM      6  O   UNL     1      -1.470   5.719  25.505  0.00  0.00    -0.169 OA
BRANCH   1  18
ATOM      2  F   UNL     1      -6.612   1.837  24.891  0.00  0.00    -0.205 F 
ATOM     18  C   UNL     1      -2.915   3.675  24.823  0.00  0.00    +0.089 A 
ATOM     19  C   UNL     1      -3.348   2.938  23.720  0.00  0.00    +0.030 A 
ATOM     20  C   UNL     1      -3.730   3.790  25.950  0.00  0.00    +0.030 A 
ATOM     21  C   UNL     1      -4.597   2.318  23.743  0.00  0.00    +0.040 A 
ATOM     22  C   UNL     1      -4.979   3.168  25.972  0.00  0.00    +0.040 A 
ATOM     23  C   UNL     1      -5.413   2.433  24.869  0.00  0.00    +0.124 A 
ENDBRANCH   1  18
ENDBRANCH  17   1
ENDBRANCH  16  17
TORSDOF 5
ENDMDL
MODEL 5
REMARK VINA RESULT:      -4.3      3.230      5.599
REMARK  Name = 26744501
REMARK  6 active torsions:
REMARK  status: ('A' for Active; 'I' for Inactive)
REMARK    1  A    between atoms: S_1  and  C_17
REMARK    2  A    between atoms: S_1  and  C_18
REMARK    3  A    between atoms: O_3  and  C_12
REMARK    4  A    between atoms: N_7  and  C_15
REMARK    5  A    between atoms: C_10  and  C_14
REMARK    6  A    between atoms: C_16  and  C_17
REMARK                            x       y       z     vdW  Elec       q    Type
REMARK                         _______ _______ _______ _____ _____    ______ ____
ROOT
ATOM      4  O   UNL     1      -5.053   1.268  25.369  0.00  0.00    -0.336 OA
ATOM      8  N   UNL     1      -3.671   0.685  23.705  0.00  0.00    -0.193 NA
ATOM      9  N   UNL     1      -5.175  -0.121  25.231  0.00  0.00    -0.060 NA
ATOM     14  C   UNL     1      -4.150   1.661  24.434  0.00  0.00    +0.245 A 
ATOM     16  C   UNL     1      -4.330  -0.389  24.232  0.00  0.00    +0.193 A 
ENDROOT
BRANCH  14  10
ATOM      7  N   UNL     1      -4.215   3.850  25.618  0.00  0.00    -0.292 NA
ATOM     10  C   UNL     1      -3.837   3.142  24.378  0.00  0.00    +0.148 C 
ATOM     11  C   UNL     1      -2.333   3.427  24.205  0.00  0.00    +0.061 C 
ATOM     12  C   UNL     1      -1.968   4.339  25.368  0.00  0.00    +0.130 C 
ATOM     13  C   UNL     1      -3.291   4.975  25.750  0.00  0.00    +0.116 C 
ATOM     15  C   UNL     1      -5.607   4.280  25.632  0.00  0.00    +0.105 C 
BRANCH  12   3
ATOM      3  O   UNL     1      -1.016   5.306  24.969  0.00  0.00    -0.390 OA
ATOM     24  H   UNL     1      -1.017   5.333  23.997  0.00  0.00    +0.210 HD
ENDBRANCH  12   3
ENDBRANCH  14  10
BRANCH  16  17
ATOM     17  C   UNL     1      -4.123  -1.754  23.732  0.00  0.00    +0.251 C 
BRANCH  17   1
ATOM      1  S   UNL     1      -2.695  -2.437  24.529  0.00  0.00    +0.004 S 
ATOM      5  O   UNL     1      -2.116  -3.414  23.627  0.00  0.00    -0.169 OA
ATOM      6  O   UNL     1      -3.056  -2.808  25.884  0.00  0.00    -0.169 OA
BRANCH   1  18
ATOM      2  F   UNL     1       1.020   2.126  24.911  0.00  0.00    -0.205 F 
ATOM     18  C   UNL     1      -1.582  -1.070  24.644  0.00  0.00    +0.089 A 
ATOM     19  C   UNL     1      -1.539  -0.302  25.808  0.00  0.00    +0.030 A 
ATOM     20  C   UNL     1      -0.746  -0.760  23.571  0.00  0.00    +0.030 A 
ATOM     21  C   UNL     1      -0.660   0.778  25.898  0.00  0.00    +0.040 A 
ATOM     22  C   UNL     1       0.133   0.320  23.662  0.00  0.00    +0.040 A 
ATOM     23  C   UNL     1       0.175   1.089  24.824  0.00  0.00    +0.124 A 
ENDBRANCH   1  18
ENDBRANCH  17   1
ENDBRANCH  16  17
TORSDOF 5
ENDMDL
MODEL 6
REMARK VINA RESULT:      -4.1      3.623      7.126
REMARK  Name = 26744501
REMARK  6 active torsions:
REMARK  status: ('A' for Active; 'I' for Inactive)
REMARK    1  A    between atoms: S_1  and  C_17
REMARK    2  A    between atoms: S_1  and  C_18
REMARK    3  A    between atoms: O_3  and  C_12
REMARK    4  A    between atoms: N_7  and  C_15
REMARK    5  A    between atoms: C_10  and  C_14
REMARK    6  A    between atoms: C_16  and  C_17
REMARK                            x       y       z     vdW  Elec       q    Type
REMARK                         _______ _______ _______ _____ _____    ______ ____
ROOT
ATOM      4  O   UNL     1      -2.001   1.468  25.581  0.00  0.00    -0.336 OA
ATOM      8  N   UNL     1      -1.579   1.968  23.439  0.00  0.00    -0.193 NA
ATOM      9  N   UNL     1      -0.619   1.312  25.411  0.00  0.00    -0.060 NA
ATOM     14  C   UNL     1      -2.488   1.855  24.374  0.00  0.00    +0.245 A 
ATOM     16  C   UNL     1      -0.448   1.625  24.123  0.00  0.00    +0.193 A 
ENDROOT
BRANCH  14  10
ATOM      7  N   UNL     1      -4.750   1.197  25.179  0.00  0.00    -0.292 NA
ATOM     10  C   UNL     1      -3.981   2.094  24.293  0.00  0.00    +0.148 C 
ATOM     11  C   UNL     1      -4.381   3.517  24.730  0.00  0.00    +0.061 C 
ATOM     12  C   UNL     1      -5.411   3.315  25.834  0.00  0.00    +0.130 C 
ATOM     13  C   UNL     1      -5.958   1.928  25.561  0.00  0.00    +0.116 C 
ATOM     15  C   UNL     1      -5.057  -0.089  24.568  0.00  0.00    +0.105 C 
BRANCH  12   3
ATOM      3  O   UNL     1      -6.421   4.302  25.764  0.00  0.00    -0.390 OA
ATOM     24  H   UNL     1      -7.063   4.114  26.470  0.00  0.00    +0.210 HD
ENDBRANCH  12   3
ENDBRANCH  14  10
BRANCH  16  17
ATOM     17  C   UNL     1       0.874   1.601  23.486  0.00  0.00    +0.251 C 
BRANCH  17   1
ATOM      1  S   UNL     1       1.251  -0.068  23.028  0.00  0.00    +0.004 S 
ATOM      5  O   UNL     1       0.955  -0.212  21.615  0.00  0.00    -0.169 OA
ATOM      6  O   UNL     1       0.652  -0.960  24.001  0.00  0.00    -0.169 OA
BRANCH   1  18
ATOM      2  F   UNL     1       7.097  -0.427  23.715  0.00  0.00    -0.205 F 
ATOM     18  C   UNL     1       3.003  -0.176  23.233  0.00  0.00    +0.089 A 
ATOM     19  C   UNL     1       3.578  -1.355  23.710  0.00  0.00    +0.030 A 
ATOM     20  C   UNL     1       3.810   0.917  22.919  0.00  0.00    +0.030 A 
ATOM     21  C   UNL     1       4.961  -1.439  23.872  0.00  0.00    +0.040 A 
ATOM     22  C   UNL     1       5.193   0.832  23.082  0.00  0.00    +0.040 A 
ATOM     23  C   UNL     1       5.768  -0.346  23.559  0.00  0.00    +0.124 A 
ENDBRANCH   1  18
ENDBRANCH  17   1
ENDBRANCH  16  17
TORSDOF 5
ENDMDL
MODEL 7
REMARK VINA RESULT:      -3.6      2.261      5.465
REMARK  Name = 26744501
REMARK  6 active torsions:
REMARK  status: ('A' for Active; 'I' for Inactive)
REMARK    1  A    between atoms: S_1  and  C_17
REMARK    2  A    between atoms: S_1  and  C_18
REMARK    3  A    between atoms: O_3  and  C_12
REMARK    4  A    between atoms: N_7  and  C_15
REMARK    5  A    between atoms: C_10  and  C_14
REMARK    6  A    between atoms: C_16  and  C_17
REMARK                            x       y       z     vdW  Elec       q    Type
REMARK                         _______ _______ _______ _____ _____    ______ ____
ROOT
ATOM      4  O   UNL     1      -1.775   2.687  25.685  0.00  0.00    -0.336 OA
ATOM      8  N   UNL     1      -1.392   1.859  23.639  0.00  0.00    -0.193 NA
ATOM      9  N   UNL     1      -0.399   2.428  25.621  0.00  0.00    -0.060 NA
ATOM     14  C   UNL     1      -2.283   2.323  24.479  0.00  0.00    +0.245 A 
ATOM     16  C   UNL     1      -0.252   1.943  24.385  0.00  0.00    +0.193 A 
ENDROOT
BRANCH  14  10
ATOM      7  N   UNL     1      -4.570   1.517  25.041  0.00  0.00    -0.292 NA
ATOM     10  C   UNL     1      -3.773   2.509  24.291  0.00  0.00    +0.148 C 
ATOM     11  C   UNL     1      -4.272   3.877  24.795  0.00  0.00    +0.061 C 
ATOM     12  C   UNL     1      -5.378   3.551  25.791  0.00  0.00    +0.130 C 
ATOM     13  C   UNL     1      -5.837   2.168  25.372  0.00  0.00    +0.116 C 
ATOM     15  C   UNL     1      -4.767   0.271  24.314  0.00  0.00    +0.105 C 
BRANCH  12   3
ATOM      3  O   UNL     1      -6.423   4.499  25.708  0.00  0.00    -0.390 OA
ATOM     24  H   UNL     1      -7.260   4.027  25.863  0.00  0.00    +0.210 HD
ENDBRANCH  12   3
ENDBRANCH  14  10
BRANCH  16  17
ATOM     17  C   UNL     1       1.056   1.527  23.863  0.00  0.00    +0.251 C 
BRANCH  17   1
ATOM      1  S   UNL     1       0.925  -0.138  23.271  0.00  0.00    +0.004 S 
ATOM      5  O   UNL     1       2.138  -0.835  23.652  0.00  0.00    -0.169 OA
ATOM      6  O   UNL     1       0.499  -0.102  21.885  0.00  0.00    -0.169 OA
BRANCH   1  18
ATOM      2  F   UNL     1      -3.539  -2.392  26.396  0.00  0.00    -0.205 F 
ATOM     18  C   UNL     1      -0.413  -0.814  24.207  0.00  0.00    +0.089 A 
ATOM     19  C   UNL     1      -1.354  -1.636  23.586  0.00  0.00    +0.030 A 
ATOM     20  C   UNL     1      -0.527  -0.526  25.567  0.00  0.00    +0.030 A 
ATOM     21  C   UNL     1      -2.410  -2.169  24.326  0.00  0.00    +0.040 A 
ATOM     22  C   UNL     1      -1.583  -1.059  26.306  0.00  0.00    +0.040 A 
ATOM     23  C   UNL     1      -2.524  -1.880  25.686  0.00  0.00    +0.124 A 
ENDBRANCH   1  18
ENDBRANCH  17   1
ENDBRANCH  16  17
TORSDOF 5
ENDMDL
MODEL 8
REMARK VINA RESULT:      -3.4      2.517      3.414
REMARK  Name = 26744501
REMARK  6 active torsions:
REMARK  status: ('A' for Active; 'I' for Inactive)
REMARK    1  A    between atoms: S_1  and  C_17
REMARK    2  A    between atoms: S_1  and  C_18
REMARK    3  A    between atoms: O_3  and  C_12
REMARK    4  A    between atoms: N_7  and  C_15
REMARK    5  A    between atoms: C_10  and  C_14
REMARK    6  A    between atoms: C_16  and  C_17
REMARK                            x       y       z     vdW  Elec       q    Type
REMARK                         _______ _______ _______ _____ _____    ______ ____
ROOT
ATOM      4  O   UNL     1      -2.307   0.809  23.402  0.00  0.00    -0.336 OA
ATOM      8  N   UNL     1      -2.794   0.282  25.523  0.00  0.00    -0.193 NA
ATOM      9  N   UNL     1      -3.700   0.904  23.516  0.00  0.00    -0.060 NA
ATOM     14  C   UNL     1      -1.853   0.438  24.626  0.00  0.00    +0.245 A 
ATOM     16  C   UNL     1      -3.909   0.579  24.795  0.00  0.00    +0.193 A 
ENDROOT
BRANCH  14  10
ATOM      7  N   UNL     1       0.138  -0.973  24.134  0.00  0.00    -0.292 NA
ATOM     10  C   UNL     1      -0.355   0.266  24.768  0.00  0.00    +0.148 C 
ATOM     11  C   UNL     1       0.441   1.399  24.093  0.00  0.00    +0.061 C 
ATOM     12  C   UNL     1       1.387   0.695  23.128  0.00  0.00    +0.130 C 
ATOM     13  C   UNL     1       1.510  -0.701  23.706  0.00  0.00    +0.116 C 
ATOM     15  C   UNL     1       0.055  -2.137  25.005  0.00  0.00    +0.105 C 
BRANCH  12   3
ATOM      3  O   UNL     1       2.636   1.355  23.078  0.00  0.00    -0.390 OA
ATOM     24  H   UNL     1       3.274   0.744  22.671  0.00  0.00    +0.210 HD
ENDBRANCH  12   3
ENDBRANCH  14  10
BRANCH  16  17
ATOM     17  C   UNL     1      -5.256   0.545  25.378  0.00  0.00    +0.251 C 
BRANCH  17   1
ATOM      1  S   UNL     1      -5.827   2.210  25.580  0.00  0.00    +0.004 S 
ATOM      5  O   UNL     1      -6.298   2.349  26.946  0.00  0.00    -0.169 OA
ATOM      6  O   UNL     1      -6.694   2.538  24.465  0.00  0.00    -0.169 OA
BRANCH   1  18
ATOM      2  F   UNL     1      -0.940   5.456  24.989  0.00  0.00    -0.205 F 
ATOM     18  C   UNL     1      -4.363   3.182  25.404  0.00  0.00    +0.089 A 
ATOM     19  C   UNL     1      -3.522   3.383  26.499  0.00  0.00    +0.030 A 
ATOM     20  C   UNL     1      -4.047   3.748  24.168  0.00  0.00    +0.030 A 
ATOM     21  C   UNL     1      -2.366   4.152  26.359  0.00  0.00    +0.040 A 
ATOM     22  C   UNL     1      -2.891   4.517  24.029  0.00  0.00    +0.040 A 
ATOM     23  C   UNL     1      -2.051   4.719  25.124  0.00  0.00    +0.124 A 
ENDBRANCH   1  18
ENDBRANCH  17   1
ENDBRANCH  16  17
TORSDOF 5
ENDMDL
MODEL 9
REMARK VINA RESULT:      -3.3      3.198      4.173
REMARK  Name = 26744501
REMARK  6 active torsions:
REMARK  status: ('A' for Active; 'I' for Inactive)
REMARK    1  A    between atoms: S_1  and  C_17
REMARK    2  A    between atoms: S_1  and  C_18
REMARK    3  A    between atoms: O_3  and  C_12
REMARK    4  A    between atoms: N_7  and  C_15
REMARK    5  A    between atoms: C_10  and  C_14
REMARK    6  A    between atoms: C_16  and  C_17
REMARK                            x       y       z     vdW  Elec       q    Type
REMARK                         _______ _______ _______ _____ _____    ______ ____
ROOT
ATOM      4  O   UNL     1       1.359   1.651  23.856  0.00  0.00    -0.336 OA
ATOM      8  N   UNL     1       0.468  -0.403  23.919  0.00  0.00    -0.193 NA
ATOM      9  N   UNL     1       0.083   1.797  24.417  0.00  0.00    -0.060 NA
ATOM     14  C   UNL     1       1.504   0.327  23.592  0.00  0.00    +0.245 A 
ATOM     16  C   UNL     1      -0.378   0.543  24.421  0.00  0.00    +0.193 A 
ENDROOT
BRANCH  14  10
ATOM      7  N   UNL     1       3.892   0.896  23.179  0.00  0.00    -0.292 NA
ATOM     10  C   UNL     1       2.819  -0.098  22.974  0.00  0.00    +0.148 C 
ATOM     11  C   UNL     1       3.370  -1.403  23.581  0.00  0.00    +0.061 C 
ATOM     12  C   UNL     1       4.773  -1.053  24.060  0.00  0.00    +0.130 C 
ATOM     13  C   UNL     1       5.148   0.148  23.215  0.00  0.00    +0.116 C 
ATOM     15  C   UNL     1       3.906   1.943  22.167  0.00  0.00    +0.105 C 
BRANCH  12   3
ATOM      3  O   UNL     1       5.657  -2.137  23.856  0.00  0.00    -0.390 OA
ATOM     24  H   UNL     1       6.446  -1.790  23.405  0.00  0.00    +0.210 HD
ENDBRANCH  12   3
ENDBRANCH  14  10
BRANCH  16  17
ATOM     17  C   UNL     1      -1.712   0.207  24.934  0.00  0.00    +0.251 C 
BRANCH  17   1
ATOM      1  S   UNL     1      -2.903   0.515  23.658  0.00  0.00    +0.004 S 
ATOM      5  O   UNL     1      -3.721  -0.675  23.527  0.00  0.00    -0.169 OA
ATOM      6  O   UNL     1      -2.213   1.066  22.507  0.00  0.00    -0.169 OA
BRANCH   1  18
ATOM      2  F   UNL     1      -6.269   4.815  25.884  0.00  0.00    -0.205 F 
ATOM     18  C   UNL     1      -3.912   1.803  24.326  0.00  0.00    +0.089 A 
ATOM     19  C   UNL     1      -5.117   1.490  24.955  0.00  0.00    +0.030 A 
ATOM     20  C   UNL     1      -3.502   3.132  24.223  0.00  0.00    +0.030 A 
ATOM     21  C   UNL     1      -5.913   2.508  25.481  0.00  0.00    +0.040 A 
ATOM     22  C   UNL     1      -4.299   4.150  24.749  0.00  0.00    +0.040 A 
ATOM     23  C   UNL     1      -5.504   3.837  25.378  0.00  0.00    +0.124 A 
ENDBRANCH   1  18
ENDBRANCH  17   1
ENDBRANCH  16  17
TORSDOF 5
ENDMDL
MODEL 10
REMARK VINA RESULT:      -3.3      2.270      5.346
REMARK  Name = 26744501
REMARK  6 active torsions:
REMARK  status: ('A' for Active; 'I' for Inactive)
REMARK    1  A    between atoms: S_1  and  C_17
REMARK    2  A    between atoms: S_1  and  C_18
REMARK    3  A    between atoms: O_3  and  C_12
REMARK    4  A    between atoms: N_7  and  C_15
REMARK    5  A    between atoms: C_10  and  C_14
REMARK    6  A    between atoms: C_16  and  C_17
REMARK                            x       y       z     vdW  Elec       q    Type
REMARK                         _______ _______ _______ _____ _____    ______ ____
ROOT
ATOM      4  O   UNL     1      -1.047   2.978  26.042  0.00  0.00    -0.336 OA
ATOM      8  N   UNL     1      -1.004   2.382  23.883  0.00  0.00    -0.193 NA
ATOM      9  N   UNL     1       0.224   2.434  25.814  0.00  0.00    -0.060 NA
ATOM     14  C   UNL     1      -1.705   2.908  24.855  0.00  0.00    +0.245 A 
ATOM     16  C   UNL     1       0.172   2.107  24.519  0.00  0.00    +0.193 A 
ENDROOT
BRANCH  14  10
ATOM      7  N   UNL     1      -3.977   2.750  23.851  0.00  0.00    -0.292 NA
ATOM     10  C   UNL     1      -3.121   3.442  24.836  0.00  0.00    +0.148 C 
ATOM     11  C   UNL     1      -3.845   3.260  26.184  0.00  0.00    +0.061 C 
ATOM     12  C   UNL     1      -5.118   2.494  25.847  0.00  0.00    +0.130 C 
ATOM     13  C   UNL     1      -5.340   2.800  24.378  0.00  0.00    +0.116 C 
ATOM     15  C   UNL     1      -3.886   3.316  22.512  0.00  0.00    +0.105 C 
BRANCH  12   3
ATOM      3  O   UNL     1      -6.197   2.938  26.645  0.00  0.00    -0.390 OA
ATOM     24  H   UNL     1      -6.995   2.934  26.088  0.00  0.00    +0.210 HD
ENDBRANCH  12   3
ENDBRANCH  14  10
BRANCH  16  17
ATOM     17  C   UNL     1       1.311   1.491  23.827  0.00  0.00    +0.251 C 
BRANCH  17   1
ATOM      1  S   UNL     1       0.847  -0.143  23.320  0.00  0.00    +0.004 S 
ATOM      5  O   UNL     1       1.875  -1.054  23.788  0.00  0.00    -0.169 OA
ATOM      6  O   UNL     1       0.479  -0.104  21.918  0.00  0.00    -0.169 OA
BRANCH   1  18
ATOM      2  F   UNL     1      -4.079  -1.218  26.378  0.00  0.00    -0.205 F 
ATOM     18  C   UNL     1      -0.629  -0.465  24.236  0.00  0.00    +0.089 A 
ATOM     19  C   UNL     1      -1.873  -0.356  23.615  0.00  0.00    +0.030 A 
ATOM     20  C   UNL     1      -0.550  -0.829  25.580  0.00  0.00    +0.030 A 
ATOM     21  C   UNL     1      -3.039  -0.611  24.339  0.00  0.00    +0.040 A 
ATOM     22  C   UNL     1      -1.715  -1.084  26.304  0.00  0.00    +0.040 A 
ATOM     23  C   UNL     1      -2.959  -0.974  25.683  0.00  0.00    +0.124 A 
ENDBRANCH   1  18
ENDBRANCH  17   1
ENDBRANCH  16  17
TORSDOF 5
ENDMDL
