MODEL 1
REMARK VINA RESULT:      -1.0      0.000      0.000
REMARK  Name = 75536873
REMARK  5 active torsions:
REMARK  status: ('A' for Active; 'I' for Inactive)
REMARK    1  A    between atoms: O_5  and  C_9
REMARK    2  A    between atoms: O_5  and  C_15
REMARK    3  A    between atoms: C_14  and  C_16
REMARK    4  A    between atoms: C_21  and  C_27
REMARK    5  A    between atoms: C_26  and  C_28
REMARK                            x       y       z     vdW  Elec       q    Type
REMARK                         _______ _______ _______ _____ _____    ______ ____
ROOT
ATOM      4  O   UNL     1      -0.445  -3.116  25.220  0.00  0.00    -0.375 OA
ATOM      6  O   UNL     1      -4.731  -1.592  23.113  0.00  0.00    -0.270 OA
ATOM      7  N   UNL     1      -3.126  -1.737  24.815  0.00  0.00    -0.292 N 
ATOM      9  C   UNL     1      -0.996  -0.685  25.494  0.00  0.00    +0.216 C 
ATOM     10  C   UNL     1      -2.396  -1.113  25.931  0.00  0.00    +0.155 C 
ATOM     11  C   UNL     1      -2.730  -3.101  24.460  0.00  0.00    +0.136 C 
ATOM     12  C   UNL     1       0.037  -1.815  25.536  0.00  0.00    +0.206 C 
ATOM     13  C   UNL     1      -1.261  -3.196  24.057  0.00  0.00    +0.179 C 
ATOM     14  C   UNL     1      -4.128  -1.104  24.067  0.00  0.00    +0.247 C 
ENDROOT
BRANCH  14  16
ATOM     16  C   UNL     1      -4.509   0.265  24.437  0.00  0.00    +0.037 A 
ATOM     19  C   UNL     1      -3.902   1.352  23.808  0.00  0.00    +0.014 A 
ATOM     20  C   UNL     1      -5.478   0.478  25.418  0.00  0.00    +0.014 A 
ATOM     24  C   UNL     1      -4.264   2.652  24.160  0.00  0.00    +0.019 A 
ATOM     25  C   UNL     1      -5.840   1.779  25.768  0.00  0.00    +0.019 A 
ATOM     26  C   UNL     1      -5.234   2.866  25.139  0.00  0.00    +0.052 A 
BRANCH  26  28
ATOM      8  N   UNL     1      -5.906   5.280  25.789  0.00  0.00    -0.191 NA
ATOM     28  C   UNL     1      -5.605   4.198  25.498  0.00  0.00    +0.099 C 
ENDBRANCH  26  28
ENDBRANCH  14  16
BRANCH   9   5
ATOM      5  O   UNL     1      -0.554   0.376  26.337  0.00  0.00    -0.485 OA
BRANCH   5  15
ATOM     15  C   UNL     1      -0.741   1.648  25.869  0.00  0.00    +0.121 A 
ATOM     17  C   UNL     1      -1.554   2.536  26.574  0.00  0.00    +0.046 A 
ATOM     18  C   UNL     1      -0.121   2.055  24.688  0.00  0.00    +0.046 A 
ATOM     21  C   UNL     1      -1.125   4.241  24.916  0.00  0.00    +0.055 A 
ATOM     22  C   UNL     1      -1.745   3.833  26.097  0.00  0.00    +0.016 A 
ATOM     23  C   UNL     1      -0.313   3.351  24.212  0.00  0.00    +0.016 A 
BRANCH  21  27
ATOM      1  F   UNL     1      -1.373   6.572  25.389  0.00  0.00    -0.166 F 
ATOM      2  F   UNL     1      -2.495   5.785  23.708  0.00  0.00    -0.166 F 
ATOM      3  F   UNL     1      -0.339   6.026  23.556  0.00  0.00    -0.166 F 
ATOM     27  C   UNL     1      -1.330   5.626  24.405  0.00  0.00    +0.417 C 
ENDBRANCH  21  27
ENDBRANCH   5  15
ENDBRANCH   9   5
TORSDOF 5
ENDMDL
MODEL 2
REMARK VINA RESULT:      -0.2      3.749      6.159
REMARK  Name = 75536873
REMARK  5 active torsions:
REMARK  status: ('A' for Active; 'I' for Inactive)
REMARK    1  A    between atoms: O_5  and  C_9
REMARK    2  A    between atoms: O_5  and  C_15
REMARK    3  A    between atoms: C_14  and  C_16
REMARK    4  A    between atoms: C_21  and  C_27
REMARK    5  A    between atoms: C_26  and  C_28
REMARK                            x       y       z     vdW  Elec       q    Type
REMARK                         _______ _______ _______ _____ _____    ______ ____
ROOT
ATOM      4  O   UNL     1      -1.359   6.060  24.873  0.00  0.00    -0.375 OA
ATOM      6  O   UNL     1      -5.487   3.350  25.733  0.00  0.00    -0.270 OA
ATOM      7  N   UNL     1      -3.537   3.957  24.583  0.00  0.00    -0.292 N 
ATOM      9  C   UNL     1      -1.098   3.575  24.671  0.00  0.00    +0.216 C 
ATOM     10  C   UNL     1      -2.351   3.574  23.799  0.00  0.00    +0.155 C 
ATOM     11  C   UNL     1      -3.668   5.378  24.913  0.00  0.00    +0.136 C 
ATOM     12  C   UNL     1      -0.460   4.958  24.836  0.00  0.00    +0.206 C 
ATOM     13  C   UNL     1      -2.486   5.899  25.725  0.00  0.00    +0.179 C 
ATOM     14  C   UNL     1      -4.506   3.059  25.051  0.00  0.00    +0.247 C 
ENDROOT
BRANCH  14  16
ATOM     16  C   UNL     1      -4.355   1.639  24.713  0.00  0.00    +0.037 A 
ATOM     19  C   UNL     1      -4.735   0.659  25.629  0.00  0.00    +0.014 A 
ATOM     20  C   UNL     1      -3.832   1.270  23.473  0.00  0.00    +0.014 A 
ATOM     24  C   UNL     1      -4.592  -0.691  25.307  0.00  0.00    +0.019 A 
ATOM     25  C   UNL     1      -3.690  -0.080  23.151  0.00  0.00    +0.019 A 
ATOM     26  C   UNL     1      -4.070  -1.060  24.067  0.00  0.00    +0.052 A 
BRANCH  26  28
ATOM      8  N   UNL     1      -3.808  -3.566  23.468  0.00  0.00    -0.191 NA
ATOM     28  C   UNL     1      -3.925  -2.443  23.737  0.00  0.00    +0.099 C 
ENDBRANCH  26  28
ENDBRANCH  14  16
BRANCH   9   5
ATOM      5  O   UNL     1      -0.138   2.689  24.100  0.00  0.00    -0.485 OA
BRANCH   5  15
ATOM     15  C   UNL     1      -0.307   1.356  24.356  0.00  0.00    +0.121 A 
ATOM     17  C   UNL     1      -0.876   0.945  25.563  0.00  0.00    +0.046 A 
ATOM     18  C   UNL     1       0.088   0.408  23.412  0.00  0.00    +0.046 A 
ATOM     21  C   UNL     1      -0.653  -1.362  24.880  0.00  0.00    +0.055 A 
ATOM     22  C   UNL     1      -1.049  -0.414  25.824  0.00  0.00    +0.016 A 
ATOM     23  C   UNL     1      -0.085  -0.950  23.675  0.00  0.00    +0.016 A 
BRANCH  21  27
ATOM      1  F   UNL     1      -1.941  -3.092  25.914  0.00  0.00    -0.166 F 
ATOM      2  F   UNL     1       0.207  -3.377  25.839  0.00  0.00    -0.166 F 
ATOM      3  F   UNL     1      -0.975  -3.556  24.022  0.00  0.00    -0.166 F 
ATOM     27  C   UNL     1      -0.837  -2.815  25.160  0.00  0.00    +0.417 C 
ENDBRANCH  21  27
ENDBRANCH   5  15
ENDBRANCH   9   5
TORSDOF 5
ENDMDL
MODEL 3
REMARK VINA RESULT:       0.3      3.736      6.657
REMARK  Name = 75536873
REMARK  5 active torsions:
REMARK  status: ('A' for Active; 'I' for Inactive)
REMARK    1  A    between atoms: O_5  and  C_9
REMARK    2  A    between atoms: O_5  and  C_15
REMARK    3  A    between atoms: C_14  and  C_16
REMARK    4  A    between atoms: C_21  and  C_27
REMARK    5  A    between atoms: C_26  and  C_28
REMARK                            x       y       z     vdW  Elec       q    Type
REMARK                         _______ _______ _______ _____ _____    ______ ____
ROOT
ATOM      4  O   UNL     1      -6.532   3.105  26.038  0.00  0.00    -0.375 OA
ATOM      6  O   UNL     1      -2.053   5.067  24.938  0.00  0.00    -0.270 OA
ATOM      7  N   UNL     1      -3.529   3.393  25.654  0.00  0.00    -0.292 N 
ATOM      9  C   UNL     1      -4.990   1.638  24.712  0.00  0.00    +0.216 C 
ATOM     10  C   UNL     1      -3.898   1.970  25.727  0.00  0.00    +0.155 C 
ATOM     11  C   UNL     1      -4.477   4.343  26.240  0.00  0.00    +0.136 C 
ATOM     12  C   UNL     1      -6.406   1.963  25.198  0.00  0.00    +0.206 C 
ATOM     13  C   UNL     1      -5.854   4.270  25.587  0.00  0.00    +0.179 C 
ATOM     14  C   UNL     1      -2.368   3.884  25.039  0.00  0.00    +0.247 C 
ENDROOT
BRANCH  14  16
ATOM     16  C   UNL     1      -1.432   2.916  24.455  0.00  0.00    +0.037 A 
ATOM     19  C   UNL     1      -1.774   2.232  23.289  0.00  0.00    +0.014 A 
ATOM     20  C   UNL     1      -0.200   2.681  25.066  0.00  0.00    +0.014 A 
ATOM     24  C   UNL     1      -0.884   1.312  22.733  0.00  0.00    +0.019 A 
ATOM     25  C   UNL     1       0.691   1.763  24.509  0.00  0.00    +0.019 A 
ATOM     26  C   UNL     1       0.349   1.079  23.343  0.00  0.00    +0.052 A 
BRANCH  26  28
ATOM      8  N   UNL     1       2.002  -0.626  22.309  0.00  0.00    -0.191 NA
ATOM     28  C   UNL     1       1.261   0.138  22.773  0.00  0.00    +0.099 C 
ENDBRANCH  26  28
ENDBRANCH  14  16
BRANCH   9   5
ATOM      5  O   UNL     1      -4.918   0.250  24.394  0.00  0.00    -0.485 OA
BRANCH   5  15
ATOM     15  C   UNL     1      -3.733  -0.378  24.663  0.00  0.00    +0.121 A 
ATOM     17  C   UNL     1      -3.284  -1.405  23.832  0.00  0.00    +0.046 A 
ATOM     18  C   UNL     1      -2.975   0.006  25.769  0.00  0.00    +0.046 A 
ATOM     21  C   UNL     1      -1.318  -1.662  25.212  0.00  0.00    +0.055 A 
ATOM     22  C   UNL     1      -2.076  -2.046  24.106  0.00  0.00    +0.016 A 
ATOM     23  C   UNL     1      -1.768  -0.635  26.043  0.00  0.00    +0.016 A 
BRANCH  21  27
ATOM      1  F   UNL     1       0.435  -2.126  26.772  0.00  0.00    -0.166 F 
ATOM      2  F   UNL     1       0.994  -1.969  24.683  0.00  0.00    -0.166 F 
ATOM      3  F   UNL     1      -0.114  -3.705  25.382  0.00  0.00    -0.166 F 
ATOM     27  C   UNL     1      -0.028  -2.348  25.507  0.00  0.00    +0.417 C 
ENDBRANCH  21  27
ENDBRANCH   5  15
ENDBRANCH   9   5
TORSDOF 5
ENDMDL
MODEL 4
REMARK VINA RESULT:       1.5      1.832      4.005
REMARK  Name = 75536873
REMARK  5 active torsions:
REMARK  status: ('A' for Active; 'I' for Inactive)
REMARK    1  A    between atoms: O_5  and  C_9
REMARK    2  A    between atoms: O_5  and  C_15
REMARK    3  A    between atoms: C_14  and  C_16
REMARK    4  A    between atoms: C_21  and  C_27
REMARK    5  A    between atoms: C_26  and  C_28
REMARK                            x       y       z     vdW  Elec       q    Type
REMARK                         _______ _______ _______ _____ _____    ______ ____
ROOT
ATOM      4  O   UNL     1      -4.018  -3.635  23.841  0.00  0.00    -0.375 OA
ATOM      6  O   UNL     1       0.136  -1.685  25.857  0.00  0.00    -0.270 OA
ATOM      7  N   UNL     1      -1.624  -1.820  24.316  0.00  0.00    -0.292 N 
ATOM      9  C   UNL     1      -3.988  -1.140  24.088  0.00  0.00    +0.216 C 
ATOM     10  C   UNL     1      -2.604  -1.152  23.443  0.00  0.00    +0.155 C 
ATOM     11  C   UNL     1      -1.698  -3.281  24.379  0.00  0.00    +0.136 C 
ATOM     12  C   UNL     1      -4.781  -2.434  23.877  0.00  0.00    +0.206 C 
ATOM     13  C   UNL     1      -3.054  -3.775  24.877  0.00  0.00    +0.179 C 
ATOM     14  C   UNL     1      -0.671  -1.153  25.098  0.00  0.00    +0.247 C 
ENDROOT
BRANCH  14  16
ATOM     16  C   UNL     1      -0.615   0.312  25.022  0.00  0.00    +0.037 A 
ATOM     19  C   UNL     1      -0.171   0.934  23.856  0.00  0.00    +0.014 A 
ATOM     20  C   UNL     1      -1.007   1.082  26.117  0.00  0.00    +0.014 A 
ATOM     24  C   UNL     1      -0.118   2.326  23.784  0.00  0.00    +0.019 A 
ATOM     25  C   UNL     1      -0.956   2.474  26.045  0.00  0.00    +0.019 A 
ATOM     26  C   UNL     1      -0.511   3.096  24.879  0.00  0.00    +0.052 A 
BRANCH  26  28
ATOM      8  N   UNL     1      -0.415   5.680  24.744  0.00  0.00    -0.191 NA
ATOM     28  C   UNL     1      -0.458   4.522  24.804  0.00  0.00    +0.099 C 
ENDBRANCH  26  28
ENDBRANCH  14  16
BRANCH   9   5
ATOM      5  O   UNL     1      -4.736  -0.049  23.555  0.00  0.00    -0.485 OA
BRANCH   5  15
ATOM     15  C   UNL     1      -4.555   1.167  24.155  0.00  0.00    +0.121 A 
ATOM     17  C   UNL     1      -5.038   1.386  25.445  0.00  0.00    +0.046 A 
ATOM     18  C   UNL     1      -3.889   2.188  23.476  0.00  0.00    +0.046 A 
ATOM     21  C   UNL     1      -4.188   3.647  25.379  0.00  0.00    +0.055 A 
ATOM     22  C   UNL     1      -4.854   2.626  26.057  0.00  0.00    +0.016 A 
ATOM     23  C   UNL     1      -3.706   3.427  24.089  0.00  0.00    +0.016 A 
BRANCH  21  27
ATOM      1  F   UNL     1      -3.212   5.829  25.311  0.00  0.00    -0.166 F 
ATOM      2  F   UNL     1      -3.396   4.895  27.259  0.00  0.00    -0.166 F 
ATOM      3  F   UNL     1      -5.168   5.635  26.238  0.00  0.00    -0.166 F 
ATOM     27  C   UNL     1      -3.993   4.973  26.032  0.00  0.00    +0.417 C 
ENDBRANCH  21  27
ENDBRANCH   5  15
ENDBRANCH   9   5
TORSDOF 5
ENDMDL
MODEL 5
REMARK VINA RESULT:       1.8      3.860      7.004
REMARK  Name = 75536873
REMARK  5 active torsions:
REMARK  status: ('A' for Active; 'I' for Inactive)
REMARK    1  A    between atoms: O_5  and  C_9
REMARK    2  A    between atoms: O_5  and  C_15
REMARK    3  A    between atoms: C_14  and  C_16
REMARK    4  A    between atoms: C_21  and  C_27
REMARK    5  A    between atoms: C_26  and  C_28
REMARK                            x       y       z     vdW  Elec       q    Type
REMARK                         _______ _______ _______ _____ _____    ______ ____
ROOT
ATOM      4  O   UNL     1      -4.601   5.532  24.949  0.00  0.00    -0.375 OA
ATOM      6  O   UNL     1      -0.077   3.880  23.562  0.00  0.00    -0.270 OA
ATOM      7  N   UNL     1      -1.985   3.982  24.919  0.00  0.00    -0.292 N 
ATOM      9  C   UNL     1      -4.268   3.048  25.037  0.00  0.00    +0.216 C 
ATOM     10  C   UNL     1      -2.965   3.310  25.788  0.00  0.00    +0.155 C 
ATOM     11  C   UNL     1      -2.215   5.405  24.657  0.00  0.00    +0.136 C 
ATOM     12  C   UNL     1      -5.218   4.251  25.008  0.00  0.00    +0.206 C 
ATOM     13  C   UNL     1      -3.562   5.664  23.988  0.00  0.00    +0.179 C 
ATOM     14  C   UNL     1      -0.891   3.349  24.314  0.00  0.00    +0.247 C 
ENDROOT
BRANCH  14  16
ATOM     16  C   UNL     1      -0.679   1.922  24.587  0.00  0.00    +0.037 A 
ATOM     19  C   UNL     1      -0.304   1.062  23.555  0.00  0.00    +0.014 A 
ATOM     20  C   UNL     1      -0.851   1.426  25.880  0.00  0.00    +0.014 A 
ATOM     24  C   UNL     1      -0.103  -0.293  23.814  0.00  0.00    +0.019 A 
ATOM     25  C   UNL     1      -0.648   0.071  26.140  0.00  0.00    +0.019 A 
ATOM     26  C   UNL     1      -0.274  -0.789  25.107  0.00  0.00    +0.052 A 
BRANCH  26  28
ATOM      8  N   UNL     1       0.103  -3.305  25.589  0.00  0.00    -0.191 NA
ATOM     28  C   UNL     1      -0.066  -2.178  25.373  0.00  0.00    +0.099 C 
ENDBRANCH  26  28
ENDBRANCH  14  16
BRANCH   9   5
ATOM      5  O   UNL     1      -4.938   1.946  25.645  0.00  0.00    -0.485 OA
BRANCH   5  15
ATOM     15  C   UNL     1      -4.516   0.697  25.280  0.00  0.00    +0.121 A 
ATOM     17  C   UNL     1      -4.184  -0.239  26.259  0.00  0.00    +0.046 A 
ATOM     18  C   UNL     1      -4.417   0.361  23.930  0.00  0.00    +0.046 A 
ATOM     21  C   UNL     1      -3.655  -1.850  24.537  0.00  0.00    +0.055 A 
ATOM     22  C   UNL     1      -3.753  -1.513  25.887  0.00  0.00    +0.016 A 
ATOM     23  C   UNL     1      -3.987  -0.912  23.559  0.00  0.00    +0.016 A 
BRANCH  21  27
ATOM      1  F   UNL     1      -1.996  -3.213  23.483  0.00  0.00    -0.166 F 
ATOM      2  F   UNL     1      -4.058  -3.859  23.304  0.00  0.00    -0.166 F 
ATOM      3  F   UNL     1      -3.026  -4.042  25.209  0.00  0.00    -0.166 F 
ATOM     27  C   UNL     1      -3.193  -3.210  24.140  0.00  0.00    +0.417 C 
ENDBRANCH  21  27
ENDBRANCH   5  15
ENDBRANCH   9   5
TORSDOF 5
ENDMDL
MODEL 6
REMARK VINA RESULT:       2.6      2.493      3.603
REMARK  Name = 75536873
REMARK  5 active torsions:
REMARK  status: ('A' for Active; 'I' for Inactive)
REMARK    1  A    between atoms: O_5  and  C_9
REMARK    2  A    between atoms: O_5  and  C_15
REMARK    3  A    between atoms: C_14  and  C_16
REMARK    4  A    between atoms: C_21  and  C_27
REMARK    5  A    between atoms: C_26  and  C_28
REMARK                            x       y       z     vdW  Elec       q    Type
REMARK                         _______ _______ _______ _____ _____    ______ ____
ROOT
ATOM      4  O   UNL     1       2.476   0.709  23.198  0.00  0.00    -0.375 OA
ATOM      6  O   UNL     1      -1.526  -2.307  23.114  0.00  0.00    -0.270 OA
ATOM      7  N   UNL     1      -0.074  -0.718  24.040  0.00  0.00    -0.292 N 
ATOM      9  C   UNL     1       0.328   1.719  24.004  0.00  0.00    +0.216 C 
ATOM     10  C   UNL     1       0.139   0.477  24.873  0.00  0.00    +0.155 C 
ATOM     11  C   UNL     1       1.109  -1.265  23.371  0.00  0.00    +0.136 C 
ATOM     12  C   UNL     1       1.759   1.903  23.490  0.00  0.00    +0.206 C 
ATOM     13  C   UNL     1       1.766  -0.256  22.433  0.00  0.00    +0.179 C 
ATOM     14  C   UNL     1      -1.317  -1.328  23.827  0.00  0.00    +0.247 C 
ENDROOT
BRANCH  14  16
ATOM     16  C   UNL     1      -2.491  -0.763  24.505  0.00  0.00    +0.037 A 
ATOM     19  C   UNL     1      -3.492  -0.138  23.762  0.00  0.00    +0.014 A 
ATOM     20  C   UNL     1      -2.605  -0.853  25.892  0.00  0.00    +0.014 A 
ATOM     24  C   UNL     1      -4.607   0.398  24.406  0.00  0.00    +0.019 A 
ATOM     25  C   UNL     1      -3.721  -0.317  26.536  0.00  0.00    +0.019 A 
ATOM     26  C   UNL     1      -4.722   0.308  25.793  0.00  0.00    +0.052 A 
BRANCH  26  28
ATOM      8  N   UNL     1      -6.794   1.301  26.987  0.00  0.00    -0.191 NA
ATOM     28  C   UNL     1      -5.865   0.856  26.453  0.00  0.00    +0.099 C 
ENDBRANCH  26  28
ENDBRANCH  14  16
BRANCH   9   5
ATOM      5  O   UNL     1      -0.043   2.870  24.759  0.00  0.00    -0.485 OA
BRANCH   5  15
ATOM     15  C   UNL     1      -1.382   3.133  24.856  0.00  0.00    +0.121 A 
ATOM     17  C   UNL     1      -1.938   3.469  26.090  0.00  0.00    +0.046 A 
ATOM     18  C   UNL     1      -2.190   3.066  23.721  0.00  0.00    +0.046 A 
ATOM     21  C   UNL     1      -4.112   3.669  25.055  0.00  0.00    +0.055 A 
ATOM     22  C   UNL     1      -3.304   3.737  26.190  0.00  0.00    +0.016 A 
ATOM     23  C   UNL     1      -3.555   3.334  23.821  0.00  0.00    +0.016 A 
BRANCH  21  27
ATOM      1  F   UNL     1      -5.923   5.191  24.700  0.00  0.00    -0.166 F 
ATOM      2  F   UNL     1      -6.047   3.904  26.441  0.00  0.00    -0.166 F 
ATOM      3  F   UNL     1      -6.333   3.070  24.452  0.00  0.00    -0.166 F 
ATOM     27  C   UNL     1      -5.571   3.955  25.161  0.00  0.00    +0.417 C 
ENDBRANCH  21  27
ENDBRANCH   5  15
ENDBRANCH   9   5
TORSDOF 5
ENDMDL
