MODEL 1
REMARK VINA RESULT:      -4.6      0.000      0.000
REMARK  Name = 45784128
REMARK  10 active torsions:
REMARK  status: ('A' for Active; 'I' for Inactive)
REMARK    1  A    between atoms: O_1  and  C_15
REMARK    2  A    between atoms: N_5  and  C_24
REMARK    3  A    between atoms: C_7  and  C_11
REMARK    4  A    between atoms: C_9  and  C_15
REMARK    5  A    between atoms: C_10  and  C_14
REMARK    6  A    between atoms: C_11  and  C_16
REMARK    7  A    between atoms: C_11  and  C_17
REMARK    8  A    between atoms: C_12  and  C_18
REMARK    9  A    between atoms: C_14  and  C_19
REMARK   10  A    between atoms: C_20  and  C_21
REMARK                            x       y       z     vdW  Elec       q    Type
REMARK                         _______ _______ _______ _____ _____    ______ ____
ROOT
ATOM      7  C   UNL     1      -3.457   0.789  24.840  0.00  0.00    +0.001 C 
ATOM      8  C   UNL     1      -2.011   0.882  25.351  0.00  0.00    +0.012 C 
ATOM      9  C   UNL     1      -4.311   1.945  25.419  0.00  0.00    +0.040 C 
ATOM     10  C   UNL     1      -1.345   2.218  24.973  0.00  0.00    +0.024 C 
ATOM     12  C   UNL     1      -2.244   3.401  25.268  0.00  0.00    -0.073 C 
ATOM     13  C   UNL     1      -3.566   3.258  25.478  0.00  0.00    -0.022 C 
ATOM     18  C   UNL     1      -1.584   4.747  25.363  0.00  0.00    +0.039 C 
ENDROOT
BRANCH   7  11
ATOM     11  C   UNL     1      -4.044  -0.582  25.192  0.00  0.00    -0.013 C 
ATOM     16  C   UNL     1      -4.256  -1.410  23.929  0.00  0.00    +0.007 C 
ATOM     17  C   UNL     1      -3.135  -1.314  26.173  0.00  0.00    +0.007 C 
ENDBRANCH   7  11
BRANCH  10  14
ATOM     14  C   UNL     1      -0.903   2.218  23.504  0.00  0.00    +0.105 C 
BRANCH  14  19
ATOM      2  O   UNL     1       1.346   1.274  23.577  0.00  0.00    -0.419 OA
ATOM      3  N   UNL     1      -0.184  -0.076  22.662  0.00  0.00    -0.112 NA
ATOM      4  N   UNL     1       1.032  -0.732  22.639  0.00  0.00    -0.106 NA
ATOM     19  C   UNL     1       0.046   1.090  23.218  0.00  0.00    +0.218 A 
ATOM     20  C   UNL     1       1.896   0.093  23.182  0.00  0.00    +0.266 A 
BRANCH  20  21
ATOM      5  N   UNL     1       4.300   0.611  22.990  0.00  0.00    -0.329 N 
ATOM      6  N   UNL     1       5.242  -1.217  23.828  0.00  0.00    -0.243 NA
ATOM     21  C   UNL     1       3.269  -0.213  23.343  0.00  0.00    +0.125 A 
ATOM     22  C   UNL     1       3.875  -1.334  23.858  0.00  0.00    +0.143 A 
ATOM     23  C   UNL     1       5.466  -0.035  23.300  0.00  0.00    +0.199 A 
ATOM     24  C   UNL     1       4.206   1.924  22.397  0.00  0.00    +0.150 C 
ENDBRANCH  20  21
ENDBRANCH  14  19
ENDBRANCH  10  14
BRANCH   9  15
ATOM     15  C   UNL     1      -5.606   2.130  24.619  0.00  0.00    +0.163 C 
BRANCH  15   1
ATOM      1  O   UNL     1      -6.697   2.007  25.509  0.00  0.00    -0.394 OA
ATOM     25  H   UNL     1      -6.330   1.881  26.401  0.00  0.00    +0.209 HD
ENDBRANCH  15   1
ENDBRANCH   9  15
TORSDOF 6
ENDMDL
MODEL 2
REMARK VINA RESULT:      -4.6      3.484      4.977
REMARK  Name = 45784128
REMARK  10 active torsions:
REMARK  status: ('A' for Active; 'I' for Inactive)
REMARK    1  A    between atoms: O_1  and  C_15
REMARK    2  A    between atoms: N_5  and  C_24
REMARK    3  A    between atoms: C_7  and  C_11
REMARK    4  A    between atoms: C_9  and  C_15
REMARK    5  A    between atoms: C_10  and  C_14
REMARK    6  A    between atoms: C_11  and  C_16
REMARK    7  A    between atoms: C_11  and  C_17
REMARK    8  A    between atoms: C_12  and  C_18
REMARK    9  A    between atoms: C_14  and  C_19
REMARK   10  A    between atoms: C_20  and  C_21
REMARK                            x       y       z     vdW  Elec       q    Type
REMARK                         _______ _______ _______ _____ _____    ______ ____
ROOT
ATOM      7  C   UNL     1      -3.826   3.095  25.455  0.00  0.00    +0.001 C 
ATOM      8  C   UNL     1      -3.095   3.934  26.514  0.00  0.00    +0.012 C 
ATOM      9  C   UNL     1      -3.738   3.779  24.068  0.00  0.00    +0.040 C 
ATOM     10  C   UNL     1      -1.609   4.145  26.167  0.00  0.00    +0.024 C 
ATOM     12  C   UNL     1      -1.422   4.565  24.723  0.00  0.00    -0.073 C 
ATOM     13  C   UNL     1      -2.390   4.406  23.802  0.00  0.00    -0.022 C 
ATOM     18  C   UNL     1      -0.114   5.216  24.371  0.00  0.00    +0.039 C 
ENDROOT
BRANCH   7  11
ATOM     11  C   UNL     1      -5.278   2.867  25.886  0.00  0.00    -0.013 C 
ATOM     16  C   UNL     1      -6.109   4.122  25.640  0.00  0.00    +0.007 C 
ATOM     17  C   UNL     1      -5.871   1.672  25.147  0.00  0.00    +0.007 C 
ENDBRANCH   7  11
BRANCH  10  14
ATOM     14  C   UNL     1      -0.784   2.893  26.485  0.00  0.00    +0.105 C 
BRANCH  14  19
ATOM      2  O   UNL     1      -1.976   0.918  25.688  0.00  0.00    -0.419 OA
ATOM      3  N   UNL     1      -0.352   1.621  24.319  0.00  0.00    -0.112 NA
ATOM      4  N   UNL     1      -0.938   0.506  23.750  0.00  0.00    -0.106 NA
ATOM     19  C   UNL     1      -0.989   1.825  25.449  0.00  0.00    +0.218 A 
ATOM     20  C   UNL     1      -1.880   0.130  24.582  0.00  0.00    +0.266 A 
BRANCH  20  21
ATOM      5  N   UNL     1      -2.357  -2.291  24.566  0.00  0.00    -0.329 N 
ATOM      6  N   UNL     1      -4.448  -2.352  23.823  0.00  0.00    -0.243 NA
ATOM     21  C   UNL     1      -2.717  -0.990  24.355  0.00  0.00    +0.125 A 
ATOM     22  C   UNL     1      -4.011  -1.053  23.897  0.00  0.00    +0.143 A 
ATOM     23  C   UNL     1      -3.428  -3.072  24.233  0.00  0.00    +0.199 A 
ATOM     24  C   UNL     1      -1.086  -2.778  25.050  0.00  0.00    +0.150 C 
ENDBRANCH  20  21
ENDBRANCH  14  19
ENDBRANCH  10  14
BRANCH   9  15
ATOM     15  C   UNL     1      -4.072   2.793  22.943  0.00  0.00    +0.163 C 
BRANCH  15   1
ATOM      1  O   UNL     1      -2.860   2.289  22.420  0.00  0.00    -0.394 OA
ATOM     25  H   UNL     1      -2.138   2.807  22.815  0.00  0.00    +0.209 HD
ENDBRANCH  15   1
ENDBRANCH   9  15
TORSDOF 6
ENDMDL
MODEL 3
REMARK VINA RESULT:      -3.6     15.015     17.542
REMARK  Name = 45784128
REMARK  10 active torsions:
REMARK  status: ('A' for Active; 'I' for Inactive)
REMARK    1  A    between atoms: O_1  and  C_15
REMARK    2  A    between atoms: N_5  and  C_24
REMARK    3  A    between atoms: C_7  and  C_11
REMARK    4  A    between atoms: C_9  and  C_15
REMARK    5  A    between atoms: C_10  and  C_14
REMARK    6  A    between atoms: C_11  and  C_16
REMARK    7  A    between atoms: C_11  and  C_17
REMARK    8  A    between atoms: C_12  and  C_18
REMARK    9  A    between atoms: C_14  and  C_19
REMARK   10  A    between atoms: C_20  and  C_21
REMARK                            x       y       z     vdW  Elec       q    Type
REMARK                         _______ _______ _______ _____ _____    ______ ____
ROOT
ATOM      7  C   UNL     1      -2.976 -10.011  12.944  0.00  0.00    +0.001 C 
ATOM      8  C   UNL     1      -4.238 -10.781  12.523  0.00  0.00    +0.012 C 
ATOM      9  C   UNL     1      -1.971  -9.937  11.768  0.00  0.00    +0.040 C 
ATOM     10  C   UNL     1      -4.943 -10.130  11.318  0.00  0.00    +0.024 C 
ATOM     12  C   UNL     1      -3.965  -9.777  10.215  0.00  0.00    -0.073 C 
ATOM     13  C   UNL     1      -2.639  -9.709  10.432  0.00  0.00    -0.022 C 
ATOM     18  C   UNL     1      -4.541  -9.551   8.846  0.00  0.00    +0.039 C 
ENDROOT
BRANCH   7  11
ATOM     11  C   UNL     1      -2.357 -10.669  14.181  0.00  0.00    -0.013 C 
ATOM     16  C   UNL     1      -1.137  -9.881  14.648  0.00  0.00    +0.007 C 
ATOM     17  C   UNL     1      -3.389 -10.781  15.297  0.00  0.00    +0.007 C 
ENDBRANCH   7  11
BRANCH  10  14
ATOM     14  C   UNL     1      -5.749  -8.899  11.749  0.00  0.00    +0.105 C 
BRANCH  14  19
ATOM      2  O   UNL     1      -6.936  -9.126  13.869  0.00  0.00    -0.419 OA
ATOM      3  N   UNL     1      -8.116  -9.780  12.085  0.00  0.00    -0.112 NA
ATOM      4  N   UNL     1      -8.902  -9.962  13.208  0.00  0.00    -0.106 NA
ATOM     19  C   UNL     1      -6.977  -9.291  12.519  0.00  0.00    +0.218 A 
ATOM     20  C   UNL     1      -8.173  -9.567  14.225  0.00  0.00    +0.266 A 
BRANCH  20  21
ATOM      5  N   UNL     1      -9.655  -8.842  16.059  0.00  0.00    -0.329 N 
ATOM      6  N   UNL     1      -8.917 -10.055  17.766  0.00  0.00    -0.243 NA
ATOM     21  C   UNL     1      -8.628  -9.597  15.566  0.00  0.00    +0.125 A 
ATOM     22  C   UNL     1      -8.189 -10.337  16.638  0.00  0.00    +0.143 A 
ATOM     23  C   UNL     1      -9.790  -9.151  17.385  0.00  0.00    +0.199 A 
ATOM     24  C   UNL     1     -10.463  -7.887  15.338  0.00  0.00    +0.150 C 
ENDBRANCH  20  21
ENDBRANCH  14  19
ENDBRANCH  10  14
BRANCH   9  15
ATOM     15  C   UNL     1      -0.922  -8.844  12.006  0.00  0.00    +0.163 C 
BRANCH  15   1
ATOM      1  O   UNL     1       0.011  -8.887  10.945  0.00  0.00    -0.394 OA
ATOM     25  H   UNL     1      -0.027  -9.781  10.564  0.00  0.00    +0.209 HD
ENDBRANCH  15   1
ENDBRANCH   9  15
TORSDOF 6
ENDMDL
MODEL 4
REMARK VINA RESULT:      -3.6      1.652      3.476
REMARK  Name = 45784128
REMARK  10 active torsions:
REMARK  status: ('A' for Active; 'I' for Inactive)
REMARK    1  A    between atoms: O_1  and  C_15
REMARK    2  A    between atoms: N_5  and  C_24
REMARK    3  A    between atoms: C_7  and  C_11
REMARK    4  A    between atoms: C_9  and  C_15
REMARK    5  A    between atoms: C_10  and  C_14
REMARK    6  A    between atoms: C_11  and  C_16
REMARK    7  A    between atoms: C_11  and  C_17
REMARK    8  A    between atoms: C_12  and  C_18
REMARK    9  A    between atoms: C_14  and  C_19
REMARK   10  A    between atoms: C_20  and  C_21
REMARK                            x       y       z     vdW  Elec       q    Type
REMARK                         _______ _______ _______ _____ _____    ______ ____
ROOT
ATOM      7  C   UNL     1      -3.902   2.174  24.723  0.00  0.00    +0.001 C 
ATOM      8  C   UNL     1      -3.096   1.434  23.644  0.00  0.00    +0.012 C 
ATOM      9  C   UNL     1      -5.336   1.597  24.818  0.00  0.00    +0.040 C 
ATOM     10  C   UNL     1      -2.997  -0.077  23.924  0.00  0.00    +0.024 C 
ATOM     12  C   UNL     1      -4.341  -0.672  24.293  0.00  0.00    -0.073 C 
ATOM     13  C   UNL     1      -5.379   0.093  24.677  0.00  0.00    -0.022 C 
ATOM     18  C   UNL     1      -4.480  -2.163  24.164  0.00  0.00    +0.039 C 
ENDROOT
BRANCH   7  11
ATOM     11  C   UNL     1      -3.912   3.676  24.423  0.00  0.00    -0.013 C 
ATOM     16  C   UNL     1      -2.717   4.358  25.081  0.00  0.00    +0.007 C 
ATOM     17  C   UNL     1      -3.912   3.919  22.917  0.00  0.00    +0.007 C 
ENDBRANCH   7  11
BRANCH  10  14
ATOM     14  C   UNL     1      -1.953  -0.370  25.008  0.00  0.00    +0.105 C 
BRANCH  14  19
ATOM      2  O   UNL     1       0.200  -0.144  23.883  0.00  0.00    -0.419 OA
ATOM      3  N   UNL     1      -0.280   1.531  25.285  0.00  0.00    -0.112 NA
ATOM      4  N   UNL     1       0.957   1.786  24.722  0.00  0.00    -0.106 NA
ATOM     19  C   UNL     1      -0.684   0.394  24.767  0.00  0.00    +0.218 A 
ATOM     20  C   UNL     1       1.197   0.783  23.911  0.00  0.00    +0.266 A 
BRANCH  20  21
ATOM      5  N   UNL     1       2.462   0.054  21.923  0.00  0.00    -0.329 N 
ATOM      6  N   UNL     1       4.505   0.801  22.366  0.00  0.00    -0.243 NA
ATOM     21  C   UNL     1       2.378   0.673  23.138  0.00  0.00    +0.125 A 
ATOM     22  C   UNL     1       3.651   1.126  23.390  0.00  0.00    +0.143 A 
ATOM     23  C   UNL     1       3.758   0.156  21.499  0.00  0.00    +0.199 A 
ATOM     24  C   UNL     1       1.396  -0.597  21.198  0.00  0.00    +0.150 C 
ENDBRANCH  20  21
ENDBRANCH  14  19
ENDBRANCH  10  14
BRANCH   9  15
ATOM     15  C   UNL     1      -6.011   2.005  26.133  0.00  0.00    +0.163 C 
BRANCH  15   1
ATOM      1  O   UNL     1      -6.187   3.407  26.124  0.00  0.00    -0.394 OA
ATOM     25  H   UNL     1      -5.900   3.729  25.253  0.00  0.00    +0.209 HD
ENDBRANCH  15   1
ENDBRANCH   9  15
TORSDOF 6
ENDMDL
MODEL 5
REMARK VINA RESULT:      -3.5     15.086     17.770
REMARK  Name = 45784128
REMARK  10 active torsions:
REMARK  status: ('A' for Active; 'I' for Inactive)
REMARK    1  A    between atoms: O_1  and  C_15
REMARK    2  A    between atoms: N_5  and  C_24
REMARK    3  A    between atoms: C_7  and  C_11
REMARK    4  A    between atoms: C_9  and  C_15
REMARK    5  A    between atoms: C_10  and  C_14
REMARK    6  A    between atoms: C_11  and  C_16
REMARK    7  A    between atoms: C_11  and  C_17
REMARK    8  A    between atoms: C_12  and  C_18
REMARK    9  A    between atoms: C_14  and  C_19
REMARK   10  A    between atoms: C_20  and  C_21
REMARK                            x       y       z     vdW  Elec       q    Type
REMARK                         _______ _______ _______ _____ _____    ______ ____
ROOT
ATOM      7  C   UNL     1      -5.933  -9.116  10.182  0.00  0.00    +0.001 C 
ATOM      8  C   UNL     1      -6.250 -10.264  11.154  0.00  0.00    +0.012 C 
ATOM      9  C   UNL     1      -6.873  -9.175   8.953  0.00  0.00    +0.040 C 
ATOM     10  C   UNL     1      -7.707 -10.222  11.651  0.00  0.00    +0.024 C 
ATOM     12  C   UNL     1      -8.685 -10.009  10.512  0.00  0.00    -0.073 C 
ATOM     13  C   UNL     1      -8.291  -9.554   9.309  0.00  0.00    -0.022 C 
ATOM     18  C   UNL     1     -10.118 -10.377  10.773  0.00  0.00    +0.039 C 
ENDROOT
BRANCH   7  11
ATOM     11  C   UNL     1      -4.458  -9.175   9.774  0.00  0.00    -0.013 C 
ATOM     16  C   UNL     1      -3.568  -9.265  11.010  0.00  0.00    +0.007 C 
ATOM     17  C   UNL     1      -4.210 -10.356   8.842  0.00  0.00    +0.007 C 
ENDBRANCH   7  11
BRANCH  10  14
ATOM     14  C   UNL     1      -7.891  -9.154  12.736  0.00  0.00    +0.105 C 
BRANCH  14  19
ATOM      2  O   UNL     1      -7.063  -9.681  14.971  0.00  0.00    -0.419 OA
ATOM      3  N   UNL     1      -9.137 -10.416  14.566  0.00  0.00    -0.112 NA
ATOM      4  N   UNL     1      -8.799 -10.780  15.855  0.00  0.00    -0.106 NA
ATOM     19  C   UNL     1      -8.095  -9.777  14.087  0.00  0.00    +0.218 A 
ATOM     20  C   UNL     1      -7.581 -10.332  16.049  0.00  0.00    +0.266 A 
BRANCH  20  21
ATOM      5  N   UNL     1      -5.514 -10.630  17.362  0.00  0.00    -0.329 N 
ATOM      6  N   UNL     1      -6.292 -10.761  19.437  0.00  0.00    -0.243 NA
ATOM     21  C   UNL     1      -6.872 -10.506  17.262  0.00  0.00    +0.125 A 
ATOM     22  C   UNL     1      -7.329 -10.590  18.555  0.00  0.00    +0.143 A 
ATOM     23  C   UNL     1      -5.213 -10.781  18.687  0.00  0.00    +0.199 A 
ATOM     24  C   UNL     1      -4.553 -10.609  16.284  0.00  0.00    +0.150 C 
ENDBRANCH  20  21
ENDBRANCH  14  19
ENDBRANCH  10  14
BRANCH   9  15
ATOM     15  C   UNL     1      -6.876  -7.842   8.196  0.00  0.00    +0.163 C 
BRANCH  15   1
ATOM      1  O   UNL     1      -7.979  -7.080   8.645  0.00  0.00    -0.394 OA
ATOM     25  H   UNL     1      -8.445  -7.613   9.311  0.00  0.00    +0.209 HD
ENDBRANCH  15   1
ENDBRANCH   9  15
TORSDOF 6
ENDMDL
MODEL 6
REMARK VINA RESULT:      -2.8      2.008      2.863
REMARK  Name = 45784128
REMARK  10 active torsions:
REMARK  status: ('A' for Active; 'I' for Inactive)
REMARK    1  A    between atoms: O_1  and  C_15
REMARK    2  A    between atoms: N_5  and  C_24
REMARK    3  A    between atoms: C_7  and  C_11
REMARK    4  A    between atoms: C_9  and  C_15
REMARK    5  A    between atoms: C_10  and  C_14
REMARK    6  A    between atoms: C_11  and  C_16
REMARK    7  A    between atoms: C_11  and  C_17
REMARK    8  A    between atoms: C_12  and  C_18
REMARK    9  A    between atoms: C_14  and  C_19
REMARK   10  A    between atoms: C_20  and  C_21
REMARK                            x       y       z     vdW  Elec       q    Type
REMARK                         _______ _______ _______ _____ _____    ______ ____
ROOT
ATOM      7  C   UNL     1      -3.413   1.948  24.673  0.00  0.00    +0.001 C 
ATOM      8  C   UNL     1      -3.414   2.968  25.822  0.00  0.00    +0.012 C 
ATOM      9  C   UNL     1      -3.135   2.654  23.323  0.00  0.00    +0.040 C 
ATOM     10  C   UNL     1      -2.076   3.722  25.932  0.00  0.00    +0.024 C 
ATOM     12  C   UNL     1      -1.597   4.221  24.584  0.00  0.00    -0.073 C 
ATOM     13  C   UNL     1      -2.092   3.742  23.428  0.00  0.00    -0.022 C 
ATOM     18  C   UNL     1      -0.570   5.318  24.594  0.00  0.00    +0.039 C 
ENDROOT
BRANCH   7  11
ATOM     11  C   UNL     1      -4.743   1.188  24.654  0.00  0.00    -0.013 C 
ATOM     16  C   UNL     1      -4.520  -0.283  24.990  0.00  0.00    +0.007 C 
ATOM     17  C   UNL     1      -5.732   1.822  25.626  0.00  0.00    +0.007 C 
ENDBRANCH   7  11
BRANCH  10  14
ATOM     14  C   UNL     1      -1.006   2.854  26.607  0.00  0.00    +0.105 C 
BRANCH  14  19
ATOM      2  O   UNL     1       0.618   2.075  24.961  0.00  0.00    -0.419 OA
ATOM      3  N   UNL     1      -0.981   0.588  25.443  0.00  0.00    -0.112 NA
ATOM      4  N   UNL     1      -0.139   0.020  24.507  0.00  0.00    -0.106 NA
ATOM     19  C   UNL     1      -0.502   1.787  25.679  0.00  0.00    +0.218 A 
ATOM     20  C   UNL     1       0.779   0.923  24.254  0.00  0.00    +0.266 A 
BRANCH  20  21
ATOM      5  N   UNL     1       1.752  -0.035  22.200  0.00  0.00    -0.329 N 
ATOM      6  N   UNL     1       3.828   0.752  22.252  0.00  0.00    -0.243 NA
ATOM     21  C   UNL     1       1.838   0.721  23.335  0.00  0.00    +0.125 A 
ATOM     22  C   UNL     1       3.127   1.196  23.345  0.00  0.00    +0.143 A 
ATOM     23  C   UNL     1       2.972   0.013  21.583  0.00  0.00    +0.199 A 
ATOM     24  C   UNL     1       0.601  -0.762  21.718  0.00  0.00    +0.150 C 
ENDBRANCH  20  21
ENDBRANCH  14  19
ENDBRANCH  10  14
BRANCH   9  15
ATOM     15  C   UNL     1      -2.713   1.646  22.248  0.00  0.00    +0.163 C 
BRANCH  15   1
ATOM      1  O   UNL     1      -2.454   2.354  21.053  0.00  0.00    -0.394 OA
ATOM     25  H   UNL     1      -1.578   2.076  20.736  0.00  0.00    +0.209 HD
ENDBRANCH  15   1
ENDBRANCH   9  15
TORSDOF 6
ENDMDL
MODEL 7
REMARK VINA RESULT:      -2.7     15.407     18.325
REMARK  Name = 45784128
REMARK  10 active torsions:
REMARK  status: ('A' for Active; 'I' for Inactive)
REMARK    1  A    between atoms: O_1  and  C_15
REMARK    2  A    between atoms: N_5  and  C_24
REMARK    3  A    between atoms: C_7  and  C_11
REMARK    4  A    between atoms: C_9  and  C_15
REMARK    5  A    between atoms: C_10  and  C_14
REMARK    6  A    between atoms: C_11  and  C_16
REMARK    7  A    between atoms: C_11  and  C_17
REMARK    8  A    between atoms: C_12  and  C_18
REMARK    9  A    between atoms: C_14  and  C_19
REMARK   10  A    between atoms: C_20  and  C_21
REMARK                            x       y       z     vdW  Elec       q    Type
REMARK                         _______ _______ _______ _____ _____    ______ ____
ROOT
ATOM      7  C   UNL     1      -6.329  -9.953  10.979  0.00  0.00    +0.001 C 
ATOM      8  C   UNL     1      -7.621 -10.781  10.900  0.00  0.00    +0.012 C 
ATOM      9  C   UNL     1      -5.913  -9.464   9.570  0.00  0.00    +0.040 C 
ATOM     10  C   UNL     1      -8.790  -9.979  10.296  0.00  0.00    +0.024 C 
ATOM     12  C   UNL     1      -8.379  -9.243   9.037  0.00  0.00    -0.073 C 
ATOM     13  C   UNL     1      -7.087  -9.034   8.722  0.00  0.00    -0.022 C 
ATOM     18  C   UNL     1      -9.484  -8.794   8.124  0.00  0.00    +0.039 C 
ENDROOT
BRANCH   7  11
ATOM     11  C   UNL     1      -5.224 -10.781  11.642  0.00  0.00    -0.013 C 
ATOM     16  C   UNL     1      -3.956 -10.754  10.794  0.00  0.00    +0.007 C 
ATOM     17  C   UNL     1      -4.944 -10.265  13.050  0.00  0.00    +0.007 C 
ENDBRANCH   7  11
BRANCH  10  14
ATOM     14  C   UNL     1      -9.386  -9.012  11.326  0.00  0.00    +0.105 C 
BRANCH  14  19
ATOM      2  O   UNL     1      -8.450  -9.311  13.560  0.00  0.00    -0.419 OA
ATOM      3  N   UNL     1     -10.332 -10.462  13.195  0.00  0.00    -0.112 NA
ATOM      4  N   UNL     1      -9.916 -10.723  14.486  0.00  0.00    -0.106 NA
ATOM     19  C   UNL     1      -9.447  -9.634  12.691  0.00  0.00    +0.218 A 
ATOM     20  C   UNL     1      -8.814 -10.031  14.656  0.00  0.00    +0.266 A 
BRANCH  20  21
ATOM      5  N   UNL     1      -8.493  -9.471  17.037  0.00  0.00    -0.329 N 
ATOM      6  N   UNL     1      -6.489 -10.330  17.455  0.00  0.00    -0.243 NA
ATOM     21  C   UNL     1      -8.073 -10.031  15.863  0.00  0.00    +0.125 A 
ATOM     22  C   UNL     1      -6.835 -10.555  16.146  0.00  0.00    +0.143 A 
ATOM     23  C   UNL     1      -7.508  -9.675  17.963  0.00  0.00    +0.199 A 
ATOM     24  C   UNL     1      -9.739  -8.784  17.281  0.00  0.00    +0.150 C 
ENDBRANCH  20  21
ENDBRANCH  14  19
ENDBRANCH  10  14
BRANCH   9  15
ATOM     15  C   UNL     1      -4.902  -8.315   9.659  0.00  0.00    +0.163 C 
BRANCH  15   1
ATOM      1  O   UNL     1      -4.050  -8.385   8.534  0.00  0.00    -0.394 OA
ATOM     25  H   UNL     1      -3.172  -8.077   8.817  0.00  0.00    +0.209 HD
ENDBRANCH  15   1
ENDBRANCH   9  15
TORSDOF 6
ENDMDL
MODEL 8
REMARK VINA RESULT:      -2.6      2.254      3.851
REMARK  Name = 45784128
REMARK  10 active torsions:
REMARK  status: ('A' for Active; 'I' for Inactive)
REMARK    1  A    between atoms: O_1  and  C_15
REMARK    2  A    between atoms: N_5  and  C_24
REMARK    3  A    between atoms: C_7  and  C_11
REMARK    4  A    between atoms: C_9  and  C_15
REMARK    5  A    between atoms: C_10  and  C_14
REMARK    6  A    between atoms: C_11  and  C_16
REMARK    7  A    between atoms: C_11  and  C_17
REMARK    8  A    between atoms: C_12  and  C_18
REMARK    9  A    between atoms: C_14  and  C_19
REMARK   10  A    between atoms: C_20  and  C_21
REMARK                            x       y       z     vdW  Elec       q    Type
REMARK                         _______ _______ _______ _____ _____    ______ ____
ROOT
ATOM      7  C   UNL     1      -3.462   2.291  24.085  0.00  0.00    +0.001 C 
ATOM      8  C   UNL     1      -4.331   1.041  23.871  0.00  0.00    +0.012 C 
ATOM      9  C   UNL     1      -4.308   3.442  24.683  0.00  0.00    +0.040 C 
ATOM     10  C   UNL     1      -4.972   0.547  25.182  0.00  0.00    +0.024 C 
ATOM     12  C   UNL     1      -5.598   1.681  25.967  0.00  0.00    -0.073 C 
ATOM     13  C   UNL     1      -5.300   2.970  25.721  0.00  0.00    -0.022 C 
ATOM     18  C   UNL     1      -6.612   1.304  27.010  0.00  0.00    +0.039 C 
ENDROOT
BRANCH   7  11
ATOM     11  C   UNL     1      -2.805   2.696  22.762  0.00  0.00    -0.013 C 
ATOM     16  C   UNL     1      -2.373   1.459  21.982  0.00  0.00    +0.007 C 
ATOM     17  C   UNL     1      -3.757   3.553  21.935  0.00  0.00    +0.007 C 
ENDBRANCH   7  11
BRANCH  10  14
ATOM     14  C   UNL     1      -3.956  -0.217  26.040  0.00  0.00    +0.105 C 
BRANCH  14  19
ATOM      2  O   UNL     1      -1.795   0.186  24.980  0.00  0.00    -0.419 OA
ATOM      3  N   UNL     1      -2.594  -1.880  24.671  0.00  0.00    -0.112 NA
ATOM      4  N   UNL     1      -1.377  -1.791  24.022  0.00  0.00    -0.106 NA
ATOM     19  C   UNL     1      -2.799  -0.703  25.215  0.00  0.00    +0.218 A 
ATOM     20  C   UNL     1      -0.947  -0.569  24.229  0.00  0.00    +0.266 A 
BRANCH  20  21
ATOM      5  N   UNL     1       0.820   1.140  24.020  0.00  0.00    -0.329 N 
ATOM      6  N   UNL     1       2.251   0.168  22.628  0.00  0.00    -0.243 NA
ATOM     21  C   UNL     1       0.281  -0.080  23.721  0.00  0.00    +0.125 A 
ATOM     22  C   UNL     1       1.182  -0.662  22.862  0.00  0.00    +0.143 A 
ATOM     23  C   UNL     1       2.002   1.244  23.340  0.00  0.00    +0.199 A 
ATOM     24  C   UNL     1       0.264   2.151  24.888  0.00  0.00    +0.150 C 
ENDBRANCH  20  21
ENDBRANCH  14  19
ENDBRANCH  10  14
BRANCH   9  15
ATOM     15  C   UNL     1      -3.413   4.528  25.291  0.00  0.00    +0.163 C 
BRANCH  15   1
ATOM      1  O   UNL     1      -2.505   3.908  26.179  0.00  0.00    -0.394 OA
ATOM     25  H   UNL     1      -1.661   3.809  25.706  0.00  0.00    +0.209 HD
ENDBRANCH  15   1
ENDBRANCH   9  15
TORSDOF 6
ENDMDL
MODEL 9
REMARK VINA RESULT:      -2.3      3.620      6.010
REMARK  Name = 45784128
REMARK  10 active torsions:
REMARK  status: ('A' for Active; 'I' for Inactive)
REMARK    1  A    between atoms: O_1  and  C_15
REMARK    2  A    between atoms: N_5  and  C_24
REMARK    3  A    between atoms: C_7  and  C_11
REMARK    4  A    between atoms: C_9  and  C_15
REMARK    5  A    between atoms: C_10  and  C_14
REMARK    6  A    between atoms: C_11  and  C_16
REMARK    7  A    between atoms: C_11  and  C_17
REMARK    8  A    between atoms: C_12  and  C_18
REMARK    9  A    between atoms: C_14  and  C_19
REMARK   10  A    between atoms: C_20  and  C_21
REMARK                            x       y       z     vdW  Elec       q    Type
REMARK                         _______ _______ _______ _____ _____    ______ ____
ROOT
ATOM      7  C   UNL     1      -1.229   1.953  24.609  0.00  0.00    +0.001 C 
ATOM      8  C   UNL     1      -2.245   2.645  23.687  0.00  0.00    +0.012 C 
ATOM      9  C   UNL     1      -0.049   2.905  24.924  0.00  0.00    +0.040 C 
ATOM     10  C   UNL     1      -2.811   3.936  24.309  0.00  0.00    +0.024 C 
ATOM     12  C   UNL     1      -1.717   4.810  24.888  0.00  0.00    -0.073 C 
ATOM     13  C   UNL     1      -0.484   4.335  25.144  0.00  0.00    -0.022 C 
ATOM     18  C   UNL     1      -2.057   6.254  25.123  0.00  0.00    +0.039 C 
ENDROOT
BRANCH   7  11
ATOM     11  C   UNL     1      -0.750   0.648  23.965  0.00  0.00    -0.013 C 
ATOM     16  C   UNL     1       0.571   0.868  23.235  0.00  0.00    +0.007 C 
ATOM     17  C   UNL     1      -0.611  -0.446  25.018  0.00  0.00    +0.007 C 
ENDBRANCH   7  11
BRANCH  10  14
ATOM     14  C   UNL     1      -3.876   3.619  25.366  0.00  0.00    +0.105 C 
BRANCH  14  19
ATOM      2  O   UNL     1      -3.704   1.210  25.018  0.00  0.00    -0.419 OA
ATOM      3  N   UNL     1      -5.797   1.998  24.946  0.00  0.00    -0.112 NA
ATOM      4  N   UNL     1      -5.847   0.633  24.735  0.00  0.00    -0.106 NA
ATOM     19  C   UNL     1      -4.527   2.291  25.105  0.00  0.00    +0.218 A 
ATOM     20  C   UNL     1      -4.604   0.215  24.785  0.00  0.00    +0.266 A 
BRANCH  20  21
ATOM      5  N   UNL     1      -3.573  -1.894  25.544  0.00  0.00    -0.329 N 
ATOM      6  N   UNL     1      -3.899  -3.230  23.802  0.00  0.00    -0.243 NA
ATOM     21  C   UNL     1      -4.232  -1.141  24.613  0.00  0.00    +0.125 A 
ATOM     22  C   UNL     1      -4.423  -1.987  23.547  0.00  0.00    +0.143 A 
ATOM     23  C   UNL     1      -3.395  -3.140  25.012  0.00  0.00    +0.199 A 
ATOM     24  C   UNL     1      -3.133  -1.475  26.855  0.00  0.00    +0.150 C 
ENDBRANCH  20  21
ENDBRANCH  14  19
ENDBRANCH  10  14
BRANCH   9  15
ATOM     15  C   UNL     1       0.742   2.420  26.145  0.00  0.00    +0.163 C 
BRANCH  15   1
ATOM      1  O   UNL     1      -0.155   2.283  27.228  0.00  0.00    -0.394 OA
ATOM     25  H   UNL     1      -0.520   3.165  27.414  0.00  0.00    +0.209 HD
ENDBRANCH  15   1
ENDBRANCH   9  15
TORSDOF 6
ENDMDL
MODEL 10
REMARK VINA RESULT:      -1.9     13.808     16.676
REMARK  Name = 45784128
REMARK  10 active torsions:
REMARK  status: ('A' for Active; 'I' for Inactive)
REMARK    1  A    between atoms: O_1  and  C_15
REMARK    2  A    between atoms: N_5  and  C_24
REMARK    3  A    between atoms: C_7  and  C_11
REMARK    4  A    between atoms: C_9  and  C_15
REMARK    5  A    between atoms: C_10  and  C_14
REMARK    6  A    between atoms: C_11  and  C_16
REMARK    7  A    between atoms: C_11  and  C_17
REMARK    8  A    between atoms: C_12  and  C_18
REMARK    9  A    between atoms: C_14  and  C_19
REMARK   10  A    between atoms: C_20  and  C_21
REMARK                            x       y       z     vdW  Elec       q    Type
REMARK                         _______ _______ _______ _____ _____    ______ ____
ROOT
ATOM      7  C   UNL     1      -1.725  -9.685  13.445  0.00  0.00    +0.001 C 
ATOM      8  C   UNL     1      -2.817 -10.766  13.471  0.00  0.00    +0.012 C 
ATOM      9  C   UNL     1      -0.998  -9.685  12.078  0.00  0.00    +0.040 C 
ATOM     10  C   UNL     1      -3.865 -10.562  12.361  0.00  0.00    +0.024 C 
ATOM     12  C   UNL     1      -3.219 -10.285  11.019  0.00  0.00    -0.073 C 
ATOM     13  C   UNL     1      -1.932  -9.908  10.911  0.00  0.00    -0.022 C 
ATOM     18  C   UNL     1      -4.071 -10.499   9.800  0.00  0.00    +0.039 C 
ENDROOT
BRANCH   7  11
ATOM     11  C   UNL     1      -0.751  -9.905  14.607  0.00  0.00    -0.013 C 
ATOM     16  C   UNL     1      -0.083  -8.591  14.996  0.00  0.00    +0.007 C 
ATOM     17  C   UNL     1      -1.476 -10.519  15.800  0.00  0.00    +0.007 C 
ENDBRANCH   7  11
BRANCH  10  14
ATOM     14  C   UNL     1      -4.854  -9.450  12.732  0.00  0.00    +0.105 C 
BRANCH  14  19
ATOM      2  O   UNL     1      -5.619  -9.629  15.042  0.00  0.00    -0.419 OA
ATOM      3  N   UNL     1      -6.972 -10.604  13.552  0.00  0.00    -0.112 NA
ATOM      4  N   UNL     1      -7.522 -10.781  14.808  0.00  0.00    -0.106 NA
ATOM     19  C   UNL     1      -5.863  -9.927  13.737  0.00  0.00    +0.218 A 
ATOM     20  C   UNL     1      -6.699 -10.196  15.646  0.00  0.00    +0.266 A 
BRANCH  20  21
ATOM      5  N   UNL     1      -5.959 -10.420  17.989  0.00  0.00    -0.329 N 
ATOM      6  N   UNL     1      -7.812  -9.946  19.115  0.00  0.00    -0.243 NA
ATOM     21  C   UNL     1      -6.912 -10.157  17.046  0.00  0.00    +0.125 A 
ATOM     22  C   UNL     1      -8.047  -9.867  17.765  0.00  0.00    +0.143 A 
ATOM     23  C   UNL     1      -6.546 -10.281  19.216  0.00  0.00    +0.199 A 
ATOM     24  C   UNL     1      -4.579 -10.781  17.760  0.00  0.00    +0.150 C 
ENDBRANCH  20  21
ENDBRANCH  14  19
ENDBRANCH  10  14
BRANCH   9  15
ATOM     15  C   UNL     1      -0.220  -8.381  11.866  0.00  0.00    +0.163 C 
BRANCH  15   1
ATOM      1  O   UNL     1       1.007  -8.694  11.237  0.00  0.00    -0.394 OA
ATOM     25  H   UNL     1       0.814  -9.338  10.534  0.00  0.00    +0.209 HD
ENDBRANCH  15   1
ENDBRANCH   9  15
TORSDOF 6
ENDMDL
