MODEL 1
REMARK VINA RESULT:       5.8      0.000      0.000
REMARK  Name = 45783336
REMARK  7 active torsions:
REMARK  status: ('A' for Active; 'I' for Inactive)
REMARK    1  A    between atoms: O_6  and  C_33
REMARK    2  A    between atoms: O_6  and  C_37
REMARK    3  A    between atoms: N_7  and  C_18
REMARK    4  A    between atoms: C_13  and  C_23
REMARK    5  A    between atoms: C_17  and  C_26
REMARK    6  A    between atoms: C_18  and  C_24
REMARK    7  A    between atoms: C_27  and  C_29
REMARK                            x       y       z     vdW  Elec       q    Type
REMARK                         _______ _______ _______ _____ _____    ______ ____
ROOT
ATOM      4  O   UNL     1      -5.716   0.920  24.777  0.00  0.00    -0.336 OA
ATOM      9  N   UNL     1      -3.601   1.328  25.394  0.00  0.00    -0.190 NA
ATOM     10  N   UNL     1      -4.953  -0.149  24.286  0.00  0.00    -0.056 NA
ATOM     23  C   UNL     1      -4.843   1.743  25.415  0.00  0.00    +0.245 A 
ATOM     27  C   UNL     1      -3.718   0.165  24.690  0.00  0.00    +0.202 A 
ENDROOT
BRANCH  27  29
ATOM      8  N   UNL     1       0.890  -0.329  23.339  0.00  0.00    -0.315 N 
ATOM     11  N   UNL     1      -0.361  -2.272  23.856  0.00  0.00    -0.240 NA
ATOM     17  C   UNL     1       3.393   0.851  22.463  0.00  0.00    +0.078 C 
ATOM     19  C   UNL     1       2.452   1.575  23.425  0.00  0.00    +0.031 C 
ATOM     20  C   UNL     1       2.641  -0.172  21.616  0.00  0.00    +0.031 C 
ATOM     21  C   UNL     1       1.554   0.630  24.226  0.00  0.00    +0.107 C 
ATOM     22  C   UNL     1       1.764  -1.104  22.451  0.00  0.00    +0.107 C 
ATOM     25  C   UNL     1      -0.310  -0.926  23.744  0.00  0.00    +0.122 A 
ATOM     28  C   UNL     1      -1.380  -0.085  24.004  0.00  0.00    +0.055 A 
ATOM     29  C   UNL     1      -2.580  -0.662  24.406  0.00  0.00    +0.027 A 
ATOM     32  C   UNL     1      -2.671  -2.044  24.532  0.00  0.00    +0.031 A 
ATOM     34  C   UNL     1      -1.544  -2.797  24.249  0.00  0.00    +0.113 A 
BRANCH  17  26
ATOM      5  O   UNL     1       5.577   0.792  23.439  0.00  0.00    -0.276 OA
ATOM     12  N   UNL     1       4.287  -1.110  23.540  0.00  0.00    -0.329 N 
ATOM     26  C   UNL     1       4.529   0.198  23.195  0.00  0.00    +0.214 C 
ATOM     38  H   UNL     1       4.984  -1.651  24.041  0.00  0.00    +0.145 HD
ATOM     39  H   UNL     1       3.440  -1.603  23.276  0.00  0.00    +0.145 HD
ENDBRANCH  17  26
ENDBRANCH  27  29
BRANCH  23  13
ATOM      7  N   UNL     1      -4.565   4.174  25.868  0.00  0.00    -0.287 NA
ATOM     13  C   UNL     1      -5.429   2.989  26.044  0.00  0.00    +0.146 C 
ATOM     14  C   UNL     1      -6.778   3.392  25.420  0.00  0.00    +0.030 C 
ATOM     15  C   UNL     1      -6.595   4.837  24.976  0.00  0.00    +0.017 C 
ATOM     16  C   UNL     1      -5.456   5.334  25.843  0.00  0.00    +0.085 C 
BRANCH   7  18
ATOM     18  C   UNL     1      -3.539   4.294  26.895  0.00  0.00    +0.120 C 
BRANCH  18  24
ATOM     24  C   UNL     1      -2.171   3.963  26.361  0.00  0.00    -0.030 A 
ATOM     30  C   UNL     1      -1.305   3.164  27.109  0.00  0.00    +0.051 A 
ATOM     31  C   UNL     1      -1.767   4.457  25.121  0.00  0.00    +0.005 A 
ATOM     33  C   UNL     1      -0.037   2.858  26.615  0.00  0.00    +0.130 A 
ATOM     35  C   UNL     1      -0.498   4.151  24.627  0.00  0.00    +0.004 A 
ATOM     36  C   UNL     1       0.366   3.351  25.374  0.00  0.00    +0.046 A 
BRANCH  33   6
ATOM      6  O   UNL     1       0.807   2.079  27.345  0.00  0.00    -0.406 OA
BRANCH   6  37
ATOM      1  F   UNL     1       2.146   3.683  28.275  0.00  0.00    -0.133 F 
ATOM      2  F   UNL     1       2.123   1.673  29.134  0.00  0.00    -0.133 F 
ATOM      3  F   UNL     1       0.386   2.972  29.409  0.00  0.00    -0.133 F 
ATOM     37  C   UNL     1       1.358   2.619  28.541  0.00  0.00    +0.575 C 
ENDBRANCH   6  37
ENDBRANCH  33   6
ENDBRANCH  18  24
ENDBRANCH   7  18
ENDBRANCH  23  13
TORSDOF 7
ENDMDL
MODEL 2
REMARK VINA RESULT:       6.8      2.823      3.132
REMARK  Name = 45783336
REMARK  7 active torsions:
REMARK  status: ('A' for Active; 'I' for Inactive)
REMARK    1  A    between atoms: O_6  and  C_33
REMARK    2  A    between atoms: O_6  and  C_37
REMARK    3  A    between atoms: N_7  and  C_18
REMARK    4  A    between atoms: C_13  and  C_23
REMARK    5  A    between atoms: C_17  and  C_26
REMARK    6  A    between atoms: C_18  and  C_24
REMARK    7  A    between atoms: C_27  and  C_29
REMARK                            x       y       z     vdW  Elec       q    Type
REMARK                         _______ _______ _______ _____ _____    ______ ____
ROOT
ATOM      4  O   UNL     1      -5.850   0.848  25.136  0.00  0.00    -0.336 OA
ATOM      9  N   UNL     1      -3.689   1.313  25.502  0.00  0.00    -0.190 NA
ATOM     10  N   UNL     1      -5.126  -0.253  24.655  0.00  0.00    -0.056 NA
ATOM     23  C   UNL     1      -4.928   1.723  25.616  0.00  0.00    +0.245 A 
ATOM     27  C   UNL     1      -3.862   0.097  24.907  0.00  0.00    +0.202 A 
ENDROOT
BRANCH  27  29
ATOM      8  N   UNL     1       0.702  -0.452  23.432  0.00  0.00    -0.315 N 
ATOM     11  N   UNL     1      -0.575  -2.382  23.929  0.00  0.00    -0.240 NA
ATOM     17  C   UNL     1       3.208   0.702  22.526  0.00  0.00    +0.078 C 
ATOM     19  C   UNL     1       2.305   1.418  23.528  0.00  0.00    +0.031 C 
ATOM     20  C   UNL     1       2.415  -0.284  21.671  0.00  0.00    +0.031 C 
ATOM     21  C   UNL     1       1.407   0.470  24.326  0.00  0.00    +0.107 C 
ATOM     22  C   UNL     1       1.539  -1.221  22.503  0.00  0.00    +0.107 C 
ATOM     25  C   UNL     1      -0.500  -1.035  23.850  0.00  0.00    +0.122 A 
ATOM     28  C   UNL     1      -1.546  -0.180  24.158  0.00  0.00    +0.055 A 
ATOM     29  C   UNL     1      -2.747  -0.744  24.574  0.00  0.00    +0.027 A 
ATOM     32  C   UNL     1      -2.864  -2.127  24.667  0.00  0.00    +0.031 A 
ATOM     34  C   UNL     1      -1.759  -2.894  24.337  0.00  0.00    +0.113 A 
BRANCH  17  26
ATOM      5  O   UNL     1       4.335  -1.201  23.439  0.00  0.00    -0.276 OA
ATOM     12  N   UNL     1       5.373   0.848  23.573  0.00  0.00    -0.329 N 
ATOM     26  C   UNL     1       4.347   0.007  23.214  0.00  0.00    +0.214 C 
ATOM     38  H   UNL     1       6.198   0.488  24.042  0.00  0.00    +0.145 HD
ATOM     39  H   UNL     1       5.338   1.853  23.435  0.00  0.00    +0.145 HD
ENDBRANCH  17  26
ENDBRANCH  27  29
BRANCH  23  13
ATOM      7  N   UNL     1      -4.832   4.209  25.612  0.00  0.00    -0.287 NA
ATOM     13  C   UNL     1      -5.463   3.012  26.203  0.00  0.00    +0.146 C 
ATOM     14  C   UNL     1      -6.970   3.199  25.949  0.00  0.00    +0.030 C 
ATOM     15  C   UNL     1      -7.094   4.554  25.267  0.00  0.00    +0.017 C 
ATOM     16  C   UNL     1      -5.828   5.278  25.681  0.00  0.00    +0.085 C 
BRANCH   7  18
ATOM     18  C   UNL     1      -3.583   4.581  26.265  0.00  0.00    +0.120 C 
BRANCH  18  24
ATOM     24  C   UNL     1      -2.396   4.372  25.363  0.00  0.00    -0.030 A 
ATOM     30  C   UNL     1      -2.432   3.384  24.380  0.00  0.00    +0.051 A 
ATOM     31  C   UNL     1      -1.258   5.166  25.512  0.00  0.00    +0.005 A 
ATOM     33  C   UNL     1      -1.331   3.189  23.545  0.00  0.00    +0.130 A 
ATOM     35  C   UNL     1      -0.157   4.971  24.677  0.00  0.00    +0.004 A 
ATOM     36  C   UNL     1      -0.194   3.983  23.693  0.00  0.00    +0.046 A 
BRANCH  33   6
ATOM      6  O   UNL     1      -1.368   2.224  22.587  0.00  0.00    -0.406 OA
BRANCH   6  37
ATOM      1  F   UNL     1      -2.907   0.740  21.775  0.00  0.00    -0.133 F 
ATOM      2  F   UNL     1      -2.391   2.505  20.594  0.00  0.00    -0.133 F 
ATOM      3  F   UNL     1      -3.588   2.746  22.408  0.00  0.00    -0.133 F 
ATOM     37  C   UNL     1      -2.575   2.046  21.854  0.00  0.00    +0.575 C 
ENDBRANCH   6  37
ENDBRANCH  33   6
ENDBRANCH  18  24
ENDBRANCH   7  18
ENDBRANCH  23  13
TORSDOF 7
ENDMDL
MODEL 3
REMARK VINA RESULT:       9.1      1.598      2.515
REMARK  Name = 45783336
REMARK  7 active torsions:
REMARK  status: ('A' for Active; 'I' for Inactive)
REMARK    1  A    between atoms: O_6  and  C_33
REMARK    2  A    between atoms: O_6  and  C_37
REMARK    3  A    between atoms: N_7  and  C_18
REMARK    4  A    between atoms: C_13  and  C_23
REMARK    5  A    between atoms: C_17  and  C_26
REMARK    6  A    between atoms: C_18  and  C_24
REMARK    7  A    between atoms: C_27  and  C_29
REMARK                            x       y       z     vdW  Elec       q    Type
REMARK                         _______ _______ _______ _____ _____    ______ ____
ROOT
ATOM      4  O   UNL     1      -2.629  -0.568  25.844  0.00  0.00    -0.336 OA
ATOM      9  N   UNL     1      -2.292   0.891  24.178  0.00  0.00    -0.190 NA
ATOM     10  N   UNL     1      -1.488  -1.012  25.162  0.00  0.00    -0.056 NA
ATOM     23  C   UNL     1      -3.039   0.556  25.200  0.00  0.00    +0.245 A 
ATOM     27  C   UNL     1      -1.354  -0.100  24.194  0.00  0.00    +0.202 A 
ENDROOT
BRANCH  27  29
ATOM      8  N   UNL     1       3.346  -0.051  23.093  0.00  0.00    -0.315 N 
ATOM     11  N   UNL     1       1.767  -0.257  21.341  0.00  0.00    -0.240 NA
ATOM     17  C   UNL     1       6.120   0.146  23.924  0.00  0.00    +0.078 C 
ATOM     19  C   UNL     1       5.058  -0.509  24.805  0.00  0.00    +0.031 C 
ATOM     20  C   UNL     1       5.495   1.141  22.949  0.00  0.00    +0.031 C 
ATOM     21  C   UNL     1       3.868  -1.061  24.017  0.00  0.00    +0.107 C 
ATOM     22  C   UNL     1       4.318   0.552  22.173  0.00  0.00    +0.107 C 
ATOM     25  C   UNL     1       2.016  -0.131  22.663  0.00  0.00    +0.122 A 
ATOM     28  C   UNL     1       1.030  -0.075  23.636  0.00  0.00    +0.055 A 
ATOM     29  C   UNL     1      -0.296  -0.152  23.226  0.00  0.00    +0.027 A 
ATOM     32  C   UNL     1      -0.592  -0.281  21.873  0.00  0.00    +0.031 A 
ATOM     34  C   UNL     1       0.466  -0.329  20.979  0.00  0.00    +0.113 A 
BRANCH  17  26
ATOM      5  O   UNL     1       6.502  -2.009  22.958  0.00  0.00    -0.276 OA
ATOM     12  N   UNL     1       8.178  -0.439  22.816  0.00  0.00    -0.329 N 
ATOM     26  C   UNL     1       6.930  -0.879  23.186  0.00  0.00    +0.214 C 
ATOM     38  H   UNL     1       8.813  -1.047  22.308  0.00  0.00    +0.145 HD
ATOM     39  H   UNL     1       8.538   0.476  23.067  0.00  0.00    +0.145 HD
ENDBRANCH  17  26
ENDBRANCH  27  29
BRANCH  23  13
ATOM      7  N   UNL     1      -4.328   2.674  25.411  0.00  0.00    -0.287 NA
ATOM     13  C   UNL     1      -4.272   1.239  25.754  0.00  0.00    +0.146 C 
ATOM     14  C   UNL     1      -5.579   0.651  25.191  0.00  0.00    +0.030 C 
ATOM     15  C   UNL     1      -6.331   1.839  24.607  0.00  0.00    +0.017 C 
ATOM     16  C   UNL     1      -5.746   3.027  25.343  0.00  0.00    +0.085 C 
BRANCH   7  18
ATOM     18  C   UNL     1      -3.597   3.517  26.348  0.00  0.00    +0.120 C 
BRANCH  18  24
ATOM     24  C   UNL     1      -2.117   3.508  26.074  0.00  0.00    -0.030 A 
ATOM     30  C   UNL     1      -1.261   2.766  26.888  0.00  0.00    +0.051 A 
ATOM     31  C   UNL     1      -1.600   4.243  25.006  0.00  0.00    +0.005 A 
ATOM     33  C   UNL     1       0.110   2.759  26.636  0.00  0.00    +0.130 A 
ATOM     35  C   UNL     1      -0.228   4.234  24.753  0.00  0.00    +0.004 A 
ATOM     36  C   UNL     1       0.627   3.492  25.568  0.00  0.00    +0.046 A 
BRANCH  33   6
ATOM      6  O   UNL     1       0.944   2.035  27.431  0.00  0.00    -0.406 OA
BRANCH   6  37
ATOM      1  F   UNL     1       2.257   3.602  28.457  0.00  0.00    -0.133 F 
ATOM      2  F   UNL     1       1.974   1.653  29.404  0.00  0.00    -0.133 F 
ATOM      3  F   UNL     1       0.314   3.075  29.370  0.00  0.00    -0.133 F 
ATOM     37  C   UNL     1       1.366   2.608  28.664  0.00  0.00    +0.575 C 
ENDBRANCH   6  37
ENDBRANCH  33   6
ENDBRANCH  18  24
ENDBRANCH   7  18
ENDBRANCH  23  13
TORSDOF 7
ENDMDL
