MODEL 1
REMARK VINA RESULT:       7.6      0.000      0.000
REMARK  Name = 45783320
REMARK  7 active torsions:
REMARK  status: ('A' for Active; 'I' for Inactive)
REMARK    1  A    between atoms: O_3  and  C_27
REMARK    2  A    between atoms: O_3  and  C_34
REMARK    3  A    between atoms: N_4  and  C_15
REMARK    4  A    between atoms: C_10  and  C_18
REMARK    5  A    between atoms: C_14  and  C_23
REMARK    6  A    between atoms: C_15  and  C_21
REMARK    7  A    between atoms: C_24  and  C_26
REMARK                            x       y       z     vdW  Elec       q    Type
REMARK                         _______ _______ _______ _____ _____    ______ ____
ROOT
ATOM      1  O   UNL     1      -1.602   3.178  24.316  0.00  0.00    -0.336 OA
ATOM      6  N   UNL     1      -1.995   1.226  23.290  0.00  0.00    -0.190 NA
ATOM      7  N   UNL     1      -0.350   2.683  23.927  0.00  0.00    -0.056 NA
ATOM     18  C   UNL     1      -2.514   2.260  23.903  0.00  0.00    +0.245 A 
ATOM     24  C   UNL     1      -0.665   1.530  23.329  0.00  0.00    +0.202 A 
ENDROOT
BRANCH  24  26
ATOM      5  N   UNL     1       3.815  -0.267  23.255  0.00  0.00    -0.315 N 
ATOM      8  N   UNL     1       2.248  -1.043  21.658  0.00  0.00    -0.240 NA
ATOM     14  C   UNL     1       6.494  -0.256  24.370  0.00  0.00    +0.078 C 
ATOM     16  C   UNL     1       5.656  -1.530  24.300  0.00  0.00    +0.031 C 
ATOM     17  C   UNL     1       5.612   0.990  24.372  0.00  0.00    +0.031 C 
ATOM     19  C   UNL     1       4.599  -1.503  23.193  0.00  0.00    +0.107 C 
ATOM     20  C   UNL     1       4.578   0.987  23.247  0.00  0.00    +0.107 C 
ATOM     22  C   UNL     1       2.525  -0.240  22.709  0.00  0.00    +0.122 A 
ATOM     25  C   UNL     1       1.608   0.620  23.292  0.00  0.00    +0.055 A 
ATOM     26  C   UNL     1       0.324   0.659  22.761  0.00  0.00    +0.027 A 
ATOM     29  C   UNL     1       0.000  -0.153  21.680  0.00  0.00    +0.031 A 
ATOM     31  C   UNL     1       0.989  -0.978  21.169  0.00  0.00    +0.113 A 
BRANCH  14  23
ATOM      2  O   UNL     1       7.234  -0.599  22.122  0.00  0.00    -0.276 OA
ATOM      9  N   UNL     1       8.708   0.333  23.623  0.00  0.00    -0.329 N 
ATOM     23  C   UNL     1       7.494  -0.194  23.252  0.00  0.00    +0.214 C 
ATOM     35  H   UNL     1       9.460   0.425  22.948  0.00  0.00    +0.145 HD
ATOM     36  H   UNL     1       8.926   0.603  24.576  0.00  0.00    +0.145 HD
ENDBRANCH  14  23
ENDBRANCH  24  26
BRANCH  18  10
ATOM      4  N   UNL     1      -4.416   1.974  25.481  0.00  0.00    -0.287 NA
ATOM     10  C   UNL     1      -3.965   2.567  24.206  0.00  0.00    +0.146 C 
ATOM     11  C   UNL     1      -4.234   4.076  24.360  0.00  0.00    +0.030 C 
ATOM     12  C   UNL     1      -4.891   4.225  25.725  0.00  0.00    +0.017 C 
ATOM     13  C   UNL     1      -5.469   2.851  25.996  0.00  0.00    +0.085 C 
BRANCH   4  15
ATOM     15  C   UNL     1      -4.870   0.596  25.345  0.00  0.00    +0.124 C 
BRANCH  15  21
ATOM     21  C   UNL     1      -3.717  -0.372  25.312  0.00  0.00    +0.008 A 
ATOM     27  C   UNL     1      -3.790  -1.544  24.560  0.00  0.00    +0.124 A 
ATOM     28  C   UNL     1      -2.565  -0.085  26.046  0.00  0.00    +0.008 A 
ATOM     30  C   UNL     1      -2.713  -2.430  24.541  0.00  0.00    +0.046 A 
ATOM     32  C   UNL     1      -1.488  -0.971  26.027  0.00  0.00    +0.001 A 
ATOM     33  C   UNL     1      -1.562  -2.143  25.275  0.00  0.00    +0.004 A 
BRANCH  27   3
ATOM      3  O   UNL     1      -4.907  -1.839  23.838  0.00  0.00    -0.495 OA
ATOM     34  C   UNL     1      -4.905  -3.069  23.114  0.00  0.00    +0.277 C 
ENDBRANCH  27   3
ENDBRANCH  15  21
ENDBRANCH   4  15
ENDBRANCH  18  10
TORSDOF 6
ENDMDL
MODEL 2
REMARK VINA RESULT:      10.0      2.074      3.894
REMARK  Name = 45783320
REMARK  7 active torsions:
REMARK  status: ('A' for Active; 'I' for Inactive)
REMARK    1  A    between atoms: O_3  and  C_27
REMARK    2  A    between atoms: O_3  and  C_34
REMARK    3  A    between atoms: N_4  and  C_15
REMARK    4  A    between atoms: C_10  and  C_18
REMARK    5  A    between atoms: C_14  and  C_23
REMARK    6  A    between atoms: C_15  and  C_21
REMARK    7  A    between atoms: C_24  and  C_26
REMARK                            x       y       z     vdW  Elec       q    Type
REMARK                         _______ _______ _______ _____ _____    ______ ____
ROOT
ATOM      1  O   UNL     1      -5.495   0.506  25.010  0.00  0.00    -0.336 OA
ATOM      6  N   UNL     1      -3.352   1.013  25.422  0.00  0.00    -0.190 NA
ATOM      7  N   UNL     1      -4.737  -0.554  24.492  0.00  0.00    -0.056 NA
ATOM     18  C   UNL     1      -4.603   1.383  25.538  0.00  0.00    +0.245 A 
ATOM     24  C   UNL     1      -3.485  -0.181  24.774  0.00  0.00    +0.202 A 
ENDROOT
BRANCH  24  26
ATOM      5  N   UNL     1       1.204  -0.569  23.694  0.00  0.00    -0.315 N 
ATOM      8  N   UNL     1      -0.123  -2.530  23.737  0.00  0.00    -0.240 NA
ATOM     14  C   UNL     1       3.747   0.754  23.241  0.00  0.00    +0.078 C 
ATOM     16  C   UNL     1       3.586  -0.345  24.288  0.00  0.00    +0.031 C 
ATOM     17  C   UNL     1       2.415   1.439  22.945  0.00  0.00    +0.031 C 
ATOM     19  C   UNL     1       2.435  -1.308  23.988  0.00  0.00    +0.107 C 
ATOM     20  C   UNL     1       1.294   0.447  22.638  0.00  0.00    +0.107 C 
ATOM     22  C   UNL     1      -0.037  -1.190  23.888  0.00  0.00    +0.122 A 
ATOM     25  C   UNL     1      -1.106  -0.376  24.226  0.00  0.00    +0.055 A 
ATOM     26  C   UNL     1      -2.344  -0.977  24.421  0.00  0.00    +0.027 A 
ATOM     29  C   UNL     1      -2.473  -2.354  24.274  0.00  0.00    +0.031 A 
ATOM     31  C   UNL     1      -1.342  -3.079  23.934  0.00  0.00    +0.113 A 
BRANCH  14  23
ATOM      2  O   UNL     1       3.750   0.206  20.913  0.00  0.00    -0.276 OA
ATOM      9  N   UNL     1       5.643  -0.246  22.140  0.00  0.00    -0.329 N 
ATOM     23  C   UNL     1       4.361   0.224  21.979  0.00  0.00    +0.214 C 
ATOM     35  H   UNL     1       6.158  -0.627  21.353  0.00  0.00    +0.145 HD
ATOM     36  H   UNL     1       6.109  -0.282  23.040  0.00  0.00    +0.145 HD
ENDBRANCH  14  23
ENDBRANCH  24  26
BRANCH  18  10
ATOM      4  N   UNL     1      -4.455   3.856  25.773  0.00  0.00    -0.287 NA
ATOM     10  C   UNL     1      -5.179   2.632  26.171  0.00  0.00    +0.146 C 
ATOM     11  C   UNL     1      -6.640   2.889  25.756  0.00  0.00    +0.030 C 
ATOM     12  C   UNL     1      -6.650   4.302  25.191  0.00  0.00    +0.017 C 
ATOM     13  C   UNL     1      -5.431   4.947  25.819  0.00  0.00    +0.085 C 
BRANCH   4  15
ATOM     15  C   UNL     1      -3.289   4.129  26.602  0.00  0.00    +0.124 C 
BRANCH  15  21
ATOM     21  C   UNL     1      -2.019   3.635  25.962  0.00  0.00    +0.008 A 
ATOM     27  C   UNL     1      -1.865   3.650  24.576  0.00  0.00    +0.124 A 
ATOM     28  C   UNL     1      -0.989   3.157  26.773  0.00  0.00    +0.008 A 
ATOM     30  C   UNL     1      -0.681   3.188  24.000  0.00  0.00    +0.046 A 
ATOM     32  C   UNL     1       0.195   2.695  26.197  0.00  0.00    +0.001 A 
ATOM     33  C   UNL     1       0.348   2.711  24.811  0.00  0.00    +0.004 A 
BRANCH  27   3
ATOM      3  O   UNL     1      -2.861   4.113  23.770  0.00  0.00    -0.495 OA
ATOM     34  C   UNL     1      -3.317   3.240  22.738  0.00  0.00    +0.277 C 
ENDBRANCH  27   3
ENDBRANCH  15  21
ENDBRANCH   4  15
ENDBRANCH  18  10
TORSDOF 6
ENDMDL
MODEL 3
REMARK VINA RESULT:      10.3      1.363      1.958
REMARK  Name = 45783320
REMARK  7 active torsions:
REMARK  status: ('A' for Active; 'I' for Inactive)
REMARK    1  A    between atoms: O_3  and  C_27
REMARK    2  A    between atoms: O_3  and  C_34
REMARK    3  A    between atoms: N_4  and  C_15
REMARK    4  A    between atoms: C_10  and  C_18
REMARK    5  A    between atoms: C_14  and  C_23
REMARK    6  A    between atoms: C_15  and  C_21
REMARK    7  A    between atoms: C_24  and  C_26
REMARK                            x       y       z     vdW  Elec       q    Type
REMARK                         _______ _______ _______ _____ _____    ______ ____
ROOT
ATOM      1  O   UNL     1      -0.757   3.411  25.636  0.00  0.00    -0.336 OA
ATOM      6  N   UNL     1      -1.247   2.456  23.670  0.00  0.00    -0.190 NA
ATOM      7  N   UNL     1       0.302   2.538  25.352  0.00  0.00    -0.056 NA
ATOM     18  C   UNL     1      -1.623   3.301  24.596  0.00  0.00    +0.245 A 
ATOM     24  C   UNL     1      -0.060   2.013  24.178  0.00  0.00    +0.202 A 
ENDROOT
BRANCH  24  26
ATOM      5  N   UNL     1       4.155  -0.231  23.468  0.00  0.00    -0.315 N 
ATOM      8  N   UNL     1       2.295  -0.852  22.141  0.00  0.00    -0.240 NA
ATOM     14  C   UNL     1       6.961  -0.487  24.167  0.00  0.00    +0.078 C 
ATOM     16  C   UNL     1       5.998  -1.669  24.250  0.00  0.00    +0.031 C 
ATOM     17  C   UNL     1       6.218   0.843  24.276  0.00  0.00    +0.031 C 
ATOM     19  C   UNL     1       4.794  -1.541  23.314  0.00  0.00    +0.107 C 
ATOM     20  C   UNL     1       5.030   0.939  23.320  0.00  0.00    +0.107 C 
ATOM     22  C   UNL     1       2.807  -0.075  23.122  0.00  0.00    +0.122 A 
ATOM     25  C   UNL     1       2.080   0.876  23.818  0.00  0.00    +0.055 A 
ATOM     26  C   UNL     1       0.740   1.042  23.486  0.00  0.00    +0.027 A 
ATOM     29  C   UNL     1       0.177   0.263  22.482  0.00  0.00    +0.031 A 
ATOM     31  C   UNL     1       0.989  -0.661  21.845  0.00  0.00    +0.113 A 
BRANCH  14  23
ATOM      2  O   UNL     1       7.353  -1.028  21.871  0.00  0.00    -0.276 OA
ATOM      9  N   UNL     1       9.036   0.009  23.048  0.00  0.00    -0.329 N 
ATOM     23  C   UNL     1       7.780  -0.532  22.911  0.00  0.00    +0.214 C 
ATOM     35  H   UNL     1       9.678   0.034  22.262  0.00  0.00    +0.145 HD
ATOM     36  H   UNL     1       9.395   0.356  23.931  0.00  0.00    +0.145 HD
ENDBRANCH  14  23
ENDBRANCH  24  26
BRANCH  18  10
ATOM      4  N   UNL     1      -4.021   3.441  25.247  0.00  0.00    -0.287 NA
ATOM     10  C   UNL     1      -2.870   4.158  24.664  0.00  0.00    +0.146 C 
ATOM     11  C   UNL     1      -2.690   5.401  25.557  0.00  0.00    +0.030 C 
ATOM     12  C   UNL     1      -3.819   5.326  26.574  0.00  0.00    +0.017 C 
ATOM     13  C   UNL     1      -4.856   4.455  25.894  0.00  0.00    +0.085 C 
BRANCH   4  15
ATOM     15  C   UNL     1      -4.766   2.660  24.270  0.00  0.00    +0.124 C 
BRANCH  15  21
ATOM     21  C   UNL     1      -4.374   1.206  24.297  0.00  0.00    +0.008 A 
ATOM     27  C   UNL     1      -4.630   0.419  25.419  0.00  0.00    +0.124 A 
ATOM     28  C   UNL     1      -3.746   0.649  23.183  0.00  0.00    +0.008 A 
ATOM     30  C   UNL     1      -4.259  -0.926  25.428  0.00  0.00    +0.046 A 
ATOM     32  C   UNL     1      -3.375  -0.696  23.191  0.00  0.00    +0.001 A 
ATOM     33  C   UNL     1      -3.631  -1.482  24.314  0.00  0.00    +0.004 A 
BRANCH  27   3
ATOM      3  O   UNL     1      -5.242   0.948  26.516  0.00  0.00    -0.495 OA
ATOM     34  C   UNL     1      -6.593   1.378  26.359  0.00  0.00    +0.277 C 
ENDBRANCH  27   3
ENDBRANCH  15  21
ENDBRANCH   4  15
ENDBRANCH  18  10
TORSDOF 6
ENDMDL
