MODEL 1
REMARK VINA RESULT:      -2.2      0.000      0.000
REMARK  Name = 75537128
REMARK  3 active torsions:
REMARK  status: ('A' for Active; 'I' for Inactive)
REMARK    1  A    between atoms: N_2  and  C_7
REMARK    2  A    between atoms: N_4  and  C_18
REMARK    3  A    between atoms: C_18  and  C_19
REMARK                            x       y       z     vdW  Elec       q    Type
REMARK                         _______ _______ _______ _____ _____    ______ ____
ROOT
ATOM      1  O   UNL     1      -9.671 -10.375  13.754  0.00  0.00    -0.252 OA
ATOM      2  N   UNL     1      -7.908 -10.416  15.321  0.00  0.00    -0.281 N 
ATOM      3  N   UNL     1      -7.430  -9.980  13.170  0.00  0.00    -0.278 N 
ATOM      4  N   UNL     1      -5.033 -10.130  11.705  0.00  0.00    -0.295 NA
ATOM      6  C   UNL     1      -6.171  -9.807  13.863  0.00  0.00    +0.109 C 
ATOM      8  C   UNL     1      -6.459 -10.327  15.271  0.00  0.00    +0.133 C 
ATOM      9  C   UNL     1      -5.052 -10.539  13.125  0.00  0.00    +0.109 C 
ATOM     12  C   UNL     1      -8.487 -10.266  14.045  0.00  0.00    +0.305 C 
ATOM     13  C   UNL     1      -7.490  -9.750  11.742  0.00  0.00    +0.125 C 
ATOM     14  C   UNL     1      -6.318 -10.450  11.049  0.00  0.00    +0.104 C 
ENDROOT
BRANCH   2   7
ATOM      7  C   UNL     1      -8.611 -10.770  16.530  0.00  0.00    +0.078 C 
ATOM     10  C   UNL     1      -9.970 -10.067  16.585  0.00  0.00    +0.022 C 
ATOM     11  C   UNL     1      -7.766 -10.446  17.764  0.00  0.00    +0.022 C 
ATOM     15  C   UNL     1     -10.715 -10.383  17.880  0.00  0.00    +0.002 C 
ATOM     16  C   UNL     1      -8.513 -10.762  19.057  0.00  0.00    +0.002 C 
ATOM     17  C   UNL     1      -9.869 -10.062  19.109  0.00  0.00    +0.000 C 
ENDBRANCH   2   7
BRANCH   4  18
ATOM     18  C   UNL     1      -3.927 -10.780  11.003  0.00  0.00    +0.119 C 
BRANCH  18  19
ATOM      5  N   UNL     1      -0.261  -8.568  11.411  0.00  0.00    -0.263 NA
ATOM     19  C   UNL     1      -2.643 -10.007  11.145  0.00  0.00    -0.031 A 
ATOM     20  C   UNL     1      -1.845 -10.179  12.271  0.00  0.00    +0.024 A 
ATOM     21  C   UNL     1      -2.251  -9.116  10.152  0.00  0.00    +0.024 A 
ATOM     22  C   UNL     1      -0.675  -9.442  12.355  0.00  0.00    +0.111 A 
ATOM     23  C   UNL     1      -1.062  -8.427  10.331  0.00  0.00    +0.111 A 
ENDBRANCH  18  19
ENDBRANCH   4  18
TORSDOF 3
ENDMDL
MODEL 2
REMARK VINA RESULT:      -1.0     15.646     16.667
REMARK  Name = 75537128
REMARK  3 active torsions:
REMARK  status: ('A' for Active; 'I' for Inactive)
REMARK    1  A    between atoms: N_2  and  C_7
REMARK    2  A    between atoms: N_4  and  C_18
REMARK    3  A    between atoms: C_18  and  C_19
REMARK                            x       y       z     vdW  Elec       q    Type
REMARK                         _______ _______ _______ _____ _____    ______ ____
ROOT
ATOM      1  O   UNL     1      -1.891   3.934  25.308  0.00  0.00    -0.252 OA
ATOM      2  N   UNL     1      -2.945   1.941  24.614  0.00  0.00    -0.281 N 
ATOM      3  N   UNL     1      -0.704   1.984  24.755  0.00  0.00    -0.278 N 
ATOM      4  N   UNL     1       1.285   0.357  23.611  0.00  0.00    -0.295 NA
ATOM      6  C   UNL     1      -1.021   0.609  24.431  0.00  0.00    +0.109 C 
ATOM      8  C   UNL     1      -2.516   0.647  24.114  0.00  0.00    +0.133 C 
ATOM      9  C   UNL     1      -0.136   0.113  23.289  0.00  0.00    +0.109 C 
ATOM     12  C   UNL     1      -1.851   2.766  24.943  0.00  0.00    +0.305 C 
ATOM     13  C   UNL     1       0.679   2.366  24.944  0.00  0.00    +0.125 C 
ATOM     14  C   UNL     1       1.539   1.799  23.811  0.00  0.00    +0.104 C 
ENDROOT
BRANCH   2   7
ATOM      7  C   UNL     1      -4.332   2.341  24.610  0.00  0.00    +0.078 C 
ATOM     10  C   UNL     1      -4.572   3.457  25.629  0.00  0.00    +0.022 C 
ATOM     11  C   UNL     1      -5.243   1.140  24.875  0.00  0.00    +0.022 C 
ATOM     15  C   UNL     1      -6.042   3.865  25.684  0.00  0.00    +0.002 C 
ATOM     16  C   UNL     1      -6.713   1.550  24.929  0.00  0.00    +0.002 C 
ATOM     17  C   UNL     1      -6.948   2.665  25.944  0.00  0.00    +0.000 C 
ENDBRANCH   2   7
BRANCH   4  18
ATOM     18  C   UNL     1       2.145  -0.169  22.550  0.00  0.00    +0.119 C 
BRANCH  18  19
ATOM      5  N   UNL     1       6.205  -0.656  23.884  0.00  0.00    -0.263 NA
ATOM     19  C   UNL     1       3.566  -0.340  23.016  0.00  0.00    -0.031 A 
ATOM     20  C   UNL     1       3.950  -1.501  23.678  0.00  0.00    +0.024 A 
ATOM     21  C   UNL     1       4.500   0.664  22.788  0.00  0.00    +0.024 A 
ATOM     22  C   UNL     1       5.269  -1.609  24.088  0.00  0.00    +0.111 A 
ATOM     23  C   UNL     1       5.796   0.460  23.238  0.00  0.00    +0.111 A 
ENDBRANCH  18  19
ENDBRANCH   4  18
TORSDOF 3
ENDMDL
MODEL 3
REMARK VINA RESULT:      -0.7      1.919      3.023
REMARK  Name = 75537128
REMARK  3 active torsions:
REMARK  status: ('A' for Active; 'I' for Inactive)
REMARK    1  A    between atoms: N_2  and  C_7
REMARK    2  A    between atoms: N_4  and  C_18
REMARK    3  A    between atoms: C_18  and  C_19
REMARK                            x       y       z     vdW  Elec       q    Type
REMARK                         _______ _______ _______ _____ _____    ______ ____
ROOT
ATOM      1  O   UNL     1      -7.799  -9.741  10.678  0.00  0.00    -0.252 OA
ATOM      2  N   UNL     1      -7.011 -10.048  12.879  0.00  0.00    -0.281 N 
ATOM      3  N   UNL     1      -5.574  -9.330  11.310  0.00  0.00    -0.278 N 
ATOM      4  N   UNL     1      -2.764  -9.342  11.183  0.00  0.00    -0.295 NA
ATOM      6  C   UNL     1      -4.815  -9.290  12.542  0.00  0.00    +0.109 C 
ATOM      8  C   UNL     1      -5.724  -9.992  13.550  0.00  0.00    +0.133 C 
ATOM      9  C   UNL     1      -3.448  -9.943  12.346  0.00  0.00    +0.109 C 
ATOM     12  C   UNL     1      -6.908  -9.706  11.516  0.00  0.00    +0.305 C 
ATOM     13  C   UNL     1      -4.947  -8.902  10.077  0.00  0.00    +0.125 C 
ATOM     14  C   UNL     1      -3.557  -9.532   9.951  0.00  0.00    +0.104 C 
ENDROOT
BRANCH   2   7
ATOM      7  C   UNL     1      -8.195 -10.547  13.537  0.00  0.00    +0.078 C 
ATOM     10  C   UNL     1      -9.453  -9.940  12.910  0.00  0.00    +0.022 C 
ATOM     11  C   UNL     1      -8.136 -10.274  15.041  0.00  0.00    +0.022 C 
ATOM     15  C   UNL     1     -10.720 -10.411  13.620  0.00  0.00    +0.002 C 
ATOM     16  C   UNL     1      -9.404 -10.745  15.749  0.00  0.00    +0.002 C 
ATOM     17  C   UNL     1     -10.657 -10.141  15.120  0.00  0.00    +0.000 C 
ENDBRANCH   2   7
BRANCH   4  18
ATOM     18  C   UNL     1      -1.429  -9.918  11.023  0.00  0.00    +0.119 C 
BRANCH  18  19
ATOM      5  N   UNL     1       1.658  -7.117  12.084  0.00  0.00    -0.263 NA
ATOM     19  C   UNL     1      -0.349  -8.937  11.393  0.00  0.00    -0.031 A 
ATOM     20  C   UNL     1       0.866  -8.947  10.717  0.00  0.00    +0.024 A 
ATOM     21  C   UNL     1      -0.561  -8.019  12.415  0.00  0.00    +0.024 A 
ATOM     22  C   UNL     1       1.828  -8.025  11.097  0.00  0.00    +0.111 A 
ATOM     23  C   UNL     1       0.464  -7.137  12.720  0.00  0.00    +0.111 A 
ENDBRANCH  18  19
ENDBRANCH   4  18
TORSDOF 3
ENDMDL
MODEL 4
REMARK VINA RESULT:      -0.4     15.235     16.246
REMARK  Name = 75537128
REMARK  3 active torsions:
REMARK  status: ('A' for Active; 'I' for Inactive)
REMARK    1  A    between atoms: N_2  and  C_7
REMARK    2  A    between atoms: N_4  and  C_18
REMARK    3  A    between atoms: C_18  and  C_19
REMARK                            x       y       z     vdW  Elec       q    Type
REMARK                         _______ _______ _______ _____ _____    ______ ____
ROOT
ATOM      1  O   UNL     1      -1.950  -0.472  26.482  0.00  0.00    -0.252 OA
ATOM      2  N   UNL     1      -2.589   1.078  24.822  0.00  0.00    -0.281 N 
ATOM      3  N   UNL     1      -0.918  -0.355  24.374  0.00  0.00    -0.278 N 
ATOM      4  N   UNL     1       1.140  -0.307  22.458  0.00  0.00    -0.295 NA
ATOM      6  C   UNL     1      -1.134   0.352  23.129  0.00  0.00    +0.109 C 
ATOM      8  C   UNL     1      -2.104   1.470  23.511  0.00  0.00    +0.133 C 
ATOM      9  C   UNL     1       0.198   0.827  22.550  0.00  0.00    +0.109 C 
ATOM     12  C   UNL     1      -1.836   0.018  25.366  0.00  0.00    +0.305 C 
ATOM     13  C   UNL     1       0.093  -1.389  24.436  0.00  0.00    +0.125 C 
ATOM     14  C   UNL     1       1.390  -0.892  23.791  0.00  0.00    +0.104 C 
ENDROOT
BRANCH   2   7
ATOM      7  C   UNL     1      -3.622   1.817  25.508  0.00  0.00    +0.078 C 
ATOM     10  C   UNL     1      -5.007   1.327  25.079  0.00  0.00    +0.022 C 
ATOM     11  C   UNL     1      -3.464   3.320  25.267  0.00  0.00    +0.022 C 
ATOM     15  C   UNL     1      -6.121   2.127  25.749  0.00  0.00    +0.002 C 
ATOM     16  C   UNL     1      -4.579   4.118  25.939  0.00  0.00    +0.002 C 
ATOM     17  C   UNL     1      -5.959   3.625  25.511  0.00  0.00    +0.000 C 
ENDBRANCH   2   7
BRANCH   4  18
ATOM     18  C   UNL     1       2.398   0.125  21.848  0.00  0.00    +0.119 C 
BRANCH  18  19
ATOM      5  N   UNL     1       5.755  -0.583  24.441  0.00  0.00    -0.263 NA
ATOM     19  C   UNL     1       3.574  -0.123  22.755  0.00  0.00    -0.031 A 
ATOM     20  C   UNL     1       3.792  -1.390  23.285  0.00  0.00    +0.024 A 
ATOM     21  C   UNL     1       4.444   0.914  23.067  0.00  0.00    +0.024 A 
ATOM     22  C   UNL     1       4.887  -1.566  24.115  0.00  0.00    +0.111 A 
ATOM     23  C   UNL     1       5.511   0.636  23.908  0.00  0.00    +0.111 A 
ENDBRANCH  18  19
ENDBRANCH   4  18
TORSDOF 3
ENDMDL
MODEL 5
REMARK VINA RESULT:       1.0     14.677     17.119
REMARK  Name = 75537128
REMARK  3 active torsions:
REMARK  status: ('A' for Active; 'I' for Inactive)
REMARK    1  A    between atoms: N_2  and  C_7
REMARK    2  A    between atoms: N_4  and  C_18
REMARK    3  A    between atoms: C_18  and  C_19
REMARK                            x       y       z     vdW  Elec       q    Type
REMARK                         _______ _______ _______ _____ _____    ______ ____
ROOT
ATOM      1  O   UNL     1      -0.272  -2.653  22.961  0.00  0.00    -0.252 OA
ATOM      2  N   UNL     1       0.356  -0.553  23.833  0.00  0.00    -0.281 N 
ATOM      3  N   UNL     1      -1.650  -1.397  24.390  0.00  0.00    -0.278 N 
ATOM      4  N   UNL     1      -3.984  -0.194  25.397  0.00  0.00    -0.295 NA
ATOM      6  C   UNL     1      -1.533  -0.188  25.178  0.00  0.00    +0.109 C 
ATOM      8  C   UNL     1      -0.280   0.487  24.622  0.00  0.00    +0.133 C 
ATOM      9  C   UNL     1      -2.811   0.642  25.071  0.00  0.00    +0.109 C 
ATOM     12  C   UNL     1      -0.493  -1.662  23.645  0.00  0.00    +0.305 C 
ATOM     13  C   UNL     1      -2.835  -2.218  24.523  0.00  0.00    +0.125 C 
ATOM     14  C   UNL     1      -4.088  -1.339  24.470  0.00  0.00    +0.104 C 
ENDROOT
BRANCH   2   7
ATOM      7  C   UNL     1       1.644  -0.362  23.212  0.00  0.00    +0.078 C 
ATOM     10  C   UNL     1       2.694  -1.265  23.864  0.00  0.00    +0.022 C 
ATOM     11  C   UNL     1       2.061   1.109  23.271  0.00  0.00    +0.022 C 
ATOM     15  C   UNL     1       4.079  -1.046  23.261  0.00  0.00    +0.002 C 
ATOM     16  C   UNL     1       3.447   1.326  22.667  0.00  0.00    +0.002 C 
ATOM     17  C   UNL     1       4.491   0.422  23.318  0.00  0.00    +0.000 C 
ENDBRANCH   2   7
BRANCH   4  18
ATOM     18  C   UNL     1      -5.208   0.607  25.357  0.00  0.00    +0.119 C 
BRANCH  18  19
ATOM      5  N   UNL     1      -4.388   4.729  24.447  0.00  0.00    -0.263 NA
ATOM     19  C   UNL     1      -4.922   2.050  25.037  0.00  0.00    -0.031 A 
ATOM     20  C   UNL     1      -4.226   2.385  23.881  0.00  0.00    +0.024 A 
ATOM     21  C   UNL     1      -5.350   3.053  25.899  0.00  0.00    +0.024 A 
ATOM     22  C   UNL     1      -3.987   3.727  23.634  0.00  0.00    +0.111 A 
ATOM     23  C   UNL     1      -5.060   4.366  25.562  0.00  0.00    +0.111 A 
ENDBRANCH  18  19
ENDBRANCH   4  18
TORSDOF 3
ENDMDL
MODEL 6
REMARK VINA RESULT:       1.6     14.543     17.044
REMARK  Name = 75537128
REMARK  3 active torsions:
REMARK  status: ('A' for Active; 'I' for Inactive)
REMARK    1  A    between atoms: N_2  and  C_7
REMARK    2  A    between atoms: N_4  and  C_18
REMARK    3  A    between atoms: C_18  and  C_19
REMARK                            x       y       z     vdW  Elec       q    Type
REMARK                         _______ _______ _______ _____ _____    ______ ____
ROOT
ATOM      1  O   UNL     1       1.983   2.392  24.456  0.00  0.00    -0.252 OA
ATOM      2  N   UNL     1       1.546   0.560  23.037  0.00  0.00    -0.281 N 
ATOM      3  N   UNL     1      -0.180   1.810  23.747  0.00  0.00    -0.278 N 
ATOM      4  N   UNL     1      -2.941   1.297  23.893  0.00  0.00    -0.295 NA
ATOM      6  C   UNL     1      -0.770   0.872  22.816  0.00  0.00    +0.109 C 
ATOM      8  C   UNL     1       0.364  -0.109  22.521  0.00  0.00    +0.133 C 
ATOM      9  C   UNL     1      -2.024   0.241  23.419  0.00  0.00    +0.109 C 
ATOM     12  C   UNL     1       1.214   1.681  23.824  0.00  0.00    +0.305 C 
ATOM     13  C   UNL     1      -1.021   2.798  24.388  0.00  0.00    +0.125 C 
ATOM     14  C   UNL     1      -2.293   2.134  24.924  0.00  0.00    +0.104 C 
ENDROOT
BRANCH   2   7
ATOM      7  C   UNL     1       2.870   0.014  22.863  0.00  0.00    +0.078 C 
ATOM     10  C   UNL     1       3.119  -1.119  23.862  0.00  0.00    +0.022 C 
ATOM     11  C   UNL     1       3.930   1.111  22.990  0.00  0.00    +0.022 C 
ATOM     15  C   UNL     1       4.533  -1.681  23.736  0.00  0.00    +0.002 C 
ATOM     16  C   UNL     1       5.343   0.546  22.864  0.00  0.00    +0.002 C 
ATOM     17  C   UNL     1       5.587  -0.585  23.860  0.00  0.00    +0.000 C 
ENDBRANCH   2   7
BRANCH   4  18
ATOM     18  C   UNL     1      -4.172   0.705  24.418  0.00  0.00    +0.119 C 
BRANCH  18  19
ATOM      5  N   UNL     1      -3.762  -3.529  25.048  0.00  0.00    -0.263 NA
ATOM     19  C   UNL     1      -4.029  -0.777  24.640  0.00  0.00    -0.031 A 
ATOM     20  C   UNL     1      -3.439  -1.256  25.804  0.00  0.00    +0.024 A 
ATOM     21  C   UNL     1      -4.486  -1.672  23.679  0.00  0.00    +0.024 A 
ATOM     22  C   UNL     1      -3.330  -2.628  25.959  0.00  0.00    +0.111 A 
ATOM     23  C   UNL     1      -4.330  -3.027  23.929  0.00  0.00    +0.111 A 
ENDBRANCH  18  19
ENDBRANCH   4  18
TORSDOF 3
ENDMDL
