MODEL 1
REMARK VINA RESULT:       3.2      0.000      0.000
REMARK  Name = 40777679
REMARK  10 active torsions:
REMARK  status: ('A' for Active; 'I' for Inactive)
REMARK    1  A    between atoms: O_5  and  C_29
REMARK    2  A    between atoms: N_7  and  C_12
REMARK    3  A    between atoms: N_8  and  C_21
REMARK    4  A    between atoms: C_10  and  C_13
REMARK    5  A    between atoms: C_16  and  C_18
REMARK    6  A    between atoms: C_17  and  C_19
REMARK    7  A    between atoms: C_20  and  C_22
REMARK    8  A    between atoms: C_22  and  C_25
REMARK    9  A    between atoms: C_25  and  C_29
REMARK   10  A    between atoms: C_28  and  C_30
REMARK                            x       y       z     vdW  Elec       q    Type
REMARK                         _______ _______ _______ _____ _____    ______ ____
ROOT
ATOM      8  N   UNL     1       1.075  -0.322  23.702  0.00  0.00    -0.236 N 
ATOM      9  N   UNL     1       0.418  -1.488  23.831  0.00  0.00    -0.171 NA
ATOM     13  C   UNL     1      -1.019   0.288  23.814  0.00  0.00    +0.003 A 
ATOM     16  C   UNL     1       0.260   0.771  23.688  0.00  0.00    +0.046 A 
ATOM     17  C   UNL     1      -0.862  -1.108  23.900  0.00  0.00    +0.064 A 
ATOM     18  C   UNL     1       0.761   2.155  23.556  0.00  0.00    +0.066 C 
ATOM     19  C   UNL     1      -1.913  -2.129  24.048  0.00  0.00    +0.068 C 
ENDROOT
BRANCH   8  21
ATOM     21  C   UNL     1       2.466  -0.320  23.599  0.00  0.00    +0.066 A 
ATOM     23  C   UNL     1       3.199  -1.434  24.007  0.00  0.00    +0.028 A 
ATOM     24  C   UNL     1       3.125   0.800  23.091  0.00  0.00    +0.028 A 
ATOM     26  C   UNL     1       4.590  -1.430  23.908  0.00  0.00    +0.014 A 
ATOM     27  C   UNL     1       4.517   0.804  22.992  0.00  0.00    +0.014 A 
ATOM     28  C   UNL     1       5.249  -0.310  23.401  0.00  0.00    +0.055 A 
BRANCH  28  30
ATOM      1  F   UNL     1       7.204  -0.849  22.132  0.00  0.00    -0.166 F 
ATOM      2  F   UNL     1       7.337  -1.013  24.297  0.00  0.00    -0.166 F 
ATOM      3  F   UNL     1       7.285   0.944  23.350  0.00  0.00    -0.166 F 
ATOM     30  C   UNL     1       6.737  -0.306  23.295  0.00  0.00    +0.417 C 
ENDBRANCH  28  30
ENDBRANCH   8  21
BRANCH  13  10
ATOM     10  C   UNL     1      -2.306   1.081  23.857  0.00  0.00    +0.047 C 
ATOM     11  C   UNL     1      -2.156   2.451  24.549  0.00  0.00    +0.039 C 
ATOM     12  C   UNL     1      -3.104   3.401  23.806  0.00  0.00    +0.097 C 
ATOM     14  C   UNL     1      -2.854   1.457  22.510  0.00  0.00    -0.021 C 
ATOM     15  C   UNL     1      -3.292   2.721  22.490  0.00  0.00    -0.009 C 
BRANCH  12   7
ATOM      4  O   UNL     1      -3.596   4.205  26.538  0.00  0.00    -0.276 OA
ATOM      7  N   UNL     1      -4.381   3.533  24.456  0.00  0.00    -0.309 N 
ATOM     20  C   UNL     1      -4.521   3.927  25.779  0.00  0.00    +0.214 C 
ATOM     31  H   UNL     1      -5.217   3.289  23.932  0.00  0.00    +0.149 HD
BRANCH  20  22
ATOM     22  C   UNL     1      -5.980   3.977  26.194  0.00  0.00    +0.107 C 
BRANCH  22  25
ATOM     25  C   UNL     1      -6.535   2.598  26.536  0.00  0.00    +0.129 C 
BRANCH  25  29
ATOM      6  O   UNL     1      -5.255   0.783  25.539  0.00  0.00    -0.251 OA
ATOM     29  C   UNL     1      -6.188   1.572  25.482  0.00  0.00    +0.305 C 
BRANCH  29   5
ATOM      5  O   UNL     1      -7.052   1.625  24.434  0.00  0.00    -0.481 OA
ATOM     32  H   UNL     1      -7.775   0.971  24.524  0.00  0.00    +0.295 HD
ENDBRANCH  29   5
ENDBRANCH  25  29
ENDBRANCH  22  25
ENDBRANCH  20  22
ENDBRANCH  12   7
ENDBRANCH  13  10
TORSDOF 8
ENDMDL
MODEL 2
REMARK VINA RESULT:       3.7      1.106      2.033
REMARK  Name = 40777679
REMARK  10 active torsions:
REMARK  status: ('A' for Active; 'I' for Inactive)
REMARK    1  A    between atoms: O_5  and  C_29
REMARK    2  A    between atoms: N_7  and  C_12
REMARK    3  A    between atoms: N_8  and  C_21
REMARK    4  A    between atoms: C_10  and  C_13
REMARK    5  A    between atoms: C_16  and  C_18
REMARK    6  A    between atoms: C_17  and  C_19
REMARK    7  A    between atoms: C_20  and  C_22
REMARK    8  A    between atoms: C_22  and  C_25
REMARK    9  A    between atoms: C_25  and  C_29
REMARK   10  A    between atoms: C_28  and  C_30
REMARK                            x       y       z     vdW  Elec       q    Type
REMARK                         _______ _______ _______ _____ _____    ______ ____
ROOT
ATOM      8  N   UNL     1       0.767  -0.526  23.968  0.00  0.00    -0.236 N 
ATOM      9  N   UNL     1       0.128  -1.700  23.828  0.00  0.00    -0.171 NA
ATOM     13  C   UNL     1      -1.311  -0.028  24.421  0.00  0.00    +0.003 A 
ATOM     16  C   UNL     1      -0.050   0.507  24.324  0.00  0.00    +0.046 A 
ATOM     17  C   UNL     1      -1.141  -1.389  24.106  0.00  0.00    +0.064 A 
ATOM     18  C   UNL     1       0.432   1.887  24.535  0.00  0.00    +0.066 C 
ATOM     19  C   UNL     1      -2.171  -2.441  24.057  0.00  0.00    +0.068 C 
ENDROOT
BRANCH   8  21
ATOM     21  C   UNL     1       2.144  -0.457  23.753  0.00  0.00    +0.066 A 
ATOM     23  C   UNL     1       2.959  -1.535  24.095  0.00  0.00    +0.028 A 
ATOM     24  C   UNL     1       2.705   0.694  23.198  0.00  0.00    +0.028 A 
ATOM     26  C   UNL     1       4.336  -1.464  23.883  0.00  0.00    +0.014 A 
ATOM     27  C   UNL     1       4.082   0.765  22.987  0.00  0.00    +0.014 A 
ATOM     28  C   UNL     1       4.898  -0.313  23.329  0.00  0.00    +0.055 A 
BRANCH  28  30
ATOM      1  F   UNL     1       6.746  -0.569  21.833  0.00  0.00    -0.166 F 
ATOM      2  F   UNL     1       7.071  -1.074  23.922  0.00  0.00    -0.166 F 
ATOM      3  F   UNL     1       6.892   1.006  23.316  0.00  0.00    -0.166 F 
ATOM     30  C   UNL     1       6.370  -0.238  23.103  0.00  0.00    +0.417 C 
ENDBRANCH  28  30
ENDBRANCH   8  21
BRANCH  13  10
ATOM     10  C   UNL     1      -2.592   0.687  24.788  0.00  0.00    +0.047 C 
ATOM     11  C   UNL     1      -3.516   0.943  23.580  0.00  0.00    +0.039 C 
ATOM     12  C   UNL     1      -4.948   0.818  24.114  0.00  0.00    +0.097 C 
ATOM     14  C   UNL     1      -3.487  -0.073  25.724  0.00  0.00    -0.021 C 
ATOM     15  C   UNL     1      -4.770   0.006  25.355  0.00  0.00    -0.009 C 
BRANCH  12   7
ATOM      4  O   UNL     1      -6.170   1.550  26.628  0.00  0.00    -0.276 OA
ATOM      7  N   UNL     1      -5.525   2.089  24.461  0.00  0.00    -0.309 N 
ATOM     20  C   UNL     1      -6.093   2.351  25.700  0.00  0.00    +0.214 C 
ATOM     31  H   UNL     1      -5.551   2.818  23.753  0.00  0.00    +0.149 HD
BRANCH  20  22
ATOM     22  C   UNL     1      -6.621   3.771  25.782  0.00  0.00    +0.107 C 
BRANCH  22  25
ATOM     25  C   UNL     1      -5.565   4.807  25.412  0.00  0.00    +0.129 C 
BRANCH  25  29
ATOM      6  O   UNL     1      -3.586   3.838  26.446  0.00  0.00    -0.251 OA
ATOM     29  C   UNL     1      -4.169   4.228  25.444  0.00  0.00    +0.305 C 
BRANCH  29   5
ATOM      5  O   UNL     1      -3.621   4.185  24.202  0.00  0.00    -0.481 OA
ATOM     32  H   UNL     1      -2.680   4.461  24.208  0.00  0.00    +0.295 HD
ENDBRANCH  29   5
ENDBRANCH  25  29
ENDBRANCH  22  25
ENDBRANCH  20  22
ENDBRANCH  12   7
ENDBRANCH  13  10
TORSDOF 8
ENDMDL
MODEL 3
REMARK VINA RESULT:       7.1      1.554      2.757
REMARK  Name = 40777679
REMARK  10 active torsions:
REMARK  status: ('A' for Active; 'I' for Inactive)
REMARK    1  A    between atoms: O_5  and  C_29
REMARK    2  A    between atoms: N_7  and  C_12
REMARK    3  A    between atoms: N_8  and  C_21
REMARK    4  A    between atoms: C_10  and  C_13
REMARK    5  A    between atoms: C_16  and  C_18
REMARK    6  A    between atoms: C_17  and  C_19
REMARK    7  A    between atoms: C_20  and  C_22
REMARK    8  A    between atoms: C_22  and  C_25
REMARK    9  A    between atoms: C_25  and  C_29
REMARK   10  A    between atoms: C_28  and  C_30
REMARK                            x       y       z     vdW  Elec       q    Type
REMARK                         _______ _______ _______ _____ _____    ______ ____
ROOT
ATOM      8  N   UNL     1       1.460   0.995  23.897  0.00  0.00    -0.236 N 
ATOM      9  N   UNL     1       1.198   2.312  23.844  0.00  0.00    -0.171 NA
ATOM     13  C   UNL     1      -0.660   1.110  24.411  0.00  0.00    +0.003 A 
ATOM     16  C   UNL     1       0.379   0.231  24.230  0.00  0.00    +0.046 A 
ATOM     17  C   UNL     1      -0.098   2.377  24.159  0.00  0.00    +0.064 A 
ATOM     18  C   UNL     1       0.431  -1.240  24.347  0.00  0.00    +0.066 C 
ATOM     19  C   UNL     1      -0.767   3.688  24.207  0.00  0.00    +0.068 C 
ENDROOT
BRANCH   8  21
ATOM     21  C   UNL     1       2.747   0.532  23.619  0.00  0.00    +0.066 A 
ATOM     23  C   UNL     1       3.094  -0.786  23.915  0.00  0.00    +0.028 A 
ATOM     24  C   UNL     1       3.688   1.391  23.051  0.00  0.00    +0.028 A 
ATOM     26  C   UNL     1       4.382  -1.246  23.642  0.00  0.00    +0.014 A 
ATOM     27  C   UNL     1       4.976   0.931  22.778  0.00  0.00    +0.014 A 
ATOM     28  C   UNL     1       5.324  -0.387  23.073  0.00  0.00    +0.055 A 
BRANCH  28  30
ATOM      1  F   UNL     1       7.679  -0.191  23.438  0.00  0.00    -0.166 F 
ATOM      2  F   UNL     1       7.019  -0.797  21.457  0.00  0.00    -0.166 F 
ATOM      3  F   UNL     1       6.896  -2.188  23.123  0.00  0.00    -0.166 F 
ATOM     30  C   UNL     1       6.700  -0.880  22.781  0.00  0.00    +0.417 C 
ENDBRANCH  28  30
ENDBRANCH   8  21
BRANCH  13  10
ATOM     10  C   UNL     1      -2.087   0.787  24.790  0.00  0.00    +0.047 C 
ATOM     11  C   UNL     1      -3.017   0.608  23.572  0.00  0.00    +0.039 C 
ATOM     12  C   UNL     1      -4.025  -0.477  23.971  0.00  0.00    +0.097 C 
ATOM     14  C   UNL     1      -2.262  -0.511  25.523  0.00  0.00    -0.021 C 
ATOM     15  C   UNL     1      -3.322  -1.194  25.076  0.00  0.00    -0.009 C 
BRANCH  12   7
ATOM      4  O   UNL     1      -4.882   2.281  23.870  0.00  0.00    -0.276 OA
ATOM      7  N   UNL     1      -5.259   0.068  24.472  0.00  0.00    -0.309 N 
ATOM     20  C   UNL     1      -5.586   1.414  24.378  0.00  0.00    +0.214 C 
ATOM     31  H   UNL     1      -5.904  -0.555  24.950  0.00  0.00    +0.149 HD
BRANCH  20  22
ATOM     22  C   UNL     1      -6.945   1.700  24.991  0.00  0.00    +0.107 C 
BRANCH  22  25
ATOM     25  C   UNL     1      -6.839   2.436  26.323  0.00  0.00    +0.129 C 
BRANCH  25  29
ATOM      6  O   UNL     1      -4.700   3.577  26.543  0.00  0.00    -0.251 OA
ATOM     29  C   UNL     1      -5.886   3.607  26.247  0.00  0.00    +0.305 C 
BRANCH  29   5
ATOM      5  O   UNL     1      -6.512   4.728  25.801  0.00  0.00    -0.481 OA
ATOM     32  H   UNL     1      -7.445   4.768  26.097  0.00  0.00    +0.295 HD
ENDBRANCH  29   5
ENDBRANCH  25  29
ENDBRANCH  22  25
ENDBRANCH  20  22
ENDBRANCH  12   7
ENDBRANCH  13  10
TORSDOF 8
ENDMDL
