MODEL 1
REMARK VINA RESULT:      -1.7      0.000      0.000
REMARK  Name = 45783543
REMARK  11 active torsions:
REMARK  status: ('A' for Active; 'I' for Inactive)
REMARK    1  A    between atoms: O_2  and  C_26
REMARK    2  A    between atoms: O_3  and  C_28
REMARK    3  A    between atoms: O_3  and  C_29
REMARK    4  A    between atoms: O_5  and  C_30
REMARK    5  A    between atoms: O_5  and  C_31
REMARK    6  A    between atoms: N_6  and  C_14
REMARK    7  A    between atoms: C_10  and  C_15
REMARK    8  A    between atoms: C_14  and  C_16
REMARK    9  A    between atoms: C_19  and  C_23
REMARK   10  A    between atoms: C_22  and  C_26
REMARK   11  A    between atoms: C_29  and  C_30
REMARK                            x       y       z     vdW  Elec       q    Type
REMARK                         _______ _______ _______ _____ _____    ______ ____
ROOT
ATOM      6  N   UNL     1      -5.428   2.480  25.522  0.00  0.00    -0.287 NA
ATOM     10  C   UNL     1      -4.573   3.093  24.485  0.00  0.00    +0.146 C 
ATOM     11  C   UNL     1      -4.804   4.609  24.635  0.00  0.00    +0.030 C 
ATOM     12  C   UNL     1      -5.846   4.745  25.736  0.00  0.00    +0.017 C 
ATOM     13  C   UNL     1      -6.545   3.400  25.735  0.00  0.00    +0.085 C 
ENDROOT
BRANCH  10  15
ATOM      1  O   UNL     1      -2.527   2.993  25.819  0.00  0.00    -0.336 OA
ATOM      7  N   UNL     1      -2.324   2.127  23.762  0.00  0.00    -0.190 NA
ATOM      8  N   UNL     1      -1.203   2.549  25.712  0.00  0.00    -0.056 NA
ATOM     15  C   UNL     1      -3.117   2.706  24.628  0.00  0.00    +0.245 A 
ATOM     19  C   UNL     1      -1.161   2.051  24.473  0.00  0.00    +0.204 A 
BRANCH  19  23
ATOM      9  N   UNL     1       2.403   1.626  23.499  0.00  0.00    -0.221 NA
ATOM     23  C   UNL     1       0.027   1.471  23.915  0.00  0.00    +0.041 A 
ATOM     24  C   UNL     1      -0.014   0.242  23.266  0.00  0.00    +0.018 A 
ATOM     25  C   UNL     1       1.249   2.118  24.003  0.00  0.00    +0.126 A 
ATOM     27  C   UNL     1       1.153  -0.297  22.735  0.00  0.00    +0.068 A 
ATOM     28  C   UNL     1       2.325   0.429  22.875  0.00  0.00    +0.215 A 
BRANCH  28   3
ATOM      3  O   UNL     1       3.488  -0.080  22.360  0.00  0.00    -0.474 OA
BRANCH   3  29
ATOM     29  C   UNL     1       4.662   0.704  22.534  0.00  0.00    +0.258 C 
BRANCH  29  30
ATOM     30  C   UNL     1       5.743  -0.155  23.160  0.00  0.00    +0.200 C 
BRANCH  30   5
ATOM      5  O   UNL     1       5.225  -0.769  24.334  0.00  0.00    -0.380 OA
ATOM     31  C   UNL     1       4.681  -2.052  24.052  0.00  0.00    +0.194 C 
ENDBRANCH  30   5
ENDBRANCH  29  30
ENDBRANCH   3  29
ENDBRANCH  28   3
ENDBRANCH  19  23
ENDBRANCH  10  15
BRANCH   6  14
ATOM     14  C   UNL     1      -5.882   1.140  25.172  0.00  0.00    +0.120 C 
BRANCH  14  16
ATOM     16  C   UNL     1      -4.733   0.175  25.041  0.00  0.00    -0.033 A 
ATOM     17  C   UNL     1      -3.904  -0.073  26.135  0.00  0.00    +0.006 A 
ATOM     18  C   UNL     1      -4.498  -0.471  23.827  0.00  0.00    +0.006 A 
ATOM     20  C   UNL     1      -2.840  -0.967  26.014  0.00  0.00    +0.015 A 
ATOM     21  C   UNL     1      -3.434  -1.364  23.707  0.00  0.00    +0.015 A 
ATOM     22  C   UNL     1      -2.605  -1.613  24.800  0.00  0.00    +0.059 A 
BRANCH  22  26
ATOM      4  O   UNL     1      -0.498  -2.574  25.403  0.00  0.00    -0.245 OA
ATOM     26  C   UNL     1      -1.496  -2.545  24.675  0.00  0.00    +0.337 C 
BRANCH  26   2
ATOM      2  O   UNL     1      -1.664  -3.417  23.644  0.00  0.00    -0.477 OA
ATOM     32  H   UNL     1      -1.055  -4.184  23.711  0.00  0.00    +0.295 HD
ENDBRANCH  26   2
ENDBRANCH  22  26
ENDBRANCH  14  16
ENDBRANCH   6  14
TORSDOF 10
ENDMDL
MODEL 2
REMARK VINA RESULT:       0.2      1.888      4.096
REMARK  Name = 45783543
REMARK  11 active torsions:
REMARK  status: ('A' for Active; 'I' for Inactive)
REMARK    1  A    between atoms: O_2  and  C_26
REMARK    2  A    between atoms: O_3  and  C_28
REMARK    3  A    between atoms: O_3  and  C_29
REMARK    4  A    between atoms: O_5  and  C_30
REMARK    5  A    between atoms: O_5  and  C_31
REMARK    6  A    between atoms: N_6  and  C_14
REMARK    7  A    between atoms: C_10  and  C_15
REMARK    8  A    between atoms: C_14  and  C_16
REMARK    9  A    between atoms: C_19  and  C_23
REMARK   10  A    between atoms: C_22  and  C_26
REMARK   11  A    between atoms: C_29  and  C_30
REMARK                            x       y       z     vdW  Elec       q    Type
REMARK                         _______ _______ _______ _____ _____    ______ ____
ROOT
ATOM      6  N   UNL     1      -4.647  -0.587  24.119  0.00  0.00    -0.287 NA
ATOM     10  C   UNL     1      -3.705  -1.081  25.144  0.00  0.00    +0.146 C 
ATOM     11  C   UNL     1      -3.682  -2.609  24.950  0.00  0.00    +0.030 C 
ATOM     12  C   UNL     1      -4.684  -2.883  23.838  0.00  0.00    +0.017 C 
ATOM     13  C   UNL     1      -5.595  -1.673  23.872  0.00  0.00    +0.085 C 
ENDROOT
BRANCH  10  15
ATOM      1  O   UNL     1      -1.973   0.414  26.004  0.00  0.00    -0.336 OA
ATOM      7  N   UNL     1      -1.420  -0.625  24.098  0.00  0.00    -0.190 NA
ATOM      8  N   UNL     1      -0.684   0.856  25.679  0.00  0.00    -0.056 NA
ATOM     15  C   UNL     1      -2.332  -0.454  25.023  0.00  0.00    +0.245 A 
ATOM     19  C   UNL     1      -0.428   0.199  24.544  0.00  0.00    +0.204 A 
BRANCH  19  23
ATOM      9  N   UNL     1       2.808   1.633  23.403  0.00  0.00    -0.221 NA
ATOM     23  C   UNL     1       0.809   0.343  23.832  0.00  0.00    +0.041 A 
ATOM     24  C   UNL     1       1.218  -0.613  22.909  0.00  0.00    +0.018 A 
ATOM     25  C   UNL     1       1.632   1.438  24.041  0.00  0.00    +0.126 A 
ATOM     27  C   UNL     1       2.422  -0.448  22.233  0.00  0.00    +0.068 A 
ATOM     28  C   UNL     1       3.173   0.683  22.513  0.00  0.00    +0.215 A 
BRANCH  28   3
ATOM      3  O   UNL     1       4.364   0.869  21.860  0.00  0.00    -0.474 OA
BRANCH   3  29
ATOM     29  C   UNL     1       5.487   0.155  22.360  0.00  0.00    +0.258 C 
BRANCH  29  30
ATOM     30  C   UNL     1       5.746   0.579  23.793  0.00  0.00    +0.200 C 
BRANCH  30   5
ATOM      5  O   UNL     1       5.479  -0.518  24.657  0.00  0.00    -0.380 OA
ATOM     31  C   UNL     1       5.105  -1.678  23.924  0.00  0.00    +0.194 C 
ENDBRANCH  30   5
ENDBRANCH  29  30
ENDBRANCH   3  29
ENDBRANCH  28   3
ENDBRANCH  19  23
ENDBRANCH  10  15
BRANCH   6  14
ATOM     14  C   UNL     1      -5.316   0.649  24.503  0.00  0.00    +0.120 C 
BRANCH  14  16
ATOM     16  C   UNL     1      -4.350   1.799  24.615  0.00  0.00    -0.033 A 
ATOM     17  C   UNL     1      -4.357   2.606  25.753  0.00  0.00    +0.006 A 
ATOM     18  C   UNL     1      -3.449   2.057  23.582  0.00  0.00    +0.006 A 
ATOM     20  C   UNL     1      -3.462   3.671  25.858  0.00  0.00    +0.015 A 
ATOM     21  C   UNL     1      -2.555   3.122  23.687  0.00  0.00    +0.015 A 
ATOM     22  C   UNL     1      -2.561   3.929  24.825  0.00  0.00    +0.059 A 
BRANCH  22  26
ATOM      4  O   UNL     1      -1.914   6.182  25.306  0.00  0.00    -0.245 OA
ATOM     26  C   UNL     1      -1.628   5.039  24.934  0.00  0.00    +0.337 C 
BRANCH  26   2
ATOM      2  O   UNL     1      -0.361   4.691  24.577  0.00  0.00    -0.477 OA
ATOM     32  H   UNL     1       0.205   5.477  24.422  0.00  0.00    +0.295 HD
ENDBRANCH  26   2
ENDBRANCH  22  26
ENDBRANCH  14  16
ENDBRANCH   6  14
TORSDOF 10
ENDMDL
