MODEL 1
REMARK VINA RESULT:      -4.4      0.000      0.000
REMARK  Name = 75537139
REMARK  7 active torsions:
REMARK  status: ('A' for Active; 'I' for Inactive)
REMARK    1  A    between atoms: O_2  and  C_15
REMARK    2  A    between atoms: O_2  and  C_22
REMARK    3  A    between atoms: N_4  and  C_12
REMARK    4  A    between atoms: N_5  and  C_13
REMARK    5  A    between atoms: C_12  and  C_14
REMARK    6  A    between atoms: C_13  and  C_15
REMARK    7  A    between atoms: C_16  and  C_19
REMARK                            x       y       z     vdW  Elec       q    Type
REMARK                         _______ _______ _______ _____ _____    ______ ____
ROOT
ATOM      1  O   UNL     1       1.241  -1.010  22.371  0.00  0.00    -0.252 OA
ATOM      3  N   UNL     1      -0.390  -0.508  23.985  0.00  0.00    -0.278 N 
ATOM      4  N   UNL     1      -2.936  -0.252  25.154  0.00  0.00    -0.295 NA
ATOM      5  N   UNL     1       1.266   0.972  23.649  0.00  0.00    -0.281 N 
ATOM      6  C   UNL     1      -0.600   0.508  24.996  0.00  0.00    +0.109 C 
ATOM      7  C   UNL     1      -2.067   0.935  25.023  0.00  0.00    +0.109 C 
ATOM      8  C   UNL     1       0.383   1.612  24.610  0.00  0.00    +0.133 C 
ATOM      9  C   UNL     1      -1.282  -1.647  23.930  0.00  0.00    +0.125 C 
ATOM     10  C   UNL     1      -2.736  -1.178  24.020  0.00  0.00    +0.104 C 
ATOM     11  C   UNL     1       0.767  -0.278  23.229  0.00  0.00    +0.305 C 
ENDROOT
BRANCH   4  12
ATOM     12  C   UNL     1      -4.339   0.151  25.241  0.00  0.00    +0.120 C 
BRANCH  12  14
ATOM     14  C   UNL     1      -4.511   1.631  25.027  0.00  0.00    -0.030 A 
ATOM     16  C   UNL     1      -5.450   2.358  25.758  0.00  0.00    -0.046 A 
ATOM     17  C   UNL     1      -3.716   2.276  24.079  0.00  0.00    +0.005 A 
ATOM     18  C   UNL     1      -5.593   3.728  25.544  0.00  0.00    +0.003 A 
ATOM     19  C   UNL     1      -6.313   1.690  26.779  0.00  0.00    +0.044 C 
ATOM     20  C   UNL     1      -3.858   3.646  23.864  0.00  0.00    +0.000 A 
ATOM     21  C   UNL     1      -4.797   4.373  24.596  0.00  0.00    +0.000 A 
ENDBRANCH  12  14
ENDBRANCH   4  12
BRANCH   5  13
ATOM     13  C   UNL     1       2.423   1.646  23.104  0.00  0.00    +0.137 C 
BRANCH  13  15
ATOM     15  C   UNL     1       3.518   0.663  22.732  0.00  0.00    +0.178 C 
BRANCH  15   2
ATOM      2  O   UNL     1       4.695   0.967  23.469  0.00  0.00    -0.381 OA
ATOM     22  C   UNL     1       5.407  -0.212  23.822  0.00  0.00    +0.194 C 
ENDBRANCH  15   2
ENDBRANCH  13  15
ENDBRANCH   5  13
TORSDOF 5
ENDMDL
MODEL 2
REMARK VINA RESULT:      -4.0      2.741      7.900
REMARK  Name = 75537139
REMARK  7 active torsions:
REMARK  status: ('A' for Active; 'I' for Inactive)
REMARK    1  A    between atoms: O_2  and  C_15
REMARK    2  A    between atoms: O_2  and  C_22
REMARK    3  A    between atoms: N_4  and  C_12
REMARK    4  A    between atoms: N_5  and  C_13
REMARK    5  A    between atoms: C_12  and  C_14
REMARK    6  A    between atoms: C_13  and  C_15
REMARK    7  A    between atoms: C_16  and  C_19
REMARK                            x       y       z     vdW  Elec       q    Type
REMARK                         _______ _______ _______ _____ _____    ______ ____
ROOT
ATOM      1  O   UNL     1      -2.595   3.603  25.469  0.00  0.00    -0.252 OA
ATOM      3  N   UNL     1      -1.309   1.773  24.750  0.00  0.00    -0.278 N 
ATOM      4  N   UNL     1       0.801   0.360  23.540  0.00  0.00    -0.295 NA
ATOM      5  N   UNL     1      -3.535   1.688  24.462  0.00  0.00    -0.281 N 
ATOM      6  C   UNL     1      -1.558   0.442  24.235  0.00  0.00    +0.109 C 
ATOM      7  C   UNL     1      -0.588   0.122  23.100  0.00  0.00    +0.109 C 
ATOM      8  C   UNL     1      -3.031   0.480  23.831  0.00  0.00    +0.133 C 
ATOM      9  C   UNL     1       0.047   2.164  25.075  0.00  0.00    +0.125 C 
ATOM     10  C   UNL     1       0.991   1.771  23.938  0.00  0.00    +0.104 C 
ATOM     11  C   UNL     1      -2.492   2.494  24.962  0.00  0.00    +0.305 C 
ENDROOT
BRANCH   4  12
ATOM     12  C   UNL     1       1.741  -0.001  22.480  0.00  0.00    +0.120 C 
BRANCH  12  14
ATOM     14  C   UNL     1       3.128  -0.238  23.018  0.00  0.00    -0.030 A 
ATOM     16  C   UNL     1       4.113   0.744  22.920  0.00  0.00    -0.046 A 
ATOM     17  C   UNL     1       3.420  -1.462  23.619  0.00  0.00    +0.005 A 
ATOM     18  C   UNL     1       5.390   0.504  23.425  0.00  0.00    +0.003 A 
ATOM     19  C   UNL     1       3.823   2.063  22.281  0.00  0.00    +0.044 C 
ATOM     20  C   UNL     1       4.698  -1.703  24.124  0.00  0.00    +0.000 A 
ATOM     21  C   UNL     1       5.683  -0.721  24.027  0.00  0.00    +0.000 A 
ENDBRANCH  12  14
ENDBRANCH   4  12
BRANCH   5  13
ATOM     13  C   UNL     1      -4.935   2.049  24.420  0.00  0.00    +0.137 C 
BRANCH  13  15
ATOM     15  C   UNL     1      -5.643   1.689  25.713  0.00  0.00    +0.178 C 
BRANCH  15   2
ATOM      2  O   UNL     1      -5.874   2.871  26.469  0.00  0.00    -0.381 OA
ATOM     22  C   UNL     1      -5.854   4.029  25.644  0.00  0.00    +0.194 C 
ENDBRANCH  15   2
ENDBRANCH  13  15
ENDBRANCH   5  13
TORSDOF 5
ENDMDL
MODEL 3
REMARK VINA RESULT:      -3.5      1.467      2.418
REMARK  Name = 75537139
REMARK  7 active torsions:
REMARK  status: ('A' for Active; 'I' for Inactive)
REMARK    1  A    between atoms: O_2  and  C_15
REMARK    2  A    between atoms: O_2  and  C_22
REMARK    3  A    between atoms: N_4  and  C_12
REMARK    4  A    between atoms: N_5  and  C_13
REMARK    5  A    between atoms: C_12  and  C_14
REMARK    6  A    between atoms: C_13  and  C_15
REMARK    7  A    between atoms: C_16  and  C_19
REMARK                            x       y       z     vdW  Elec       q    Type
REMARK                         _______ _______ _______ _____ _____    ______ ____
ROOT
ATOM      1  O   UNL     1       0.512  -1.499  23.854  0.00  0.00    -0.252 OA
ATOM      3  N   UNL     1      -0.061   0.608  24.717  0.00  0.00    -0.278 N 
ATOM      4  N   UNL     1      -1.681   2.751  25.554  0.00  0.00    -0.295 NA
ATOM      5  N   UNL     1       1.626   0.487  23.240  0.00  0.00    -0.281 N 
ATOM      6  C   UNL     1       0.470   1.955  24.662  0.00  0.00    +0.109 C 
ATOM      7  C   UNL     1      -0.663   2.967  24.506  0.00  0.00    +0.109 C 
ATOM      8  C   UNL     1       1.454   1.907  23.494  0.00  0.00    +0.133 C 
ATOM      9  C   UNL     1      -1.167   0.319  25.608  0.00  0.00    +0.125 C 
ATOM     10  C   UNL     1      -2.250   1.390  25.462  0.00  0.00    +0.104 C 
ATOM     11  C   UNL     1       0.673  -0.289  23.931  0.00  0.00    +0.305 C 
ENDROOT
BRANCH   4  12
ATOM     12  C   UNL     1      -2.741   3.753  25.450  0.00  0.00    +0.120 C 
BRANCH  12  14
ATOM     14  C   UNL     1      -4.102   3.119  25.334  0.00  0.00    -0.030 A 
ATOM     16  C   UNL     1      -4.579   2.664  24.105  0.00  0.00    -0.046 A 
ATOM     17  C   UNL     1      -4.890   2.992  26.478  0.00  0.00    +0.005 A 
ATOM     18  C   UNL     1      -5.842   2.079  24.020  0.00  0.00    +0.003 A 
ATOM     19  C   UNL     1      -3.753   2.789  22.866  0.00  0.00    +0.044 C 
ATOM     20  C   UNL     1      -6.154   2.407  26.393  0.00  0.00    +0.000 A 
ATOM     21  C   UNL     1      -6.630   1.952  25.164  0.00  0.00    +0.000 A 
ENDBRANCH  12  14
ENDBRANCH   4  12
BRANCH   5  13
ATOM     13  C   UNL     1       2.574  -0.008  22.267  0.00  0.00    +0.137 C 
BRANCH  13  15
ATOM     15  C   UNL     1       3.840   0.829  22.245  0.00  0.00    +0.178 C 
BRANCH  15   2
ATOM      2  O   UNL     1       4.470   0.765  23.518  0.00  0.00    -0.381 OA
ATOM     22  C   UNL     1       5.334  -0.359  23.616  0.00  0.00    +0.194 C 
ENDBRANCH  15   2
ENDBRANCH  13  15
ENDBRANCH   5  13
TORSDOF 5
ENDMDL
MODEL 4
REMARK VINA RESULT:      -3.0      3.158      5.464
REMARK  Name = 75537139
REMARK  7 active torsions:
REMARK  status: ('A' for Active; 'I' for Inactive)
REMARK    1  A    between atoms: O_2  and  C_15
REMARK    2  A    between atoms: O_2  and  C_22
REMARK    3  A    between atoms: N_4  and  C_12
REMARK    4  A    between atoms: N_5  and  C_13
REMARK    5  A    between atoms: C_12  and  C_14
REMARK    6  A    between atoms: C_13  and  C_15
REMARK    7  A    between atoms: C_16  and  C_19
REMARK                            x       y       z     vdW  Elec       q    Type
REMARK                         _______ _______ _______ _____ _____    ______ ____
ROOT
ATOM      1  O   UNL     1      -3.616   4.960  26.844  0.00  0.00    -0.252 OA
ATOM      3  N   UNL     1      -4.267   3.242  25.381  0.00  0.00    -0.278 N 
ATOM      4  N   UNL     1      -5.148   0.708  24.534  0.00  0.00    -0.295 NA
ATOM      5  N   UNL     1      -2.451   4.455  24.857  0.00  0.00    -0.281 N 
ATOM      6  C   UNL     1      -3.878   2.765  24.070  0.00  0.00    +0.109 C 
ATOM      7  C   UNL     1      -3.859   1.237  24.045  0.00  0.00    +0.109 C 
ATOM      8  C   UNL     1      -2.523   3.429  23.831  0.00  0.00    +0.133 C 
ATOM      9  C   UNL     1      -5.438   2.679  26.022  0.00  0.00    +0.125 C 
ATOM     10  C   UNL     1      -5.407   1.153  25.920  0.00  0.00    +0.104 C 
ATOM     11  C   UNL     1      -3.467   4.304  25.822  0.00  0.00    +0.305 C 
ENDROOT
BRANCH   4  12
ATOM     12  C   UNL     1      -5.162  -0.752  24.457  0.00  0.00    +0.120 C 
BRANCH  12  14
ATOM     14  C   UNL     1      -3.794  -1.338  24.686  0.00  0.00    -0.030 A 
ATOM     16  C   UNL     1      -3.430  -2.556  24.112  0.00  0.00    -0.046 A 
ATOM     17  C   UNL     1      -2.885  -0.645  25.485  0.00  0.00    +0.005 A 
ATOM     18  C   UNL     1      -2.157  -3.080  24.336  0.00  0.00    +0.003 A 
ATOM     19  C   UNL     1      -4.385  -3.316  23.251  0.00  0.00    +0.044 C 
ATOM     20  C   UNL     1      -1.612  -1.169  25.710  0.00  0.00    +0.000 A 
ATOM     21  C   UNL     1      -1.248  -2.387  25.136  0.00  0.00    +0.000 A 
ENDBRANCH  12  14
ENDBRANCH   4  12
BRANCH   5  13
ATOM     13  C   UNL     1      -1.359   5.400  24.920  0.00  0.00    +0.137 C 
BRANCH  13  15
ATOM     15  C   UNL     1      -0.013   4.706  24.816  0.00  0.00    +0.178 C 
BRANCH  15   2
ATOM      2  O   UNL     1      -0.002   3.569  25.670  0.00  0.00    -0.381 OA
ATOM     22  C   UNL     1       0.303   2.381  24.951  0.00  0.00    +0.194 C 
ENDBRANCH  15   2
ENDBRANCH  13  15
ENDBRANCH   5  13
TORSDOF 5
ENDMDL
MODEL 5
REMARK VINA RESULT:      -2.6      1.599      2.625
REMARK  Name = 75537139
REMARK  7 active torsions:
REMARK  status: ('A' for Active; 'I' for Inactive)
REMARK    1  A    between atoms: O_2  and  C_15
REMARK    2  A    between atoms: O_2  and  C_22
REMARK    3  A    between atoms: N_4  and  C_12
REMARK    4  A    between atoms: N_5  and  C_13
REMARK    5  A    between atoms: C_12  and  C_14
REMARK    6  A    between atoms: C_13  and  C_15
REMARK    7  A    between atoms: C_16  and  C_19
REMARK                            x       y       z     vdW  Elec       q    Type
REMARK                         _______ _______ _______ _____ _____    ______ ____
ROOT
ATOM      1  O   UNL     1       3.346   1.997  23.116  0.00  0.00    -0.252 OA
ATOM      3  N   UNL     1       1.107   1.402  23.504  0.00  0.00    -0.278 N 
ATOM      4  N   UNL     1      -1.407   1.319  24.763  0.00  0.00    -0.295 NA
ATOM      5  N   UNL     1       2.554  -0.217  22.927  0.00  0.00    -0.281 N 
ATOM      6  C   UNL     1       0.287   0.217  23.359  0.00  0.00    +0.109 C 
ATOM      7  C   UNL     1      -0.649   0.068  24.557  0.00  0.00    +0.109 C 
ATOM      8  C   UNL     1       1.305  -0.910  23.195  0.00  0.00    +0.133 C 
ATOM      9  C   UNL     1       0.480   2.659  23.855  0.00  0.00    +0.125 C 
ATOM     10  C   UNL     1      -0.492   2.452  25.018  0.00  0.00    +0.104 C 
ATOM     11  C   UNL     1       2.448   1.167  23.171  0.00  0.00    +0.305 C 
ENDROOT
BRANCH   4  12
ATOM     12  C   UNL     1      -2.349   1.167  25.871  0.00  0.00    +0.120 C 
BRANCH  12  14
ATOM     14  C   UNL     1      -3.701   1.742  25.539  0.00  0.00    -0.030 A 
ATOM     16  C   UNL     1      -4.691   0.954  24.951  0.00  0.00    -0.046 A 
ATOM     17  C   UNL     1      -3.956   3.083  25.826  0.00  0.00    +0.005 A 
ATOM     18  C   UNL     1      -5.936   1.506  24.651  0.00  0.00    +0.003 A 
ATOM     19  C   UNL     1      -4.441  -0.484  24.634  0.00  0.00    +0.044 C 
ATOM     20  C   UNL     1      -5.201   3.635  25.527  0.00  0.00    +0.000 A 
ATOM     21  C   UNL     1      -6.191   2.848  24.939  0.00  0.00    +0.000 A 
ENDBRANCH  12  14
ENDBRANCH   4  12
BRANCH   5  13
ATOM     13  C   UNL     1       3.770  -0.927  22.600  0.00  0.00    +0.137 C 
BRANCH  13  15
ATOM     15  C   UNL     1       4.373  -1.594  23.823  0.00  0.00    +0.178 C 
BRANCH  15   2
ATOM      2  O   UNL     1       5.341  -0.729  24.404  0.00  0.00    -0.381 OA
ATOM     22  C   UNL     1       6.014   0.038  23.414  0.00  0.00    +0.194 C 
ENDBRANCH  15   2
ENDBRANCH  13  15
ENDBRANCH   5  13
TORSDOF 5
ENDMDL
MODEL 6
REMARK VINA RESULT:      -2.4      2.037      3.879
REMARK  Name = 75537139
REMARK  7 active torsions:
REMARK  status: ('A' for Active; 'I' for Inactive)
REMARK    1  A    between atoms: O_2  and  C_15
REMARK    2  A    between atoms: O_2  and  C_22
REMARK    3  A    between atoms: N_4  and  C_12
REMARK    4  A    between atoms: N_5  and  C_13
REMARK    5  A    between atoms: C_12  and  C_14
REMARK    6  A    between atoms: C_13  and  C_15
REMARK    7  A    between atoms: C_16  and  C_19
REMARK                            x       y       z     vdW  Elec       q    Type
REMARK                         _______ _______ _______ _____ _____    ______ ____
ROOT
ATOM      1  O   UNL     1       0.858   3.336  25.499  0.00  0.00    -0.252 OA
ATOM      3  N   UNL     1      -1.089   2.426  24.552  0.00  0.00    -0.278 N 
ATOM      4  N   UNL     1      -3.668   1.312  24.414  0.00  0.00    -0.295 NA
ATOM      5  N   UNL     1       0.899   1.712  23.789  0.00  0.00    -0.281 N 
ATOM      6  C   UNL     1      -1.418   1.548  23.447  0.00  0.00    +0.109 C 
ATOM      7  C   UNL     1      -2.520   0.572  23.854  0.00  0.00    +0.109 C 
ATOM      8  C   UNL     1      -0.082   0.898  23.092  0.00  0.00    +0.133 C 
ATOM      9  C   UNL     1      -2.156   3.090  25.271  0.00  0.00    +0.125 C 
ATOM     10  C   UNL     1      -3.264   2.088  25.605  0.00  0.00    +0.104 C 
ATOM     11  C   UNL     1       0.293   2.589  24.711  0.00  0.00    +0.305 C 
ENDROOT
BRANCH   4  12
ATOM     12  C   UNL     1      -4.753   0.391  24.751  0.00  0.00    +0.120 C 
BRANCH  12  14
ATOM     14  C   UNL     1      -4.340  -1.047  24.580  0.00  0.00    -0.030 A 
ATOM     16  C   UNL     1      -3.600  -1.703  25.563  0.00  0.00    -0.046 A 
ATOM     17  C   UNL     1      -4.708  -1.723  23.417  0.00  0.00    +0.005 A 
ATOM     18  C   UNL     1      -3.228  -3.035  25.384  0.00  0.00    +0.003 A 
ATOM     19  C   UNL     1      -3.195  -1.000  26.817  0.00  0.00    +0.044 C 
ATOM     20  C   UNL     1      -4.337  -3.056  23.237  0.00  0.00    +0.000 A 
ATOM     21  C   UNL     1      -3.596  -3.712  24.220  0.00  0.00    +0.000 A 
ENDBRANCH  12  14
ENDBRANCH   4  12
BRANCH   5  13
ATOM     13  C   UNL     1       2.321   1.501  23.632  0.00  0.00    +0.137 C 
BRANCH  13  15
ATOM     15  C   UNL     1       2.614   0.332  22.708  0.00  0.00    +0.178 C 
BRANCH  15   2
ATOM      2  O   UNL     1       3.937   0.451  22.202  0.00  0.00    -0.381 OA
ATOM     22  C   UNL     1       4.903   0.333  23.238  0.00  0.00    +0.194 C 
ENDBRANCH  15   2
ENDBRANCH  13  15
ENDBRANCH   5  13
TORSDOF 5
ENDMDL
MODEL 7
REMARK VINA RESULT:      -2.3      2.142      3.309
REMARK  Name = 75537139
REMARK  7 active torsions:
REMARK  status: ('A' for Active; 'I' for Inactive)
REMARK    1  A    between atoms: O_2  and  C_15
REMARK    2  A    between atoms: O_2  and  C_22
REMARK    3  A    between atoms: N_4  and  C_12
REMARK    4  A    between atoms: N_5  and  C_13
REMARK    5  A    between atoms: C_12  and  C_14
REMARK    6  A    between atoms: C_13  and  C_15
REMARK    7  A    between atoms: C_16  and  C_19
REMARK                            x       y       z     vdW  Elec       q    Type
REMARK                         _______ _______ _______ _____ _____    ______ ____
ROOT
ATOM      1  O   UNL     1      -1.901  -3.258  23.624  0.00  0.00    -0.252 OA
ATOM      3  N   UNL     1      -3.027  -1.546  24.772  0.00  0.00    -0.278 N 
ATOM      4  N   UNL     1      -4.708   0.670  25.189  0.00  0.00    -0.295 NA
ATOM      5  N   UNL     1      -0.861  -1.900  25.248  0.00  0.00    -0.281 N 
ATOM      6  C   UNL     1      -2.745  -0.647  25.872  0.00  0.00    +0.109 C 
ATOM      7  C   UNL     1      -3.283   0.750  25.569  0.00  0.00    +0.109 C 
ATOM      8  C   UNL     1      -1.228  -0.732  26.029  0.00  0.00    +0.133 C 
ATOM      9  C   UNL     1      -4.366  -1.594  24.220  0.00  0.00    +0.125 C 
ATOM     10  C   UNL     1      -4.887  -0.174  23.989  0.00  0.00    +0.104 C 
ATOM     11  C   UNL     1      -1.929  -2.352  24.446  0.00  0.00    +0.305 C 
ENDROOT
BRANCH   4  12
ATOM     12  C   UNL     1      -5.249   2.009  24.954  0.00  0.00    +0.120 C 
BRANCH  12  14
ATOM     14  C   UNL     1      -4.191   3.072  25.092  0.00  0.00    -0.030 A 
ATOM     16  C   UNL     1      -3.414   3.458  23.999  0.00  0.00    -0.046 A 
ATOM     17  C   UNL     1      -3.992   3.673  26.335  0.00  0.00    +0.005 A 
ATOM     18  C   UNL     1      -2.441   4.444  24.149  0.00  0.00    +0.003 A 
ATOM     19  C   UNL     1      -3.610   2.829  22.658  0.00  0.00    +0.044 C 
ATOM     20  C   UNL     1      -3.018   4.659  26.485  0.00  0.00    +0.000 A 
ATOM     21  C   UNL     1      -2.242   5.045  25.393  0.00  0.00    +0.000 A 
ENDBRANCH  12  14
ENDBRANCH   4  12
BRANCH   5  13
ATOM     13  C   UNL     1       0.493  -2.406  25.215  0.00  0.00    +0.137 C 
BRANCH  13  15
ATOM     15  C   UNL     1       1.416  -1.480  24.442  0.00  0.00    +0.178 C 
BRANCH  15   2
ATOM      2  O   UNL     1       0.642  -0.641  23.596  0.00  0.00    -0.381 OA
ATOM     22  C   UNL     1       1.419  -0.120  22.526  0.00  0.00    +0.194 C 
ENDBRANCH  15   2
ENDBRANCH  13  15
ENDBRANCH   5  13
TORSDOF 5
ENDMDL
MODEL 8
REMARK VINA RESULT:      -1.5      2.357      4.669
REMARK  Name = 75537139
REMARK  7 active torsions:
REMARK  status: ('A' for Active; 'I' for Inactive)
REMARK    1  A    between atoms: O_2  and  C_15
REMARK    2  A    between atoms: O_2  and  C_22
REMARK    3  A    between atoms: N_4  and  C_12
REMARK    4  A    between atoms: N_5  and  C_13
REMARK    5  A    between atoms: C_12  and  C_14
REMARK    6  A    between atoms: C_13  and  C_15
REMARK    7  A    between atoms: C_16  and  C_19
REMARK                            x       y       z     vdW  Elec       q    Type
REMARK                         _______ _______ _______ _____ _____    ______ ____
ROOT
ATOM      1  O   UNL     1       0.398  -1.846  25.375  0.00  0.00    -0.252 OA
ATOM      3  N   UNL     1      -0.255   0.125  24.276  0.00  0.00    -0.278 N 
ATOM      4  N   UNL     1      -0.782   2.860  23.881  0.00  0.00    -0.295 NA
ATOM      5  N   UNL     1      -1.538  -1.703  24.035  0.00  0.00    -0.281 N 
ATOM      6  C   UNL     1      -1.265   0.514  23.314  0.00  0.00    +0.109 C 
ATOM      7  C   UNL     1      -1.861   1.870  23.688  0.00  0.00    +0.109 C 
ATOM      8  C   UNL     1      -2.254  -0.650  23.335  0.00  0.00    +0.133 C 
ATOM      9  C   UNL     1       0.770   1.077  24.651  0.00  0.00    +0.125 C 
ATOM     10  C   UNL     1       0.135   2.434  24.959  0.00  0.00    +0.104 C 
ATOM     11  C   UNL     1      -0.365  -1.221  24.650  0.00  0.00    +0.305 C 
ENDROOT
BRANCH   4  12
ATOM     12  C   UNL     1      -1.344   4.176  24.181  0.00  0.00    +0.120 C 
BRANCH  12  14
ATOM     14  C   UNL     1      -2.652   4.070  24.921  0.00  0.00    -0.030 A 
ATOM     16  C   UNL     1      -3.848   3.855  24.237  0.00  0.00    -0.046 A 
ATOM     17  C   UNL     1      -2.656   4.193  26.310  0.00  0.00    +0.005 A 
ATOM     18  C   UNL     1      -5.047   3.761  24.941  0.00  0.00    +0.003 A 
ATOM     19  C   UNL     1      -3.869   3.720  22.749  0.00  0.00    +0.044 C 
ATOM     20  C   UNL     1      -3.855   4.098  27.015  0.00  0.00    +0.000 A 
ATOM     21  C   UNL     1      -5.051   3.883  26.331  0.00  0.00    +0.000 A 
ENDBRANCH  12  14
ENDBRANCH   4  12
BRANCH   5  13
ATOM     13  C   UNL     1      -2.083  -3.034  24.182  0.00  0.00    +0.137 C 
BRANCH  13  15
ATOM     15  C   UNL     1      -3.500  -3.000  24.726  0.00  0.00    +0.178 C 
BRANCH  15   2
ATOM      2  O   UNL     1      -3.506  -2.341  25.986  0.00  0.00    -0.381 OA
ATOM     22  C   UNL     1      -3.919  -0.987  25.864  0.00  0.00    +0.194 C 
ENDBRANCH  15   2
ENDBRANCH  13  15
ENDBRANCH   5  13
TORSDOF 5
ENDMDL
MODEL 9
REMARK VINA RESULT:      -1.0      1.848      3.055
REMARK  Name = 75537139
REMARK  7 active torsions:
REMARK  status: ('A' for Active; 'I' for Inactive)
REMARK    1  A    between atoms: O_2  and  C_15
REMARK    2  A    between atoms: O_2  and  C_22
REMARK    3  A    between atoms: N_4  and  C_12
REMARK    4  A    between atoms: N_5  and  C_13
REMARK    5  A    between atoms: C_12  and  C_14
REMARK    6  A    between atoms: C_13  and  C_15
REMARK    7  A    between atoms: C_16  and  C_19
REMARK                            x       y       z     vdW  Elec       q    Type
REMARK                         _______ _______ _______ _____ _____    ______ ____
ROOT
ATOM      1  O   UNL     1       1.262   1.963  25.620  0.00  0.00    -0.252 OA
ATOM      3  N   UNL     1      -0.517   2.656  24.252  0.00  0.00    -0.278 N 
ATOM      4  N   UNL     1      -3.074   3.590  23.542  0.00  0.00    -0.295 NA
ATOM      5  N   UNL     1       0.633   0.822  23.654  0.00  0.00    -0.281 N 
ATOM      6  C   UNL     1      -1.069   2.285  22.965  0.00  0.00    +0.109 C 
ATOM      7  C   UNL     1      -2.595   2.295  23.018  0.00  0.00    +0.109 C 
ATOM      8  C   UNL     1      -0.443   0.920  22.683  0.00  0.00    +0.133 C 
ATOM      9  C   UNL     1      -1.024   3.833  24.927  0.00  0.00    +0.125 C 
ATOM     10  C   UNL     1      -2.554   3.831  24.904  0.00  0.00    +0.104 C 
ATOM     11  C   UNL     1       0.551   1.834  24.632  0.00  0.00    +0.305 C 
ENDROOT
BRANCH   4  12
ATOM     12  C   UNL     1      -4.536   3.631  23.541  0.00  0.00    +0.120 C 
BRANCH  12  14
ATOM     14  C   UNL     1      -5.122   2.747  24.610  0.00  0.00    -0.030 A 
ATOM     16  C   UNL     1      -5.846   3.288  25.671  0.00  0.00    -0.046 A 
ATOM     17  C   UNL     1      -4.931   1.367  24.528  0.00  0.00    +0.005 A 
ATOM     18  C   UNL     1      -6.381   2.451  26.650  0.00  0.00    +0.003 A 
ATOM     19  C   UNL     1      -6.065   4.762  25.780  0.00  0.00    +0.044 C 
ATOM     20  C   UNL     1      -5.465   0.530  25.506  0.00  0.00    +0.000 A 
ATOM     21  C   UNL     1      -6.189   1.071  26.568  0.00  0.00    +0.000 A 
ENDBRANCH  12  14
ENDBRANCH   4  12
BRANCH   5  13
ATOM     13  C   UNL     1       1.560  -0.288  23.661  0.00  0.00    +0.137 C 
BRANCH  13  15
ATOM     15  C   UNL     1       2.530  -0.213  22.496  0.00  0.00    +0.178 C 
BRANCH  15   2
ATOM      2  O   UNL     1       3.438   0.861  22.706  0.00  0.00    -0.381 OA
ATOM     22  C   UNL     1       4.675   0.400  23.235  0.00  0.00    +0.194 C 
ENDBRANCH  15   2
ENDBRANCH  13  15
ENDBRANCH   5  13
TORSDOF 5
ENDMDL
MODEL 10
REMARK VINA RESULT:      -0.7      3.037      6.264
REMARK  Name = 75537139
REMARK  7 active torsions:
REMARK  status: ('A' for Active; 'I' for Inactive)
REMARK    1  A    between atoms: O_2  and  C_15
REMARK    2  A    between atoms: O_2  and  C_22
REMARK    3  A    between atoms: N_4  and  C_12
REMARK    4  A    between atoms: N_5  and  C_13
REMARK    5  A    between atoms: C_12  and  C_14
REMARK    6  A    between atoms: C_13  and  C_15
REMARK    7  A    between atoms: C_16  and  C_19
REMARK                            x       y       z     vdW  Elec       q    Type
REMARK                         _______ _______ _______ _____ _____    ______ ____
ROOT
ATOM      1  O   UNL     1      -6.171   1.356  26.306  0.00  0.00    -0.252 OA
ATOM      3  N   UNL     1      -4.485   0.465  24.935  0.00  0.00    -0.278 N 
ATOM      4  N   UNL     1      -2.238  -1.053  24.189  0.00  0.00    -0.295 NA
ATOM      5  N   UNL     1      -4.937   2.660  24.776  0.00  0.00    -0.281 N 
ATOM      6  C   UNL     1      -3.655   0.929  23.842  0.00  0.00    +0.109 C 
ATOM      7  C   UNL     1      -2.227   0.412  24.003  0.00  0.00    +0.109 C 
ATOM      8  C   UNL     1      -3.799   2.448  23.897  0.00  0.00    +0.133 C 
ATOM      9  C   UNL     1      -4.458  -0.936  25.301  0.00  0.00    +0.125 C 
ATOM     10  C   UNL     1      -3.011  -1.425  25.392  0.00  0.00    +0.104 C 
ATOM     11  C   UNL     1      -5.310   1.476  25.445  0.00  0.00    +0.305 C 
ENDROOT
BRANCH   4  12
ATOM     12  C   UNL     1      -0.872  -1.566  24.284  0.00  0.00    +0.120 C 
BRANCH  12  14
ATOM     14  C   UNL     1       0.144  -0.530  23.877  0.00  0.00    -0.030 A 
ATOM     16  C   UNL     1       0.284   0.658  24.593  0.00  0.00    -0.046 A 
ATOM     17  C   UNL     1       0.951  -0.773  22.765  0.00  0.00    +0.005 A 
ATOM     18  C   UNL     1       1.231   1.603  24.200  0.00  0.00    +0.003 A 
ATOM     19  C   UNL     1      -0.568   0.940  25.787  0.00  0.00    +0.044 C 
ATOM     20  C   UNL     1       1.898   0.171  22.371  0.00  0.00    +0.000 A 
ATOM     21  C   UNL     1       2.038   1.360  23.087  0.00  0.00    +0.000 A 
ENDBRANCH  12  14
ENDBRANCH   4  12
BRANCH   5  13
ATOM     13  C   UNL     1      -5.485   3.976  25.018  0.00  0.00    +0.137 C 
BRANCH  13  15
ATOM     15  C   UNL     1      -4.405   4.967  25.411  0.00  0.00    +0.178 C 
BRANCH  15   2
ATOM      2  O   UNL     1      -3.416   4.303  26.188  0.00  0.00    -0.381 OA
ATOM     22  C   UNL     1      -2.107   4.568  25.700  0.00  0.00    +0.194 C 
ENDBRANCH  15   2
ENDBRANCH  13  15
ENDBRANCH   5  13
TORSDOF 5
ENDMDL
