MODEL 1
REMARK VINA RESULT:      -2.4      0.000      0.000
REMARK  Name = 45783396
REMARK  9 active torsions:
REMARK  status: ('A' for Active; 'I' for Inactive)
REMARK    1  A    between atoms: O_2  and  C_23
REMARK    2  A    between atoms: O_2  and  C_24
REMARK    3  A    between atoms: N_3  and  C_12
REMARK    4  A    between atoms: N_6  and  C_20
REMARK    5  A    between atoms: C_8  and  C_13
REMARK    6  A    between atoms: C_12  and  C_14
REMARK    7  A    between atoms: C_12  and  C_15
REMARK    8  A    between atoms: C_16  and  C_17
REMARK    9  A    between atoms: C_20  and  C_23
REMARK                            x       y       z     vdW  Elec       q    Type
REMARK                         _______ _______ _______ _____ _____    ______ ____
ROOT
ATOM      1  O   UNL     1      15.065  -5.883  31.260  0.00  0.00    -0.336 OA
ATOM      4  N   UNL     1      15.174  -7.737  30.008  0.00  0.00    -0.190 NA
ATOM      5  N   UNL     1      15.689  -5.508  30.062  0.00  0.00    -0.056 NA
ATOM     13  C   UNL     1      14.797  -7.211  31.145  0.00  0.00    +0.245 A 
ATOM     16  C   UNL     1      15.716  -6.655  29.377  0.00  0.00    +0.205 A 
ENDROOT
BRANCH  16  17
ATOM      6  N   UNL     1      15.920  -9.138  28.013  0.00  0.00    -0.326 N 
ATOM      7  N   UNL     1      16.911  -8.082  26.142  0.00  0.00    -0.240 NA
ATOM     17  C   UNL     1      16.279  -6.755  28.061  0.00  0.00    +0.062 A 
ATOM     18  C   UNL     1      16.386  -7.957  27.381  0.00  0.00    +0.130 A 
ATOM     19  C   UNL     1      16.740  -5.606  27.428  0.00  0.00    +0.016 A 
ATOM     21  C   UNL     1      17.286  -5.694  26.152  0.00  0.00    +0.020 A 
ATOM     22  C   UNL     1      17.349  -6.944  25.558  0.00  0.00    +0.113 A 
ATOM     25  H   UNL     1      15.218  -9.011  28.734  0.00  0.00    +0.148 HD
BRANCH   6  20
ATOM     20  C   UNL     1      15.988 -10.421  27.392  0.00  0.00    +0.131 C 
BRANCH  20  23
ATOM     23  C   UNL     1      14.652 -10.761  26.753  0.00  0.00    +0.178 C 
BRANCH  23   2
ATOM      2  O   UNL     1      14.766 -10.663  25.339  0.00  0.00    -0.381 OA
ATOM     24  C   UNL     1      13.490 -10.585  24.718  0.00  0.00    +0.194 C 
ENDBRANCH  23   2
ENDBRANCH  20  23
ENDBRANCH   6  20
ENDBRANCH  16  17
BRANCH  13   8
ATOM      3  N   UNL     1      12.757  -8.350  32.000  0.00  0.00    -0.289 NA
ATOM      8  C   UNL     1      14.112  -7.864  32.326  0.00  0.00    +0.146 C 
ATOM      9  C   UNL     1      14.863  -9.110  32.833  0.00  0.00    +0.030 C 
ATOM     10  C   UNL     1      12.509  -9.498  32.873  0.00  0.00    +0.085 C 
ATOM     11  C   UNL     1      13.833 -10.231  32.814  0.00  0.00    +0.017 C 
BRANCH   3  12
ATOM     12  C   UNL     1      11.731  -7.325  32.136  0.00  0.00    +0.051 C 
ATOM     14  C   UNL     1      10.420  -7.948  32.608  0.00  0.00    +0.024 C 
ATOM     15  C   UNL     1      11.548  -6.610  30.802  0.00  0.00    +0.024 C 
ENDBRANCH   3  12
ENDBRANCH  13   8
TORSDOF 6
ENDMDL
MODEL 2
REMARK VINA RESULT:      -2.2     17.556     19.541
REMARK  Name = 45783396
REMARK  9 active torsions:
REMARK  status: ('A' for Active; 'I' for Inactive)
REMARK    1  A    between atoms: O_2  and  C_23
REMARK    2  A    between atoms: O_2  and  C_24
REMARK    3  A    between atoms: N_3  and  C_12
REMARK    4  A    between atoms: N_6  and  C_20
REMARK    5  A    between atoms: C_8  and  C_13
REMARK    6  A    between atoms: C_12  and  C_14
REMARK    7  A    between atoms: C_12  and  C_15
REMARK    8  A    between atoms: C_16  and  C_17
REMARK    9  A    between atoms: C_20  and  C_23
REMARK                            x       y       z     vdW  Elec       q    Type
REMARK                         _______ _______ _______ _____ _____    ______ ____
ROOT
ATOM      1  O   UNL     1      -0.539   3.292  25.915  0.00  0.00    -0.336 OA
ATOM      4  N   UNL     1      -0.937   2.272  23.961  0.00  0.00    -0.190 NA
ATOM      5  N   UNL     1       0.614   2.553  25.618  0.00  0.00    -0.056 NA
ATOM     13  C   UNL     1      -1.402   3.070  24.889  0.00  0.00    +0.245 A 
ATOM     16  C   UNL     1       0.302   1.981  24.452  0.00  0.00    +0.205 A 
ENDROOT
BRANCH  16  17
ATOM      6  N   UNL     1      -0.321  -0.745  23.953  0.00  0.00    -0.326 N 
ATOM      7  N   UNL     1       1.746  -1.062  22.846  0.00  0.00    -0.240 NA
ATOM     17  C   UNL     1       1.204   1.112  23.753  0.00  0.00    +0.062 A 
ATOM     18  C   UNL     1       0.917  -0.220  23.501  0.00  0.00    +0.130 A 
ATOM     19  C   UNL     1       2.420   1.611  23.302  0.00  0.00    +0.016 A 
ATOM     21  C   UNL     1       3.300   0.776  22.623  0.00  0.00    +0.020 A 
ATOM     22  C   UNL     1       2.919  -0.541  22.423  0.00  0.00    +0.113 A 
ATOM     25  H   UNL     1      -1.066  -0.072  24.096  0.00  0.00    +0.148 HD
BRANCH   6  20
ATOM     20  C   UNL     1      -0.704  -2.103  23.741  0.00  0.00    +0.131 C 
BRANCH  20  23
ATOM     23  C   UNL     1      -1.978  -2.409  24.509  0.00  0.00    +0.178 C 
BRANCH  23   2
ATOM      2  O   UNL     1      -2.867  -1.304  24.410  0.00  0.00    -0.381 OA
ATOM     24  C   UNL     1      -4.149  -1.706  23.945  0.00  0.00    +0.194 C 
ENDBRANCH  23   2
ENDBRANCH  20  23
ENDBRANCH   6  20
ENDBRANCH  16  17
BRANCH  13   8
ATOM      3  N   UNL     1      -3.818   2.877  25.453  0.00  0.00    -0.289 NA
ATOM      8  C   UNL     1      -2.743   3.768  24.973  0.00  0.00    +0.146 C 
ATOM      9  C   UNL     1      -2.738   4.945  25.966  0.00  0.00    +0.030 C 
ATOM     10  C   UNL     1      -4.786   3.731  26.142  0.00  0.00    +0.085 C 
ATOM     11  C   UNL     1      -3.883   4.658  26.928  0.00  0.00    +0.017 C 
BRANCH   3  12
ATOM     12  C   UNL     1      -4.435   2.096  24.388  0.00  0.00    +0.051 C 
ATOM     14  C   UNL     1      -4.311   2.829  23.055  0.00  0.00    +0.024 C 
ATOM     15  C   UNL     1      -5.896   1.832  24.735  0.00  0.00    +0.024 C 
ENDBRANCH   3  12
ENDBRANCH  13   8
TORSDOF 6
ENDMDL
MODEL 3
REMARK VINA RESULT:      -2.1     17.538     20.002
REMARK  Name = 45783396
REMARK  9 active torsions:
REMARK  status: ('A' for Active; 'I' for Inactive)
REMARK    1  A    between atoms: O_2  and  C_23
REMARK    2  A    between atoms: O_2  and  C_24
REMARK    3  A    between atoms: N_3  and  C_12
REMARK    4  A    between atoms: N_6  and  C_20
REMARK    5  A    between atoms: C_8  and  C_13
REMARK    6  A    between atoms: C_12  and  C_14
REMARK    7  A    between atoms: C_12  and  C_15
REMARK    8  A    between atoms: C_16  and  C_17
REMARK    9  A    between atoms: C_20  and  C_23
REMARK                            x       y       z     vdW  Elec       q    Type
REMARK                         _______ _______ _______ _____ _____    ______ ____
ROOT
ATOM      1  O   UNL     1      -4.170   2.432  25.163  0.00  0.00    -0.336 OA
ATOM      4  N   UNL     1      -2.277   1.236  25.167  0.00  0.00    -0.190 NA
ATOM      5  N   UNL     1      -4.527   1.136  24.767  0.00  0.00    -0.056 NA
ATOM     13  C   UNL     1      -2.828   2.404  25.377  0.00  0.00    +0.245 A 
ATOM     16  C   UNL     1      -3.357   0.491  24.794  0.00  0.00    +0.205 A 
ENDROOT
BRANCH  16  17
ATOM      6  N   UNL     1      -0.839  -0.704  24.251  0.00  0.00    -0.326 N 
ATOM      7  N   UNL     1      -1.866  -2.800  23.863  0.00  0.00    -0.240 NA
ATOM     17  C   UNL     1      -3.234  -0.897  24.454  0.00  0.00    +0.062 A 
ATOM     18  C   UNL     1      -2.014  -1.497  24.186  0.00  0.00    +0.130 A 
ATOM     19  C   UNL     1      -4.375  -1.687  24.387  0.00  0.00    +0.016 A 
ATOM     21  C   UNL     1      -4.264  -3.034  24.058  0.00  0.00    +0.020 A 
ATOM     22  C   UNL     1      -2.998  -3.537  23.807  0.00  0.00    +0.113 A 
ATOM     25  H   UNL     1      -0.892   0.126  24.831  0.00  0.00    +0.148 HD
BRANCH   6  20
ATOM     20  C   UNL     1       0.461  -1.233  23.991  0.00  0.00    +0.131 C 
BRANCH  20  23
ATOM     23  C   UNL     1       1.147  -0.416  22.910  0.00  0.00    +0.178 C 
BRANCH  23   2
ATOM      2  O   UNL     1       2.556  -0.563  23.028  0.00  0.00    -0.381 OA
ATOM     24  C   UNL     1       3.243   0.572  22.521  0.00  0.00    +0.194 C 
ENDBRANCH  23   2
ENDBRANCH  20  23
ENDBRANCH   6  20
ENDBRANCH  16  17
BRANCH  13   8
ATOM      3  N   UNL     1      -1.088   4.126  24.933  0.00  0.00    -0.289 NA
ATOM      8  C   UNL     1      -2.190   3.703  25.820  0.00  0.00    +0.146 C 
ATOM      9  C   UNL     1      -3.177   4.885  25.809  0.00  0.00    +0.030 C 
ATOM     10  C   UNL     1      -1.046   5.588  24.994  0.00  0.00    +0.085 C 
ATOM     11  C   UNL     1      -2.517   5.946  24.939  0.00  0.00    +0.017 C 
BRANCH   3  12
ATOM     12  C   UNL     1       0.193   3.526  25.282  0.00  0.00    +0.051 C 
ATOM     14  C   UNL     1       0.630   2.545  24.197  0.00  0.00    +0.024 C 
ATOM     15  C   UNL     1       0.076   2.830  26.634  0.00  0.00    +0.024 C 
ENDBRANCH   3  12
ENDBRANCH  13   8
TORSDOF 6
ENDMDL
MODEL 4
REMARK VINA RESULT:      -1.7     18.030     20.777
REMARK  Name = 45783396
REMARK  9 active torsions:
REMARK  status: ('A' for Active; 'I' for Inactive)
REMARK    1  A    between atoms: O_2  and  C_23
REMARK    2  A    between atoms: O_2  and  C_24
REMARK    3  A    between atoms: N_3  and  C_12
REMARK    4  A    between atoms: N_6  and  C_20
REMARK    5  A    between atoms: C_8  and  C_13
REMARK    6  A    between atoms: C_12  and  C_14
REMARK    7  A    between atoms: C_12  and  C_15
REMARK    8  A    between atoms: C_16  and  C_17
REMARK    9  A    between atoms: C_20  and  C_23
REMARK                            x       y       z     vdW  Elec       q    Type
REMARK                         _______ _______ _______ _____ _____    ______ ____
ROOT
ATOM      1  O   UNL     1      -3.713  -1.464  23.951  0.00  0.00    -0.336 OA
ATOM      4  N   UNL     1      -2.711   0.423  24.622  0.00  0.00    -0.190 NA
ATOM      5  N   UNL     1      -4.741  -0.553  24.225  0.00  0.00    -0.056 NA
ATOM     13  C   UNL     1      -2.551  -0.810  24.212  0.00  0.00    +0.245 A 
ATOM     16  C   UNL     1      -4.070   0.535  24.615  0.00  0.00    +0.205 A 
ENDROOT
BRANCH  16  17
ATOM      6  N   UNL     1      -2.780   3.060  24.456  0.00  0.00    -0.326 N 
ATOM      7  N   UNL     1      -4.707   4.149  25.292  0.00  0.00    -0.240 NA
ATOM     17  C   UNL     1      -4.728   1.749  25.004  0.00  0.00    +0.062 A 
ATOM     18  C   UNL     1      -4.114   2.989  24.933  0.00  0.00    +0.130 A 
ATOM     19  C   UNL     1      -6.036   1.697  25.472  0.00  0.00    +0.016 A 
ATOM     21  C   UNL     1      -6.681   2.869  25.851  0.00  0.00    +0.020 A 
ATOM     22  C   UNL     1      -5.979   4.059  25.743  0.00  0.00    +0.113 A 
ATOM     25  H   UNL     1      -2.478   2.298  23.860  0.00  0.00    +0.148 HD
BRANCH   6  20
ATOM     20  C   UNL     1      -2.066   4.291  24.349  0.00  0.00    +0.131 C 
BRANCH  20  23
ATOM     23  C   UNL     1      -0.946   4.333  25.374  0.00  0.00    +0.178 C 
BRANCH  23   2
ATOM      2  O   UNL     1      -1.087   3.241  26.273  0.00  0.00    -0.381 OA
ATOM     24  C   UNL     1       0.152   2.577  26.484  0.00  0.00    +0.194 C 
ENDBRANCH  23   2
ENDBRANCH  20  23
ENDBRANCH   6  20
ENDBRANCH  16  17
BRANCH  13   8
ATOM      3  N   UNL     1      -0.064  -0.796  24.285  0.00  0.00    -0.289 NA
ATOM      8  C   UNL     1      -1.273  -1.591  23.991  0.00  0.00    +0.146 C 
ATOM      9  C   UNL     1      -1.164  -2.824  24.908  0.00  0.00    +0.030 C 
ATOM     10  C   UNL     1       0.959  -1.747  24.723  0.00  0.00    +0.085 C 
ATOM     11  C   UNL     1       0.166  -2.665  25.631  0.00  0.00    +0.017 C 
BRANCH   3  12
ATOM     12  C   UNL     1       0.384   0.008  23.156  0.00  0.00    +0.051 C 
ATOM     14  C   UNL     1       1.778  -0.428  22.715  0.00  0.00    +0.024 C 
ATOM     15  C   UNL     1       0.368   1.483  23.545  0.00  0.00    +0.024 C 
ENDBRANCH   3  12
ENDBRANCH  13   8
TORSDOF 6
ENDMDL
MODEL 5
REMARK VINA RESULT:      -1.5      1.786      2.427
REMARK  Name = 45783396
REMARK  9 active torsions:
REMARK  status: ('A' for Active; 'I' for Inactive)
REMARK    1  A    between atoms: O_2  and  C_23
REMARK    2  A    between atoms: O_2  and  C_24
REMARK    3  A    between atoms: N_3  and  C_12
REMARK    4  A    between atoms: N_6  and  C_20
REMARK    5  A    between atoms: C_8  and  C_13
REMARK    6  A    between atoms: C_12  and  C_14
REMARK    7  A    between atoms: C_12  and  C_15
REMARK    8  A    between atoms: C_16  and  C_17
REMARK    9  A    between atoms: C_20  and  C_23
REMARK                            x       y       z     vdW  Elec       q    Type
REMARK                         _______ _______ _______ _____ _____    ______ ____
ROOT
ATOM      1  O   UNL     1      16.587  -6.166  31.851  0.00  0.00    -0.336 OA
ATOM      4  N   UNL     1      15.868  -6.717  29.803  0.00  0.00    -0.190 NA
ATOM      5  N   UNL     1      17.089  -5.186  30.985  0.00  0.00    -0.056 NA
ATOM     13  C   UNL     1      15.881  -7.029  31.074  0.00  0.00    +0.245 A 
ATOM     16  C   UNL     1      16.622  -5.581  29.796  0.00  0.00    +0.205 A 
ENDROOT
BRANCH  16  17
ATOM      6  N   UNL     1      17.101  -6.914  27.335  0.00  0.00    -0.326 N 
ATOM      7  N   UNL     1      17.385  -4.847  26.218  0.00  0.00    -0.240 NA
ATOM     17  C   UNL     1      16.892  -4.863  28.585  0.00  0.00    +0.062 A 
ATOM     18  C   UNL     1      17.128  -5.496  27.375  0.00  0.00    +0.130 A 
ATOM     19  C   UNL     1      16.922  -3.473  28.607  0.00  0.00    +0.016 A 
ATOM     21  C   UNL     1      17.182  -2.769  27.437  0.00  0.00    +0.020 A 
ATOM     22  C   UNL     1      17.405  -3.496  26.279  0.00  0.00    +0.113 A 
ATOM     25  H   UNL     1      16.563  -7.371  28.063  0.00  0.00    +0.148 HD
BRANCH   6  20
ATOM     20  C   UNL     1      17.332  -7.653  26.137  0.00  0.00    +0.131 C 
BRANCH  20  23
ATOM     23  C   UNL     1      16.555  -8.958  26.174  0.00  0.00    +0.178 C 
BRANCH  23   2
ATOM      2  O   UNL     1      15.633  -8.929  27.257  0.00  0.00    -0.381 OA
ATOM     24  C   UNL     1      15.429 -10.226  27.802  0.00  0.00    +0.194 C 
ENDBRANCH  23   2
ENDBRANCH  20  23
ENDBRANCH   6  20
ENDBRANCH  16  17
BRANCH  13   8
ATOM      3  N   UNL     1      14.091  -8.757  31.026  0.00  0.00    -0.289 NA
ATOM      8  C   UNL     1      15.227  -8.196  31.784  0.00  0.00    +0.146 C 
ATOM      9  C   UNL     1      16.188  -9.382  31.986  0.00  0.00    +0.030 C 
ATOM     10  C   UNL     1      14.020 -10.176  31.380  0.00  0.00    +0.085 C 
ATOM     11  C   UNL     1      15.480 -10.578  31.363  0.00  0.00    +0.017 C 
BRANCH   3  12
ATOM     12  C   UNL     1      12.834  -8.065  31.278  0.00  0.00    +0.051 C 
ATOM     14  C   UNL     1      13.055  -6.901  32.240  0.00  0.00    +0.024 C 
ATOM     15  C   UNL     1      11.815  -9.052  31.838  0.00  0.00    +0.024 C 
ENDBRANCH   3  12
ENDBRANCH  13   8
TORSDOF 6
ENDMDL
MODEL 6
REMARK VINA RESULT:      -1.0     18.204     20.598
REMARK  Name = 45783396
REMARK  9 active torsions:
REMARK  status: ('A' for Active; 'I' for Inactive)
REMARK    1  A    between atoms: O_2  and  C_23
REMARK    2  A    between atoms: O_2  and  C_24
REMARK    3  A    between atoms: N_3  and  C_12
REMARK    4  A    between atoms: N_6  and  C_20
REMARK    5  A    between atoms: C_8  and  C_13
REMARK    6  A    between atoms: C_12  and  C_14
REMARK    7  A    between atoms: C_12  and  C_15
REMARK    8  A    between atoms: C_16  and  C_17
REMARK    9  A    between atoms: C_20  and  C_23
REMARK                            x       y       z     vdW  Elec       q    Type
REMARK                         _______ _______ _______ _____ _____    ______ ____
ROOT
ATOM      1  O   UNL     1       0.070   0.136  24.261  0.00  0.00    -0.336 OA
ATOM      4  N   UNL     1      -1.751   1.074  25.167  0.00  0.00    -0.190 NA
ATOM      5  N   UNL     1       0.250   1.521  24.152  0.00  0.00    -0.056 NA
ATOM     13  C   UNL     1      -1.132  -0.041  24.869  0.00  0.00    +0.245 A 
ATOM     16  C   UNL     1      -0.865   2.004  24.708  0.00  0.00    +0.205 A 
ENDROOT
BRANCH  16  17
ATOM      6  N   UNL     1      -3.344   3.003  25.671  0.00  0.00    -0.326 N 
ATOM      7  N   UNL     1      -2.602   5.233  25.402  0.00  0.00    -0.240 NA
ATOM     17  C   UNL     1      -1.125   3.410  24.819  0.00  0.00    +0.062 A 
ATOM     18  C   UNL     1      -2.328   3.915  25.286  0.00  0.00    +0.130 A 
ATOM     19  C   UNL     1      -0.140   4.318  24.447  0.00  0.00    +0.016 A 
ATOM     21  C   UNL     1      -0.384   5.683  24.551  0.00  0.00    +0.020 A 
ATOM     22  C   UNL     1      -1.620   6.085  25.030  0.00  0.00    +0.113 A 
ATOM     25  H   UNL     1      -3.032   2.075  25.937  0.00  0.00    +0.148 HD
BRANCH   6  20
ATOM     20  C   UNL     1      -4.613   3.428  26.164  0.00  0.00    +0.131 C 
BRANCH  20  23
ATOM     23  C   UNL     1      -5.668   3.273  25.082  0.00  0.00    +0.178 C 
BRANCH  23   2
ATOM      2  O   UNL     1      -6.345   2.034  25.254  0.00  0.00    -0.381 OA
ATOM     24  C   UNL     1      -6.475   1.699  26.629  0.00  0.00    +0.194 C 
ENDBRANCH  23   2
ENDBRANCH  20  23
ENDBRANCH   6  20
ENDBRANCH  16  17
BRANCH  13   8
ATOM      3  N   UNL     1      -2.723  -1.861  24.279  0.00  0.00    -0.289 NA
ATOM      8  C   UNL     1      -1.564  -1.472  25.107  0.00  0.00    +0.146 C 
ATOM      9  C   UNL     1      -0.466  -2.491  24.746  0.00  0.00    +0.030 C 
ATOM     10  C   UNL     1      -2.599  -3.301  24.045  0.00  0.00    +0.085 C 
ATOM     11  C   UNL     1      -1.120  -3.446  23.757  0.00  0.00    +0.017 C 
BRANCH   3  12
ATOM     12  C   UNL     1      -4.002  -1.511  24.881  0.00  0.00    +0.051 C 
ATOM     14  C   UNL     1      -4.621  -0.321  24.154  0.00  0.00    +0.024 C 
ATOM     15  C   UNL     1      -3.799  -1.202  26.361  0.00  0.00    +0.024 C 
ENDBRANCH   3  12
ENDBRANCH  13   8
TORSDOF 6
ENDMDL
MODEL 7
REMARK VINA RESULT:      -0.7     18.229     20.532
REMARK  Name = 45783396
REMARK  9 active torsions:
REMARK  status: ('A' for Active; 'I' for Inactive)
REMARK    1  A    between atoms: O_2  and  C_23
REMARK    2  A    between atoms: O_2  and  C_24
REMARK    3  A    between atoms: N_3  and  C_12
REMARK    4  A    between atoms: N_6  and  C_20
REMARK    5  A    between atoms: C_8  and  C_13
REMARK    6  A    between atoms: C_12  and  C_14
REMARK    7  A    between atoms: C_12  and  C_15
REMARK    8  A    between atoms: C_16  and  C_17
REMARK    9  A    between atoms: C_20  and  C_23
REMARK                            x       y       z     vdW  Elec       q    Type
REMARK                         _______ _______ _______ _____ _____    ______ ____
ROOT
ATOM      1  O   UNL     1      -3.524   2.336  22.652  0.00  0.00    -0.336 OA
ATOM      4  N   UNL     1      -3.032   1.489  24.666  0.00  0.00    -0.190 NA
ATOM      5  N   UNL     1      -3.305   0.966  22.456  0.00  0.00    -0.056 NA
ATOM     13  C   UNL     1      -3.343   2.559  23.980  0.00  0.00    +0.245 A 
ATOM     16  C   UNL     1      -3.020   0.537  23.689  0.00  0.00    +0.205 A 
ENDROOT
BRANCH  16  17
ATOM      6  N   UNL     1      -0.354  -0.442  23.716  0.00  0.00    -0.326 N 
ATOM      7  N   UNL     1      -1.109  -2.617  24.264  0.00  0.00    -0.240 NA
ATOM     17  C   UNL     1      -2.719  -0.835  23.978  0.00  0.00    +0.062 A 
ATOM     18  C   UNL     1      -1.425  -1.330  23.995  0.00  0.00    +0.130 A 
ATOM     19  C   UNL     1      -3.756  -1.719  24.254  0.00  0.00    +0.016 A 
ATOM     21  C   UNL     1      -3.472  -3.050  24.536  0.00  0.00    +0.020 A 
ATOM     22  C   UNL     1      -2.145  -3.446  24.528  0.00  0.00    +0.113 A 
ATOM     25  H   UNL     1      -0.536   0.542  23.883  0.00  0.00    +0.148 HD
BRANCH   6  20
ATOM     20  C   UNL     1       1.010  -0.860  23.711  0.00  0.00    +0.131 C 
BRANCH  20  23
ATOM     23  C   UNL     1       1.812  -0.001  22.747  0.00  0.00    +0.178 C 
BRANCH  23   2
ATOM      2  O   UNL     1       3.185  -0.361  22.824  0.00  0.00    -0.381 OA
ATOM     24  C   UNL     1       4.025   0.784  22.804  0.00  0.00    +0.194 C 
ENDBRANCH  23   2
ENDBRANCH  20  23
ENDBRANCH   6  20
ENDBRANCH  16  17
BRANCH  13   8
ATOM      3  N   UNL     1      -3.839   4.068  25.895  0.00  0.00    -0.289 NA
ATOM      8  C   UNL     1      -3.526   3.985  24.455  0.00  0.00    +0.146 C 
ATOM      9  C   UNL     1      -2.255   4.838  24.280  0.00  0.00    +0.030 C 
ATOM     10  C   UNL     1      -3.309   5.351  26.360  0.00  0.00    +0.085 C 
ATOM     11  C   UNL     1      -1.966   5.407  25.662  0.00  0.00    +0.017 C 
BRANCH   3  12
ATOM     12  C   UNL     1      -5.260   3.925  26.184  0.00  0.00    +0.051 C 
ATOM     14  C   UNL     1      -5.718   2.499  25.888  0.00  0.00    +0.024 C 
ATOM     15  C   UNL     1      -6.050   4.936  25.360  0.00  0.00    +0.024 C 
ENDBRANCH   3  12
ENDBRANCH  13   8
TORSDOF 6
ENDMDL
MODEL 8
REMARK VINA RESULT:      -0.5     17.875     20.366
REMARK  Name = 45783396
REMARK  9 active torsions:
REMARK  status: ('A' for Active; 'I' for Inactive)
REMARK    1  A    between atoms: O_2  and  C_23
REMARK    2  A    between atoms: O_2  and  C_24
REMARK    3  A    between atoms: N_3  and  C_12
REMARK    4  A    between atoms: N_6  and  C_20
REMARK    5  A    between atoms: C_8  and  C_13
REMARK    6  A    between atoms: C_12  and  C_14
REMARK    7  A    between atoms: C_12  and  C_15
REMARK    8  A    between atoms: C_16  and  C_17
REMARK    9  A    between atoms: C_20  and  C_23
REMARK                            x       y       z     vdW  Elec       q    Type
REMARK                         _______ _______ _______ _____ _____    ______ ____
ROOT
ATOM      1  O   UNL     1      -0.104   3.104  24.322  0.00  0.00    -0.336 OA
ATOM      4  N   UNL     1      -1.584   1.468  24.709  0.00  0.00    -0.190 NA
ATOM      5  N   UNL     1      -1.337   3.735  24.530  0.00  0.00    -0.056 NA
ATOM     13  C   UNL     1      -0.339   1.770  24.444  0.00  0.00    +0.245 A 
ATOM     16  C   UNL     1      -2.159   2.705  24.752  0.00  0.00    +0.205 A 
ENDROOT
BRANCH  16  17
ATOM      6  N   UNL     1      -3.984   0.531  24.659  0.00  0.00    -0.326 N 
ATOM      7  N   UNL     1      -5.785   1.959  25.223  0.00  0.00    -0.240 NA
ATOM     17  C   UNL     1      -3.558   2.877  25.018  0.00  0.00    +0.062 A 
ATOM     18  C   UNL     1      -4.462   1.828  24.977  0.00  0.00    +0.130 A 
ATOM     19  C   UNL     1      -4.042   4.141  25.333  0.00  0.00    +0.016 A 
ATOM     21  C   UNL     1      -5.397   4.316  25.592  0.00  0.00    +0.020 A 
ATOM     22  C   UNL     1      -6.219   3.203  25.525  0.00  0.00    +0.113 A 
ATOM     25  H   UNL     1      -3.001   0.361  24.840  0.00  0.00    +0.148 HD
BRANCH   6  20
ATOM     20  C   UNL     1      -4.839  -0.609  24.592  0.00  0.00    +0.131 C 
BRANCH  20  23
ATOM     23  C   UNL     1      -4.316  -1.591  23.559  0.00  0.00    +0.178 C 
BRANCH  23   2
ATOM      2  O   UNL     1      -4.219  -2.885  24.142  0.00  0.00    -0.381 OA
ATOM     24  C   UNL     1      -3.506  -2.850  25.370  0.00  0.00    +0.194 C 
ENDBRANCH  23   2
ENDBRANCH  20  23
ENDBRANCH   6  20
ENDBRANCH  16  17
BRANCH  13   8
ATOM      3  N   UNL     1       0.494  -0.427  23.626  0.00  0.00    -0.289 NA
ATOM      8  C   UNL     1       0.854   0.857  24.261  0.00  0.00    +0.146 C 
ATOM      9  C   UNL     1       1.929   1.461  23.339  0.00  0.00    +0.030 C 
ATOM     10  C   UNL     1       1.678  -0.869  22.888  0.00  0.00    +0.085 C 
ATOM     11  C   UNL     1       2.151   0.420  22.250  0.00  0.00    +0.017 C 
BRANCH   3  12
ATOM     12  C   UNL     1       0.034  -1.429  24.578  0.00  0.00    +0.051 C 
ATOM     14  C   UNL     1      -0.884  -2.433  23.887  0.00  0.00    +0.024 C 
ATOM     15  C   UNL     1      -0.681  -0.740  25.735  0.00  0.00    +0.024 C 
ENDBRANCH   3  12
ENDBRANCH  13   8
TORSDOF 6
ENDMDL
MODEL 9
REMARK VINA RESULT:       0.5     18.381     20.827
REMARK  Name = 45783396
REMARK  9 active torsions:
REMARK  status: ('A' for Active; 'I' for Inactive)
REMARK    1  A    between atoms: O_2  and  C_23
REMARK    2  A    between atoms: O_2  and  C_24
REMARK    3  A    between atoms: N_3  and  C_12
REMARK    4  A    between atoms: N_6  and  C_20
REMARK    5  A    between atoms: C_8  and  C_13
REMARK    6  A    between atoms: C_12  and  C_14
REMARK    7  A    between atoms: C_12  and  C_15
REMARK    8  A    between atoms: C_16  and  C_17
REMARK    9  A    between atoms: C_20  and  C_23
REMARK                            x       y       z     vdW  Elec       q    Type
REMARK                         _______ _______ _______ _____ _____    ______ ____
ROOT
ATOM      1  O   UNL     1      -0.511   0.189  23.902  0.00  0.00    -0.336 OA
ATOM      4  N   UNL     1      -2.427   1.309  24.208  0.00  0.00    -0.190 NA
ATOM      5  N   UNL     1      -0.149   1.518  24.158  0.00  0.00    -0.056 NA
ATOM     13  C   UNL     1      -1.870   0.154  23.949  0.00  0.00    +0.245 A 
ATOM     16  C   UNL     1      -1.332   2.115  24.328  0.00  0.00    +0.205 A 
ENDROOT
BRANCH  16  17
ATOM      6  N   UNL     1      -3.778   3.257  25.211  0.00  0.00    -0.326 N 
ATOM      7  N   UNL     1      -2.787   5.403  25.329  0.00  0.00    -0.240 NA
ATOM     17  C   UNL     1      -1.456   3.515  24.617  0.00  0.00    +0.062 A 
ATOM     18  C   UNL     1      -2.641   4.089  25.049  0.00  0.00    +0.130 A 
ATOM     19  C   UNL     1      -0.350   4.343  24.464  0.00  0.00    +0.016 A 
ATOM     21  C   UNL     1      -0.461   5.701  24.743  0.00  0.00    +0.020 A 
ATOM     22  C   UNL     1      -1.690   6.177  25.168  0.00  0.00    +0.113 A 
ATOM     25  H   UNL     1      -3.592   2.272  25.366  0.00  0.00    +0.148 HD
BRANCH   6  20
ATOM     20  C   UNL     1      -5.040   3.757  25.650  0.00  0.00    +0.131 C 
BRANCH  20  23
ATOM     23  C   UNL     1      -5.795   2.675  26.402  0.00  0.00    +0.178 C 
BRANCH  23   2
ATOM      2  O   UNL     1      -5.678   1.443  25.702  0.00  0.00    -0.381 OA
ATOM     24  C   UNL     1      -6.490   1.428  24.536  0.00  0.00    +0.194 C 
ENDBRANCH  23   2
ENDBRANCH  20  23
ENDBRANCH   6  20
ENDBRANCH  16  17
BRANCH  13   8
ATOM      3  N   UNL     1      -2.539  -2.043  24.908  0.00  0.00    -0.289 NA
ATOM      8  C   UNL     1      -2.518  -1.192  23.702  0.00  0.00    +0.146 C 
ATOM      9  C   UNL     1      -3.995  -1.072  23.282  0.00  0.00    +0.030 C 
ATOM     10  C   UNL     1      -3.715  -2.904  24.786  0.00  0.00    +0.085 C 
ATOM     11  C   UNL     1      -4.761  -1.936  24.274  0.00  0.00    +0.017 C 
BRANCH   3  12
ATOM     12  C   UNL     1      -1.313  -2.810  25.091  0.00  0.00    +0.051 C 
ATOM     14  C   UNL     1      -0.265  -1.968  25.813  0.00  0.00    +0.024 C 
ATOM     15  C   UNL     1      -0.800  -3.278  23.733  0.00  0.00    +0.024 C 
ENDBRANCH   3  12
ENDBRANCH  13   8
TORSDOF 6
ENDMDL
MODEL 10
REMARK VINA RESULT:       0.9     18.634     21.298
REMARK  Name = 45783396
REMARK  9 active torsions:
REMARK  status: ('A' for Active; 'I' for Inactive)
REMARK    1  A    between atoms: O_2  and  C_23
REMARK    2  A    between atoms: O_2  and  C_24
REMARK    3  A    between atoms: N_3  and  C_12
REMARK    4  A    between atoms: N_6  and  C_20
REMARK    5  A    between atoms: C_8  and  C_13
REMARK    6  A    between atoms: C_12  and  C_14
REMARK    7  A    between atoms: C_12  and  C_15
REMARK    8  A    between atoms: C_16  and  C_17
REMARK    9  A    between atoms: C_20  and  C_23
REMARK                            x       y       z     vdW  Elec       q    Type
REMARK                         _______ _______ _______ _____ _____    ______ ____
ROOT
ATOM      1  O   UNL     1      -2.975   0.589  22.618  0.00  0.00    -0.336 OA
ATOM      4  N   UNL     1      -3.930   0.523  24.642  0.00  0.00    -0.190 NA
ATOM      5  N   UNL     1      -3.456   1.882  22.864  0.00  0.00    -0.056 NA
ATOM     13  C   UNL     1      -3.297  -0.148  23.714  0.00  0.00    +0.245 A 
ATOM     16  C   UNL     1      -4.005   1.762  24.077  0.00  0.00    +0.205 A 
ENDROOT
BRANCH  16  17
ATOM      6  N   UNL     1      -2.578   4.114  24.782  0.00  0.00    -0.326 N 
ATOM      7  N   UNL     1      -4.524   5.065  25.734  0.00  0.00    -0.240 NA
ATOM     17  C   UNL     1      -4.637   2.860  24.749  0.00  0.00    +0.062 A 
ATOM     18  C   UNL     1      -3.956   4.015  25.101  0.00  0.00    +0.130 A 
ATOM     19  C   UNL     1      -5.988   2.779  25.068  0.00  0.00    +0.016 A 
ATOM     21  C   UNL     1      -6.608   3.839  25.720  0.00  0.00    +0.020 A 
ATOM     22  C   UNL     1      -5.839   4.949  26.028  0.00  0.00    +0.113 A 
ATOM     25  H   UNL     1      -2.255   3.535  24.014  0.00  0.00    +0.148 HD
BRANCH   6  20
ATOM     20  C   UNL     1      -1.795   5.263  25.103  0.00  0.00    +0.131 C 
BRANCH  20  23
ATOM     23  C   UNL     1      -0.317   4.925  25.013  0.00  0.00    +0.178 C 
BRANCH  23   2
ATOM      2  O   UNL     1      -0.162   3.524  24.832  0.00  0.00    -0.381 OA
ATOM     24  C   UNL     1       0.135   2.870  26.058  0.00  0.00    +0.194 C 
ENDBRANCH  23   2
ENDBRANCH  20  23
ENDBRANCH   6  20
ENDBRANCH  16  17
BRANCH  13   8
ATOM      3  N   UNL     1      -1.941  -1.939  24.784  0.00  0.00    -0.289 NA
ATOM      8  C   UNL     1      -2.879  -1.602  23.694  0.00  0.00    +0.146 C 
ATOM      9  C   UNL     1      -4.067  -2.564  23.889  0.00  0.00    +0.030 C 
ATOM     10  C   UNL     1      -2.166  -3.349  25.102  0.00  0.00    +0.085 C 
ATOM     11  C   UNL     1      -3.678  -3.441  25.072  0.00  0.00    +0.017 C 
BRANCH   3  12
ATOM     12  C   UNL     1      -0.550  -1.668  24.447  0.00  0.00    +0.051 C 
ATOM     14  C   UNL     1       0.380  -2.441  25.379  0.00  0.00    +0.024 C 
ATOM     15  C   UNL     1      -0.289  -0.167  24.536  0.00  0.00    +0.024 C 
ENDBRANCH   3  12
ENDBRANCH  13   8
TORSDOF 6
ENDMDL
