MODEL 1
REMARK VINA RESULT:      14.8      0.000      0.000
REMARK  Name = 7144233
REMARK  6 active torsions:
REMARK  status: ('A' for Active; 'I' for Inactive)
REMARK    1  A    between atoms: S_1  and  C_26
REMARK    2  A    between atoms: S_1  and  C_32
REMARK    3  A    between atoms: O_4  and  C_27
REMARK    4  A    between atoms: O_4  and  C_33
REMARK    5  A    between atoms: N_7  and  C_23
REMARK    6  A    between atoms: C_15  and  C_20
REMARK                            x       y       z     vdW  Elec       q    Type
REMARK                         _______ _______ _______ _____ _____    ______ ____
ROOT
ATOM      2  O   UNL     1      -1.780   1.745  21.355  0.00  0.00    -0.268 OA
ATOM      3  O   UNL     1      -4.807  -0.669  24.365  0.00  0.00    -0.252 OA
ATOM      5  N   UNL     1      -1.064   0.721  23.336  0.00  0.00    -0.311 N 
ATOM      6  N   UNL     1      -2.735  -1.063  25.316  0.00  0.00    -0.284 N 
ATOM      7  N   UNL     1      -4.055   0.757  26.030  0.00  0.00    -0.266 N 
ATOM      8  C   UNL     1      -1.094  -1.825  23.611  0.00  0.00    +0.027 C 
ATOM      9  C   UNL     1      -0.352  -0.399  25.475  0.00  0.00    +0.054 C 
ATOM     10  C   UNL     1       0.041  -1.586  24.596  0.00  0.00    +0.018 C 
ATOM     11  C   UNL     1      -1.206  -0.599  22.706  0.00  0.00    +0.130 C 
ATOM     12  C   UNL     1      -2.410  -2.119  24.355  0.00  0.00    +0.114 C 
ATOM     13  C   UNL     1      -1.641  -0.752  26.252  0.00  0.00    +0.119 C 
ATOM     14  C   UNL     1      -0.567   0.873  24.646  0.00  0.00    +0.034 A 
ATOM     15  C   UNL     1      -0.335   2.118  25.141  0.00  0.00    +0.002 A 
ATOM     16  C   UNL     1      -1.358   1.820  22.509  0.00  0.00    +0.252 A 
ATOM     17  C   UNL     1      -3.939  -0.340  25.178  0.00  0.00    +0.307 C 
ATOM     18  C   UNL     1      -0.628   3.274  24.317  0.00  0.00    +0.015 A 
ATOM     19  C   UNL     1      -1.121   3.163  23.084  0.00  0.00    +0.071 A 
ATOM     34  H   UNL     1      -3.568   0.739  26.917  0.00  0.00    +0.156 HD
ENDROOT
BRANCH  15  20
ATOM     20  C   UNL     1       0.183   2.328  26.511  0.00  0.00    -0.016 A 
ATOM     21  C   UNL     1       1.515   2.681  26.699  0.00  0.00    +0.009 A 
ATOM     22  C   UNL     1      -0.666   2.167  27.603  0.00  0.00    +0.009 A 
ATOM     24  C   UNL     1       2.005   2.878  27.990  0.00  0.00    +0.015 A 
ATOM     25  C   UNL     1      -0.176   2.364  28.894  0.00  0.00    +0.015 A 
ATOM     26  C   UNL     1       1.159   2.718  29.089  0.00  0.00    +0.008 A 
BRANCH  26   1
ATOM      1  S   UNL     1       1.783   2.970  30.738  0.00  0.00    -0.129 S 
ATOM     32  C   UNL     1       0.389   2.402  31.752  0.00  0.00    +0.090 C 
ENDBRANCH  26   1
ENDBRANCH  15  20
BRANCH   7  23
ATOM     23  C   UNL     1      -4.830   1.923  25.819  0.00  0.00    +0.077 A 
ATOM     27  C   UNL     1      -4.243   3.185  25.897  0.00  0.00    +0.141 A 
ATOM     28  C   UNL     1      -6.186   1.796  25.530  0.00  0.00    +0.027 A 
ATOM     29  C   UNL     1      -5.019   4.324  25.686  0.00  0.00    +0.047 A 
ATOM     30  C   UNL     1      -6.961   2.936  25.320  0.00  0.00    +0.002 A 
ATOM     31  C   UNL     1      -6.378   4.200  25.398  0.00  0.00    +0.004 A 
BRANCH  27   4
ATOM      4  O   UNL     1      -2.917   3.328  26.177  0.00  0.00    -0.493 OA
ATOM     33  C   UNL     1      -2.409   4.659  26.236  0.00  0.00    +0.277 C 
ENDBRANCH  27   4
ENDBRANCH   7  23
TORSDOF 4
ENDMDL
MODEL 2
REMARK VINA RESULT:      16.6      2.924      5.689
REMARK  Name = 7144233
REMARK  6 active torsions:
REMARK  status: ('A' for Active; 'I' for Inactive)
REMARK    1  A    between atoms: S_1  and  C_26
REMARK    2  A    between atoms: S_1  and  C_32
REMARK    3  A    between atoms: O_4  and  C_27
REMARK    4  A    between atoms: O_4  and  C_33
REMARK    5  A    between atoms: N_7  and  C_23
REMARK    6  A    between atoms: C_15  and  C_20
REMARK                            x       y       z     vdW  Elec       q    Type
REMARK                         _______ _______ _______ _____ _____    ______ ____
ROOT
ATOM      2  O   UNL     1      -2.999   3.644  27.597  0.00  0.00    -0.268 OA
ATOM      3  O   UNL     1      -5.252   0.819  24.281  0.00  0.00    -0.252 OA
ATOM      5  N   UNL     1      -2.226   3.386  25.401  0.00  0.00    -0.311 N 
ATOM      6  N   UNL     1      -3.587   1.829  23.031  0.00  0.00    -0.284 N 
ATOM      7  N   UNL     1      -3.221  -0.270  24.041  0.00  0.00    -0.266 N 
ATOM      8  C   UNL     1      -3.551   4.287  23.402  0.00  0.00    +0.027 C 
ATOM      9  C   UNL     1      -1.444   3.073  23.029  0.00  0.00    +0.054 C 
ATOM     10  C   UNL     1      -2.192   4.371  22.724  0.00  0.00    +0.018 C 
ATOM     11  C   UNL     1      -3.328   4.229  24.914  0.00  0.00    +0.130 C 
ATOM     12  C   UNL     1      -4.346   3.074  22.886  0.00  0.00    +0.114 C 
ATOM     13  C   UNL     1      -2.238   1.883  22.443  0.00  0.00    +0.119 C 
ATOM     14  C   UNL     1      -1.236   2.879  24.535  0.00  0.00    +0.034 A 
ATOM     15  C   UNL     1      -0.168   2.211  25.048  0.00  0.00    +0.002 A 
ATOM     16  C   UNL     1      -2.171   3.211  26.796  0.00  0.00    +0.252 A 
ATOM     17  C   UNL     1      -4.106   0.785  23.826  0.00  0.00    +0.307 C 
ATOM     18  C   UNL     1      -0.079   2.010  26.481  0.00  0.00    +0.015 A 
ATOM     19  C   UNL     1      -1.011   2.457  27.322  0.00  0.00    +0.071 A 
ATOM     34  H   UNL     1      -2.509  -0.460  23.347  0.00  0.00    +0.156 HD
ENDROOT
BRANCH  15  20
ATOM     20  C   UNL     1       0.894   1.657  24.180  0.00  0.00    -0.016 A 
ATOM     21  C   UNL     1       0.789   0.353  23.708  0.00  0.00    +0.009 A 
ATOM     22  C   UNL     1       1.993   2.444  23.844  0.00  0.00    +0.009 A 
ATOM     24  C   UNL     1       1.792  -0.171  22.891  0.00  0.00    +0.015 A 
ATOM     25  C   UNL     1       2.995   1.919  23.028  0.00  0.00    +0.015 A 
ATOM     26  C   UNL     1       2.895   0.613  22.551  0.00  0.00    +0.008 A 
BRANCH  26   1
ATOM      1  S   UNL     1       4.175  -0.056  21.508  0.00  0.00    -0.129 S 
ATOM     32  C   UNL     1       5.564  -0.194  22.669  0.00  0.00    +0.090 C 
ENDBRANCH  26   1
ENDBRANCH  15  20
BRANCH   7  23
ATOM     23  C   UNL     1      -3.214  -1.168  25.136  0.00  0.00    +0.077 A 
ATOM     27  C   UNL     1      -3.346  -2.540  24.926  0.00  0.00    +0.141 A 
ATOM     28  C   UNL     1      -3.072  -0.665  26.427  0.00  0.00    +0.027 A 
ATOM     29  C   UNL     1      -3.337  -3.411  26.015  0.00  0.00    +0.047 A 
ATOM     30  C   UNL     1      -3.064  -1.538  27.515  0.00  0.00    +0.002 A 
ATOM     31  C   UNL     1      -3.197  -2.911  27.309  0.00  0.00    +0.004 A 
BRANCH  27   4
ATOM      4  O   UNL     1      -3.485  -3.049  23.670  0.00  0.00    -0.493 OA
ATOM     33  C   UNL     1      -4.785  -2.988  23.087  0.00  0.00    +0.277 C 
ENDBRANCH  27   4
ENDBRANCH   7  23
TORSDOF 4
ENDMDL
MODEL 3
REMARK VINA RESULT:      17.6      2.774      4.428
REMARK  Name = 7144233
REMARK  6 active torsions:
REMARK  status: ('A' for Active; 'I' for Inactive)
REMARK    1  A    between atoms: S_1  and  C_26
REMARK    2  A    between atoms: S_1  and  C_32
REMARK    3  A    between atoms: O_4  and  C_27
REMARK    4  A    between atoms: O_4  and  C_33
REMARK    5  A    between atoms: N_7  and  C_23
REMARK    6  A    between atoms: C_15  and  C_20
REMARK                            x       y       z     vdW  Elec       q    Type
REMARK                         _______ _______ _______ _____ _____    ______ ____
ROOT
ATOM      2  O   UNL     1      -4.562   0.847  22.188  0.00  0.00    -0.268 OA
ATOM      3  O   UNL     1      -3.415   1.621  26.892  0.00  0.00    -0.252 OA
ATOM      5  N   UNL     1      -2.737  -0.174  23.243  0.00  0.00    -0.311 N 
ATOM      6  N   UNL     1      -1.915  -0.029  26.275  0.00  0.00    -0.284 N 
ATOM      7  N   UNL     1      -1.319   2.248  26.128  0.00  0.00    -0.266 N 
ATOM      8  C   UNL     1      -3.065  -1.899  25.108  0.00  0.00    +0.027 C 
ATOM      9  C   UNL     1      -0.792  -1.243  24.429  0.00  0.00    +0.054 C 
ATOM     10  C   UNL     1      -1.719  -2.439  24.646  0.00  0.00    +0.018 C 
ATOM     11  C   UNL     1      -3.655  -1.057  23.976  0.00  0.00    +0.130 C 
ATOM     12  C   UNL     1      -2.911  -1.093  26.411  0.00  0.00    +0.114 C 
ATOM     13  C   UNL     1      -0.612  -0.495  25.770  0.00  0.00    +0.119 C 
ATOM     14  C   UNL     1      -1.337  -0.289  23.361  0.00  0.00    +0.034 A 
ATOM     15  C   UNL     1      -0.528   0.464  22.568  0.00  0.00    +0.002 A 
ATOM     16  C   UNL     1      -3.348   0.717  22.341  0.00  0.00    +0.252 A 
ATOM     17  C   UNL     1      -2.300   1.316  26.463  0.00  0.00    +0.307 C 
ATOM     18  C   UNL     1      -1.123   1.394  21.628  0.00  0.00    +0.015 A 
ATOM     19  C   UNL     1      -2.442   1.542  21.511  0.00  0.00    +0.071 A 
ATOM     34  H   UNL     1      -0.346   1.980  26.198  0.00  0.00    +0.156 HD
ENDROOT
BRANCH  15  20
ATOM     20  C   UNL     1       0.946   0.381  22.658  0.00  0.00    -0.016 A 
ATOM     21  C   UNL     1       1.632   1.214  23.536  0.00  0.00    +0.009 A 
ATOM     22  C   UNL     1       1.637  -0.527  21.860  0.00  0.00    +0.009 A 
ATOM     24  C   UNL     1       3.023   1.138  23.620  0.00  0.00    +0.015 A 
ATOM     25  C   UNL     1       3.027  -0.602  21.944  0.00  0.00    +0.015 A 
ATOM     26  C   UNL     1       3.721   0.230  22.823  0.00  0.00    +0.008 A 
BRANCH  26   1
ATOM      1  S   UNL     1       5.496   0.132  22.930  0.00  0.00    -0.129 S 
ATOM     32  C   UNL     1       5.723  -0.839  24.446  0.00  0.00    +0.090 C 
ENDBRANCH  26   1
ENDBRANCH  15  20
BRANCH   7  23
ATOM     23  C   UNL     1      -1.522   3.590  25.722  0.00  0.00    +0.077 A 
ATOM     27  C   UNL     1      -2.787   4.169  25.798  0.00  0.00    +0.141 A 
ATOM     28  C   UNL     1      -0.440   4.326  25.245  0.00  0.00    +0.027 A 
ATOM     29  C   UNL     1      -2.970   5.491  25.394  0.00  0.00    +0.047 A 
ATOM     30  C   UNL     1      -0.625   5.648  24.842  0.00  0.00    +0.002 A 
ATOM     31  C   UNL     1      -1.889   6.231  24.915  0.00  0.00    +0.004 A 
BRANCH  27   4
ATOM      4  O   UNL     1      -3.857   3.463  26.262  0.00  0.00    -0.493 OA
ATOM     33  C   UNL     1      -5.107   3.680  25.612  0.00  0.00    +0.277 C 
ENDBRANCH  27   4
ENDBRANCH   7  23
TORSDOF 4
ENDMDL
