MODEL 1
REMARK VINA RESULT:      30.1      0.000      0.000
REMARK  Name = 11865883
REMARK  4 active torsions:
REMARK  status: ('A' for Active; 'I' for Inactive)
REMARK    1  A    between atoms: N_9  and  C_17
REMARK    2  A    between atoms: C_21  and  C_22
REMARK    3  A    between atoms: C_27  and  C_29
REMARK    4  A    between atoms: C_28  and  C_30
REMARK                            x       y       z     vdW  Elec       q    Type
REMARK                         _______ _______ _______ _____ _____    ______ ____
ROOT
ATOM      1  O   UNL     1       1.186   2.846  24.463  0.00  0.00    -0.273 OA
ATOM      2  O   UNL     1       1.040  -1.464  20.759  0.00  0.00    -0.274 OA
ATOM      3  O   UNL     1      -0.571   1.766  26.659  0.00  0.00    -0.275 OA
ATOM      6  N   UNL     1      -1.454   1.961  24.529  0.00  0.00    -0.288 N 
ATOM      7  N   UNL     1       1.889   1.032  23.203  0.00  0.00    -0.287 N 
ATOM      8  N   UNL     1      -0.444   0.018  21.611  0.00  0.00    -0.309 N 
ATOM     11  C   UNL     1      -0.436   1.161  23.851  0.00  0.00    +0.182 C 
ATOM     12  C   UNL     1      -0.850   1.181  22.375  0.00  0.00    +0.104 C 
ATOM     13  C   UNL     1       1.735  -0.364  22.790  0.00  0.00    +0.164 C 
ATOM     14  C   UNL     1      -2.363   1.366  22.444  0.00  0.00    +0.043 C 
ATOM     15  C   UNL     1      -2.519   2.340  23.603  0.00  0.00    +0.110 C 
ATOM     16  C   UNL     1       3.175  -0.816  22.502  0.00  0.00    +0.055 C 
ATOM     17  C   UNL     1       3.869   0.475  22.068  0.00  0.00    +0.093 C 
ATOM     18  C   UNL     1       0.951   1.776  23.907  0.00  0.00    +0.239 C 
ATOM     19  C   UNL     1       3.248   1.508  22.997  0.00  0.00    +0.131 C 
ATOM     20  C   UNL     1       0.791  -0.596  21.603  0.00  0.00    +0.234 C 
ATOM     22  C   UNL     1      -1.490   2.097  25.908  0.00  0.00    +0.219 C 
ATOM     36  H   UNL     1      -1.054  -0.232  20.837  0.00  0.00    +0.149 HD
ENDROOT
BRANCH  22  21
ATOM      5  O   UNL     1      -6.300   5.831  25.009  0.00  0.00    -0.276 OA
ATOM     10  N   UNL     1      -5.283   4.010  26.031  0.00  0.00    -0.302 N 
ATOM     21  C   UNL     1      -2.743   2.698  26.470  0.00  0.00    +0.078 C 
ATOM     23  C   UNL     1      -3.966   1.927  25.967  0.00  0.00    +0.032 C 
ATOM     24  C   UNL     1      -2.824   4.173  26.065  0.00  0.00    +0.032 C 
ATOM     25  C   UNL     1      -5.263   2.594  26.419  0.00  0.00    +0.108 C 
ATOM     26  C   UNL     1      -4.145   4.793  26.516  0.00  0.00    +0.108 C 
ATOM     28  C   UNL     1      -6.292   4.630  25.295  0.00  0.00    +0.212 C 
ATOM     30  C   UNL     1      -7.427   3.754  24.830  0.00  0.00    +0.109 C 
ENDBRANCH  22  21
BRANCH  17   9
ATOM      4  O   UNL     1       5.364  -0.436  24.336  0.00  0.00    -0.270 OA
ATOM      9  N   UNL     1       5.297   0.409  22.178  0.00  0.00    -0.307 N 
ATOM     27  C   UNL     1       5.936  -0.049  23.321  0.00  0.00    +0.244 C 
ATOM     37  H   UNL     1       5.834   0.822  21.422  0.00  0.00    +0.149 HD
BRANCH  27  29
ATOM     29  C   UNL     1       7.421  -0.030  23.286  0.00  0.00    +0.037 A 
ATOM     31  C   UNL     1       8.082  -0.998  22.557  0.00  0.00    +0.013 A 
ATOM     32  C   UNL     1       8.092   0.954  23.982  0.00  0.00    +0.013 A 
ATOM     33  C   UNL     1       9.476  -0.981  22.524  0.00  0.00    +0.001 A 
ATOM     34  C   UNL     1       9.486   0.971  23.948  0.00  0.00    +0.001 A 
ATOM     35  C   UNL     1      10.178   0.003  23.219  0.00  0.00    +0.000 A 
ENDBRANCH  27  29
ENDBRANCH  17   9
TORSDOF 3
ENDMDL
