MODEL 1
REMARK VINA RESULT:       6.6      0.000      0.000
REMARK  Name = 40776827
REMARK  11 active torsions:
REMARK  status: ('A' for Active; 'I' for Inactive)
REMARK    1  A    between atoms: O_1  and  C_16
REMARK    2  A    between atoms: O_1  and  C_21
REMARK    3  A    between atoms: O_3  and  C_29
REMARK    4  A    between atoms: O_3  and  C_35
REMARK    5  A    between atoms: N_8  and  C_26
REMARK    6  A    between atoms: C_10  and  C_17
REMARK    7  A    between atoms: C_11  and  C_16
REMARK    8  A    between atoms: C_19  and  C_22
REMARK    9  A    between atoms: C_20  and  C_23
REMARK   10  A    between atoms: C_34  and  C_36
REMARK   11  A    between atoms: C_36  and  C_37
REMARK                            x       y       z     vdW  Elec       q    Type
REMARK                         _______ _______ _______ _____ _____    ______ ____
ROOT
ATOM      5  N   UNL     1      -4.748   3.371  25.707  0.00  0.00    -0.296 NA
ATOM      9  C   UNL     1      -5.719   1.268  24.517  0.00  0.00    +0.002 C 
ATOM     10  C   UNL     1      -4.541   0.870  25.448  0.00  0.00    +0.055 C 
ATOM     11  C   UNL     1      -4.855   3.618  24.244  0.00  0.00    +0.095 C 
ATOM     12  C   UNL     1      -5.231   2.320  23.498  0.00  0.00    +0.026 C 
ATOM     13  C   UNL     1      -6.778   1.955  25.406  0.00  0.00    +0.019 C 
ATOM     14  C   UNL     1      -3.890   2.186  25.960  0.00  0.00    +0.094 C 
ATOM     15  C   UNL     1      -6.108   3.076  26.218  0.00  0.00    +0.085 C 
ENDROOT
BRANCH  10  17
ATOM      6  N   UNL     1      -3.866  -1.419  24.913  0.00  0.00    -0.237 NA
ATOM      7  N   UNL     1      -1.701  -1.937  23.990  0.00  0.00    -0.232 NA
ATOM     17  C   UNL     1      -3.510  -0.118  24.922  0.00  0.00    +0.050 A 
ATOM     18  C   UNL     1      -2.285   0.345  24.487  0.00  0.00    +0.052 A 
ATOM     19  C   UNL     1      -1.412  -0.620  24.026  0.00  0.00    +0.075 A 
ATOM     20  C   UNL     1      -2.928  -2.261  24.441  0.00  0.00    +0.127 A 
ATOM     23  C   UNL     1      -3.284  -3.710  24.418  0.00  0.00    +0.088 C 
BRANCH  19  22
ATOM     22  C   UNL     1      -0.098  -0.266  23.544  0.00  0.00    +0.001 A 
ATOM     24  C   UNL     1       0.362  -0.777  22.331  0.00  0.00    +0.013 A 
ATOM     25  C   UNL     1       0.713   0.586  24.295  0.00  0.00    +0.013 A 
ATOM     27  C   UNL     1       1.632  -0.438  21.867  0.00  0.00    +0.046 A 
ATOM     28  C   UNL     1       1.984   0.925  23.830  0.00  0.00    +0.046 A 
ATOM     29  C   UNL     1       2.443   0.414  22.617  0.00  0.00    +0.120 A 
BRANCH  29   3
ATOM      3  O   UNL     1       3.684   0.744  22.165  0.00  0.00    -0.495 OA
ATOM     35  C   UNL     1       4.788   0.431  23.012  0.00  0.00    +0.277 C 
ENDBRANCH  29   3
ENDBRANCH  19  22
ENDBRANCH  10  17
BRANCH  11  16
ATOM     16  C   UNL     1      -3.592   4.262  23.668  0.00  0.00    +0.252 C 
BRANCH  16   1
ATOM      1  O   UNL     1      -2.749   3.234  23.184  0.00  0.00    -0.449 OA
BRANCH   1  21
ATOM      2  O   UNL     1      -0.467   3.100  23.128  0.00  0.00    -0.226 OA
ATOM      8  N   UNL     1      -1.657   3.043  25.143  0.00  0.00    -0.251 N 
ATOM     21  C   UNL     1      -1.509   3.122  23.772  0.00  0.00    +0.405 C 
ATOM     38  H   UNL     1      -2.611   3.077  25.495  0.00  0.00    +0.158 HD
BRANCH   8  26
ATOM     26  C   UNL     1      -0.645   2.918  26.122  0.00  0.00    +0.036 A 
ATOM     30  C   UNL     1       0.542   3.638  25.993  0.00  0.00    +0.024 A 
ATOM     31  C   UNL     1      -0.834   2.074  27.217  0.00  0.00    +0.024 A 
ATOM     32  C   UNL     1       1.540   3.515  26.960  0.00  0.00    +0.013 A 
ATOM     33  C   UNL     1       0.164   1.950  28.183  0.00  0.00    +0.013 A 
ATOM     34  C   UNL     1       1.352   2.670  28.054  0.00  0.00    +0.017 A 
BRANCH  34  36
ATOM      4  O   UNL     1       3.566   2.902  28.834  0.00  0.00    -0.292 OA
ATOM     36  C   UNL     1       2.394   2.541  29.060  0.00  0.00    +0.160 C 
ATOM     37  C   UNL     1       2.070   1.952  30.429  0.00  0.00    +0.091 C 
ENDBRANCH  34  36
ENDBRANCH   8  26
ENDBRANCH   1  21
ENDBRANCH  16   1
ENDBRANCH  11  16
TORSDOF 8
ENDMDL
MODEL 2
REMARK VINA RESULT:       7.4      1.799      5.526
REMARK  Name = 40776827
REMARK  11 active torsions:
REMARK  status: ('A' for Active; 'I' for Inactive)
REMARK    1  A    between atoms: O_1  and  C_16
REMARK    2  A    between atoms: O_1  and  C_21
REMARK    3  A    between atoms: O_3  and  C_29
REMARK    4  A    between atoms: O_3  and  C_35
REMARK    5  A    between atoms: N_8  and  C_26
REMARK    6  A    between atoms: C_10  and  C_17
REMARK    7  A    between atoms: C_11  and  C_16
REMARK    8  A    between atoms: C_19  and  C_22
REMARK    9  A    between atoms: C_20  and  C_23
REMARK   10  A    between atoms: C_34  and  C_36
REMARK   11  A    between atoms: C_36  and  C_37
REMARK                            x       y       z     vdW  Elec       q    Type
REMARK                         _______ _______ _______ _____ _____    ______ ____
ROOT
ATOM      5  N   UNL     1      -5.501   1.438  23.866  0.00  0.00    -0.296 NA
ATOM      9  C   UNL     1      -4.701   2.211  26.221  0.00  0.00    +0.002 C 
ATOM     10  C   UNL     1      -4.055   3.087  25.113  0.00  0.00    +0.055 C 
ATOM     11  C   UNL     1      -5.025   0.268  24.651  0.00  0.00    +0.095 C 
ATOM     12  C   UNL     1      -4.358   0.728  25.964  0.00  0.00    +0.026 C 
ATOM     13  C   UNL     1      -6.231   2.354  26.068  0.00  0.00    +0.019 C 
ATOM     14  C   UNL     1      -4.416   2.443  23.744  0.00  0.00    +0.094 C 
ATOM     15  C   UNL     1      -6.624   2.057  24.610  0.00  0.00    +0.085 C 
ENDROOT
BRANCH  10  17
ATOM      6  N   UNL     1      -2.019   4.087  24.198  0.00  0.00    -0.237 NA
ATOM      7  N   UNL     1       0.084   4.019  25.372  0.00  0.00    -0.232 NA
ATOM     17  C   UNL     1      -2.573   3.411  25.226  0.00  0.00    +0.050 A 
ATOM     18  C   UNL     1      -1.872   3.011  26.345  0.00  0.00    +0.052 A 
ATOM     19  C   UNL     1      -0.534   3.347  26.364  0.00  0.00    +0.075 A 
ATOM     20  C   UNL     1      -0.707   4.354  24.334  0.00  0.00    +0.127 A 
ATOM     23  C   UNL     1      -0.058   5.098  23.216  0.00  0.00    +0.088 C 
BRANCH  19  22
ATOM     22  C   UNL     1       0.310   2.984  27.479  0.00  0.00    +0.001 A 
ATOM     24  C   UNL     1       1.695   2.952  27.324  0.00  0.00    +0.013 A 
ATOM     25  C   UNL     1      -0.262   2.663  28.710  0.00  0.00    +0.013 A 
ATOM     27  C   UNL     1       2.510   2.600  28.399  0.00  0.00    +0.046 A 
ATOM     28  C   UNL     1       0.553   2.311  29.786  0.00  0.00    +0.046 A 
ATOM     29  C   UNL     1       1.938   2.279  29.630  0.00  0.00    +0.120 A 
BRANCH  29   3
ATOM      3  O   UNL     1       2.733   1.934  30.680  0.00  0.00    -0.495 OA
ATOM     35  C   UNL     1       2.082   1.594  31.903  0.00  0.00    +0.277 C 
ENDBRANCH  29   3
ENDBRANCH  19  22
ENDBRANCH  10  17
BRANCH  11  16
ATOM     16  C   UNL     1      -4.109  -0.646  23.835  0.00  0.00    +0.252 C 
BRANCH  16   1
ATOM      1  O   UNL     1      -3.451  -1.528  24.725  0.00  0.00    -0.449 OA
BRANCH   1  21
ATOM      2  O   UNL     1      -1.433  -2.555  25.038  0.00  0.00    -0.226 OA
ATOM      8  N   UNL     1      -1.604  -0.468  23.993  0.00  0.00    -0.251 N 
ATOM     21  C   UNL     1      -2.080  -1.603  24.621  0.00  0.00    +0.405 C 
ATOM     38  H   UNL     1      -2.302   0.218  23.717  0.00  0.00    +0.158 HD
BRANCH   8  26
ATOM     26  C   UNL     1      -0.264  -0.139  23.688  0.00  0.00    +0.036 A 
ATOM     30  C   UNL     1       0.489  -0.975  22.862  0.00  0.00    +0.024 A 
ATOM     31  C   UNL     1       0.307   1.021  24.213  0.00  0.00    +0.024 A 
ATOM     32  C   UNL     1       1.811  -0.649  22.562  0.00  0.00    +0.013 A 
ATOM     33  C   UNL     1       1.629   1.345  23.913  0.00  0.00    +0.013 A 
ATOM     34  C   UNL     1       2.382   0.510  23.087  0.00  0.00    +0.017 A 
BRANCH  34  36
ATOM      4  O   UNL     1       4.043   1.768  21.981  0.00  0.00    -0.292 OA
ATOM     36  C   UNL     1       3.761   0.847  22.774  0.00  0.00    +0.160 C 
ATOM     37  C   UNL     1       4.907   0.070  23.414  0.00  0.00    +0.091 C 
ENDBRANCH  34  36
ENDBRANCH   8  26
ENDBRANCH   1  21
ENDBRANCH  16   1
ENDBRANCH  11  16
TORSDOF 8
ENDMDL
MODEL 3
REMARK VINA RESULT:       8.8      2.850      5.687
REMARK  Name = 40776827
REMARK  11 active torsions:
REMARK  status: ('A' for Active; 'I' for Inactive)
REMARK    1  A    between atoms: O_1  and  C_16
REMARK    2  A    between atoms: O_1  and  C_21
REMARK    3  A    between atoms: O_3  and  C_29
REMARK    4  A    between atoms: O_3  and  C_35
REMARK    5  A    between atoms: N_8  and  C_26
REMARK    6  A    between atoms: C_10  and  C_17
REMARK    7  A    between atoms: C_11  and  C_16
REMARK    8  A    between atoms: C_19  and  C_22
REMARK    9  A    between atoms: C_20  and  C_23
REMARK   10  A    between atoms: C_34  and  C_36
REMARK   11  A    between atoms: C_36  and  C_37
REMARK                            x       y       z     vdW  Elec       q    Type
REMARK                         _______ _______ _______ _____ _____    ______ ____
ROOT
ATOM      5  N   UNL     1      -3.168  -2.689  23.872  0.00  0.00    -0.296 NA
ATOM      9  C   UNL     1      -3.135  -1.552  26.215  0.00  0.00    +0.002 C 
ATOM     10  C   UNL     1      -4.166  -0.854  25.287  0.00  0.00    +0.055 C 
ATOM     11  C   UNL     1      -1.768  -2.374  24.265  0.00  0.00    +0.095 C 
ATOM     12  C   UNL     1      -1.743  -1.518  25.550  0.00  0.00    +0.026 C 
ATOM     13  C   UNL     1      -3.555  -3.035  26.311  0.00  0.00    +0.019 C 
ATOM     14  C   UNL     1      -3.984  -1.448  23.861  0.00  0.00    +0.094 C 
ATOM     15  C   UNL     1      -3.731  -3.604  24.893  0.00  0.00    +0.085 C 
ENDROOT
BRANCH  10  17
ATOM      6  N   UNL     1      -5.346   1.246  25.714  0.00  0.00    -0.237 NA
ATOM      7  N   UNL     1      -4.344   3.394  25.279  0.00  0.00    -0.232 NA
ATOM     17  C   UNL     1      -4.208   0.668  25.276  0.00  0.00    +0.050 A 
ATOM     18  C   UNL     1      -3.111   1.376  24.831  0.00  0.00    +0.052 A 
ATOM     19  C   UNL     1      -3.237   2.750  24.856  0.00  0.00    +0.075 A 
ATOM     20  C   UNL     1      -5.345   2.592  25.688  0.00  0.00    +0.127 A 
ATOM     23  C   UNL     1      -6.587   3.268  26.163  0.00  0.00    +0.088 C 
BRANCH  19  22
ATOM     22  C   UNL     1      -2.160   3.605  24.414  0.00  0.00    +0.001 A 
ATOM     24  C   UNL     1      -1.268   3.157  23.440  0.00  0.00    +0.013 A 
ATOM     25  C   UNL     1      -2.012   4.879  24.964  0.00  0.00    +0.013 A 
ATOM     27  C   UNL     1      -0.227   3.982  23.015  0.00  0.00    +0.046 A 
ATOM     28  C   UNL     1      -0.970   5.704  24.538  0.00  0.00    +0.046 A 
ATOM     29  C   UNL     1      -0.079   5.256  23.565  0.00  0.00    +0.120 A 
BRANCH  29   3
ATOM      3  O   UNL     1       0.938   6.060  23.151  0.00  0.00    -0.495 OA
ATOM     35  C   UNL     1       1.246   6.051  21.758  0.00  0.00    +0.277 C 
ENDBRANCH  29   3
ENDBRANCH  19  22
ENDBRANCH  10  17
BRANCH  11  16
ATOM     16  C   UNL     1      -0.977  -1.722  23.129  0.00  0.00    +0.252 C 
BRANCH  16   1
ATOM      1  O   UNL     1      -0.877  -0.336  23.394  0.00  0.00    -0.449 OA
BRANCH   1  21
ATOM      2  O   UNL     1       0.505   1.011  24.620  0.00  0.00    -0.226 OA
ATOM      8  N   UNL     1       1.343  -0.538  23.078  0.00  0.00    -0.251 N 
ATOM     21  C   UNL     1       0.360   0.133  23.779  0.00  0.00    +0.405 C 
ATOM     38  H   UNL     1       1.024  -1.240  22.416  0.00  0.00    +0.158 HD
BRANCH   8  26
ATOM     26  C   UNL     1       2.744  -0.368  23.165  0.00  0.00    +0.036 A 
ATOM     30  C   UNL     1       3.532  -1.358  23.752  0.00  0.00    +0.024 A 
ATOM     31  C   UNL     1       3.338   0.791  22.664  0.00  0.00    +0.024 A 
ATOM     32  C   UNL     1       4.913  -1.189  23.837  0.00  0.00    +0.013 A 
ATOM     33  C   UNL     1       4.720   0.959  22.750  0.00  0.00    +0.013 A 
ATOM     34  C   UNL     1       5.507  -0.031  23.337  0.00  0.00    +0.017 A 
BRANCH  34  36
ATOM      4  O   UNL     1       7.451   1.074  24.091  0.00  0.00    -0.292 OA
ATOM     36  C   UNL     1       6.948   0.145  23.428  0.00  0.00    +0.160 C 
ATOM     37  C   UNL     1       7.886  -0.815  22.702  0.00  0.00    +0.091 C 
ENDBRANCH  34  36
ENDBRANCH   8  26
ENDBRANCH   1  21
ENDBRANCH  16   1
ENDBRANCH  11  16
TORSDOF 8
ENDMDL
MODEL 4
REMARK VINA RESULT:      10.2      1.691      3.250
REMARK  Name = 40776827
REMARK  11 active torsions:
REMARK  status: ('A' for Active; 'I' for Inactive)
REMARK    1  A    between atoms: O_1  and  C_16
REMARK    2  A    between atoms: O_1  and  C_21
REMARK    3  A    between atoms: O_3  and  C_29
REMARK    4  A    between atoms: O_3  and  C_35
REMARK    5  A    between atoms: N_8  and  C_26
REMARK    6  A    between atoms: C_10  and  C_17
REMARK    7  A    between atoms: C_11  and  C_16
REMARK    8  A    between atoms: C_19  and  C_22
REMARK    9  A    between atoms: C_20  and  C_23
REMARK   10  A    between atoms: C_34  and  C_36
REMARK   11  A    between atoms: C_36  and  C_37
REMARK                            x       y       z     vdW  Elec       q    Type
REMARK                         _______ _______ _______ _____ _____    ______ ____
ROOT
ATOM      5  N   UNL     1      -4.218   0.000  25.513  0.00  0.00    -0.296 NA
ATOM      9  C   UNL     1      -3.373   0.092  23.051  0.00  0.00    +0.002 C 
ATOM     10  C   UNL     1      -2.181  -0.105  24.028  0.00  0.00    +0.055 C 
ATOM     11  C   UNL     1      -4.789   1.188  24.823  0.00  0.00    +0.095 C 
ATOM     12  C   UNL     1      -4.141   1.374  23.434  0.00  0.00    +0.026 C 
ATOM     13  C   UNL     1      -4.334  -1.096  23.276  0.00  0.00    +0.019 C 
ATOM     14  C   UNL     1      -2.735   0.054  25.472  0.00  0.00    +0.094 C 
ATOM     15  C   UNL     1      -4.658  -1.208  24.776  0.00  0.00    +0.085 C 
ENDROOT
BRANCH  10  17
ATOM      6  N   UNL     1      -1.084   2.049  23.654  0.00  0.00    -0.237 NA
ATOM      7  N   UNL     1       1.302   2.244  23.383  0.00  0.00    -0.232 NA
ATOM     17  C   UNL     1      -0.921   0.718  23.798  0.00  0.00    +0.050 A 
ATOM     18  C   UNL     1       0.304   0.085  23.748  0.00  0.00    +0.052 A 
ATOM     19  C   UNL     1       1.392   0.908  23.536  0.00  0.00    +0.075 A 
ATOM     20  C   UNL     1       0.053   2.741  23.452  0.00  0.00    +0.127 A 
ATOM     23  C   UNL     1      -0.087   4.217  23.285  0.00  0.00    +0.088 C 
BRANCH  19  22
ATOM     22  C   UNL     1       2.730   0.369  23.461  0.00  0.00    +0.001 A 
ATOM     24  C   UNL     1       2.956  -0.979  23.737  0.00  0.00    +0.013 A 
ATOM     25  C   UNL     1       3.797   1.199  23.116  0.00  0.00    +0.013 A 
ATOM     27  C   UNL     1       4.248  -1.499  23.667  0.00  0.00    +0.046 A 
ATOM     28  C   UNL     1       5.089   0.679  23.046  0.00  0.00    +0.046 A 
ATOM     29  C   UNL     1       5.314  -0.669  23.321  0.00  0.00    +0.120 A 
BRANCH  29   3
ATOM      3  O   UNL     1       6.576  -1.176  23.254  0.00  0.00    -0.495 OA
ATOM     35  C   UNL     1       7.640  -0.245  23.061  0.00  0.00    +0.277 C 
ENDBRANCH  29   3
ENDBRANCH  19  22
ENDBRANCH  10  17
BRANCH  11  16
ATOM     16  C   UNL     1      -4.693   2.457  25.672  0.00  0.00    +0.252 C 
BRANCH  16   1
ATOM      1  O   UNL     1      -3.923   3.410  24.965  0.00  0.00    -0.449 OA
BRANCH   1  21
ATOM      2  O   UNL     1      -2.277   4.934  25.411  0.00  0.00    -0.226 OA
ATOM      8  N   UNL     1      -2.215   2.762  26.281  0.00  0.00    -0.251 N 
ATOM     21  C   UNL     1      -2.741   3.809  25.550  0.00  0.00    +0.405 C 
ATOM     38  H   UNL     1      -2.749   1.897  26.276  0.00  0.00    +0.158 HD
BRANCH   8  26
ATOM     26  C   UNL     1      -1.019   2.741  27.035  0.00  0.00    +0.036 A 
ATOM     30  C   UNL     1       0.215   2.702  26.385  0.00  0.00    +0.024 A 
ATOM     31  C   UNL     1      -1.073   2.759  28.429  0.00  0.00    +0.024 A 
ATOM     32  C   UNL     1       1.394   2.681  27.130  0.00  0.00    +0.013 A 
ATOM     33  C   UNL     1       0.106   2.737  29.173  0.00  0.00    +0.013 A 
ATOM     34  C   UNL     1       1.340   2.698  28.523  0.00  0.00    +0.017 A 
BRANCH  34  36
ATOM      4  O   UNL     1       3.572   3.332  28.950  0.00  0.00    -0.292 OA
ATOM     36  C   UNL     1       2.570   2.675  29.298  0.00  0.00    +0.160 C 
ATOM     37  C   UNL     1       2.663   1.835  30.568  0.00  0.00    +0.091 C 
ENDBRANCH  34  36
ENDBRANCH   8  26
ENDBRANCH   1  21
ENDBRANCH  16   1
ENDBRANCH  11  16
TORSDOF 8
ENDMDL
