MODEL 1
REMARK VINA RESULT:      -4.4      0.000      0.000
REMARK  Name = 75367099
REMARK  8 active torsions:
REMARK  status: ('A' for Active; 'I' for Inactive)
REMARK    1  A    between atoms: S_1  and  N_8
REMARK    2  A    between atoms: S_1  and  C_19
REMARK    3  A    between atoms: O_3  and  C_10
REMARK    4  A    between atoms: N_6  and  C_9
REMARK    5  A    between atoms: N_6  and  C_11
REMARK    6  A    between atoms: N_8  and  C_16
REMARK    7  A    between atoms: C_12  and  C_16
REMARK    8  A    between atoms: C_24  and  C_25
REMARK                            x       y       z     vdW  Elec       q    Type
REMARK                         _______ _______ _______ _____ _____    ______ ____
ROOT
ATOM      2  O   UNL     1      -1.405   3.669  25.727  0.00  0.00    -0.371 OA
ATOM      9  C   UNL     1      -0.573   1.771  24.569  0.00  0.00    +0.111 C 
ATOM     10  C   UNL     1      -1.960   2.101  24.046  0.00  0.00    +0.164 C 
ATOM     12  C   UNL     1      -2.093   3.557  24.470  0.00  0.00    +0.164 C 
ATOM     13  C   UNL     1      -0.566   2.513  25.895  0.00  0.00    +0.181 C 
ENDROOT
BRANCH  10   3
ATOM      3  O   UNL     1      -2.064   1.948  22.645  0.00  0.00    -0.388 OA
ATOM     28  H   UNL     1      -1.463   1.237  22.367  0.00  0.00    +0.210 HD
ENDBRANCH  10   3
BRANCH   9   6
ATOM      6  N   UNL     1      -0.330   0.345  24.717  0.00  0.00    -0.306 NA
ATOM     26  H   UNL     1      -1.177  -0.179  24.501  0.00  0.00    +0.123 HD
BRANCH   6  11
ATOM      7  N   UNL     1       2.314   0.262  21.384  0.00  0.00    -0.316 NA
ATOM     11  C   UNL     1       0.756  -0.090  23.841  0.00  0.00    +0.056 C 
ATOM     14  C   UNL     1       0.207  -0.475  22.464  0.00  0.00    +0.034 C 
ATOM     15  C   UNL     1       1.817   1.006  23.698  0.00  0.00    +0.034 C 
ATOM     17  C   UNL     1       1.343  -0.828  21.503  0.00  0.00    +0.082 C 
ATOM     18  C   UNL     1       2.891   0.596  22.689  0.00  0.00    +0.082 C 
ATOM     27  H   UNL     1       3.060  -0.020  20.748  0.00  0.00    +0.122 HD
ENDBRANCH   6  11
ENDBRANCH   9   6
BRANCH  12  16
ATOM     16  C   UNL     1      -3.535   4.006  24.632  0.00  0.00    +0.140 C 
BRANCH  16   8
ATOM      8  N   UNL     1      -4.438   2.986  24.065  0.00  0.00    -0.187 NA
ATOM     29  H   UNL     1      -4.777   3.170  23.113  0.00  0.00    +0.148 HD
BRANCH   8   1
ATOM      1  S   UNL     1      -5.397   2.030  25.095  0.00  0.00    +0.058 S 
ATOM      4  O   UNL     1      -6.727   1.903  24.532  0.00  0.00    -0.153 OA
ATOM      5  O   UNL     1      -5.224   2.487  26.461  0.00  0.00    -0.153 OA
BRANCH   1  19
ATOM     19  C   UNL     1      -4.601   0.456  24.973  0.00  0.00    +0.105 A 
ATOM     20  C   UNL     1      -3.930  -0.072  26.076  0.00  0.00    +0.029 A 
ATOM     21  C   UNL     1      -4.641  -0.255  23.775  0.00  0.00    +0.029 A 
ATOM     22  C   UNL     1      -3.300  -1.312  25.980  0.00  0.00    +0.005 A 
ATOM     23  C   UNL     1      -4.011  -1.495  23.679  0.00  0.00    +0.005 A 
ATOM     24  C   UNL     1      -3.340  -2.024  24.781  0.00  0.00    -0.050 A 
ATOM     25  C   UNL     1      -2.666  -3.350  24.679  0.00  0.00    +0.044 C 
ENDBRANCH   1  19
ENDBRANCH   8   1
ENDBRANCH  16   8
ENDBRANCH  12  16
TORSDOF 7
ENDMDL
MODEL 2
REMARK VINA RESULT:      -4.1      1.794      2.277
REMARK  Name = 75367099
REMARK  8 active torsions:
REMARK  status: ('A' for Active; 'I' for Inactive)
REMARK    1  A    between atoms: S_1  and  N_8
REMARK    2  A    between atoms: S_1  and  C_19
REMARK    3  A    between atoms: O_3  and  C_10
REMARK    4  A    between atoms: N_6  and  C_9
REMARK    5  A    between atoms: N_6  and  C_11
REMARK    6  A    between atoms: N_8  and  C_16
REMARK    7  A    between atoms: C_12  and  C_16
REMARK    8  A    between atoms: C_24  and  C_25
REMARK                            x       y       z     vdW  Elec       q    Type
REMARK                         _______ _______ _______ _____ _____    ______ ____
ROOT
ATOM      2  O   UNL     1      -0.933   1.124  26.115  0.00  0.00    -0.371 OA
ATOM      9  C   UNL     1       0.536   1.023  24.252  0.00  0.00    +0.111 C 
ATOM     10  C   UNL     1      -0.205   2.347  24.226  0.00  0.00    +0.164 C 
ATOM     12  C   UNL     1      -0.647   2.464  25.678  0.00  0.00    +0.164 C 
ATOM     13  C   UNL     1      -0.345   0.203  25.180  0.00  0.00    +0.181 C 
ENDROOT
BRANCH  10   3
ATOM      3  O   UNL     1       0.622   3.427  23.839  0.00  0.00    -0.388 OA
ATOM     28  H   UNL     1       1.437   3.066  23.451  0.00  0.00    +0.210 HD
ENDBRANCH  10   3
BRANCH   9   6
ATOM      6  N   UNL     1       0.693   0.417  22.939  0.00  0.00    -0.306 NA
ATOM     26  H   UNL     1       0.399   1.070  22.215  0.00  0.00    +0.123 HD
BRANCH   6  11
ATOM      7  N   UNL     1       4.834  -0.207  23.694  0.00  0.00    -0.316 NA
ATOM     11  C   UNL     1       2.082   0.022  22.713  0.00  0.00    +0.056 C 
ATOM     14  C   UNL     1       3.007   1.237  22.841  0.00  0.00    +0.034 C 
ATOM     15  C   UNL     1       2.508  -1.071  23.698  0.00  0.00    +0.034 C 
ATOM     17  C   UNL     1       4.473   0.820  22.714  0.00  0.00    +0.082 C 
ATOM     18  C   UNL     1       3.994  -1.398  23.539  0.00  0.00    +0.082 C 
ATOM     27  H   UNL     1       5.812  -0.466  23.565  0.00  0.00    +0.122 HD
ENDBRANCH   6  11
ENDBRANCH   9   6
BRANCH  12  16
ATOM     16  C   UNL     1      -1.875   3.337  25.864  0.00  0.00    +0.140 C 
BRANCH  16   8
ATOM      8  N   UNL     1      -2.423   3.710  24.546  0.00  0.00    -0.187 NA
ATOM     29  H   UNL     1      -2.037   4.567  24.128  0.00  0.00    +0.148 HD
BRANCH   8   1
ATOM      1  S   UNL     1      -3.998   3.238  24.113  0.00  0.00    +0.058 S 
ATOM      4  O   UNL     1      -4.237   3.579  22.724  0.00  0.00    -0.153 OA
ATOM      5  O   UNL     1      -4.922   3.678  25.141  0.00  0.00    -0.153 OA
BRANCH   1  19
ATOM     19  C   UNL     1      -3.895   1.477  24.232  0.00  0.00    +0.105 A 
ATOM     20  C   UNL     1      -4.372   0.827  25.370  0.00  0.00    +0.029 A 
ATOM     21  C   UNL     1      -3.332   0.740  23.191  0.00  0.00    +0.029 A 
ATOM     22  C   UNL     1      -4.288  -0.562  25.466  0.00  0.00    +0.005 A 
ATOM     23  C   UNL     1      -3.248  -0.648  23.287  0.00  0.00    +0.005 A 
ATOM     24  C   UNL     1      -3.726  -1.299  24.424  0.00  0.00    -0.050 A 
ATOM     25  C   UNL     1      -3.636  -2.785  24.527  0.00  0.00    +0.044 C 
ENDBRANCH   1  19
ENDBRANCH   8   1
ENDBRANCH  16   8
ENDBRANCH  12  16
TORSDOF 7
ENDMDL
MODEL 3
REMARK VINA RESULT:      -3.9     15.239     17.554
REMARK  Name = 75367099
REMARK  8 active torsions:
REMARK  status: ('A' for Active; 'I' for Inactive)
REMARK    1  A    between atoms: S_1  and  N_8
REMARK    2  A    between atoms: S_1  and  C_19
REMARK    3  A    between atoms: O_3  and  C_10
REMARK    4  A    between atoms: N_6  and  C_9
REMARK    5  A    between atoms: N_6  and  C_11
REMARK    6  A    between atoms: N_8  and  C_16
REMARK    7  A    between atoms: C_12  and  C_16
REMARK    8  A    between atoms: C_24  and  C_25
REMARK                            x       y       z     vdW  Elec       q    Type
REMARK                         _______ _______ _______ _____ _____    ______ ____
ROOT
ATOM      2  O   UNL     1      -3.954 -10.306  14.135  0.00  0.00    -0.371 OA
ATOM      9  C   UNL     1      -6.109 -10.317  15.135  0.00  0.00    +0.111 C 
ATOM     10  C   UNL     1      -6.249  -9.982  13.661  0.00  0.00    +0.164 C 
ATOM     12  C   UNL     1      -4.938 -10.527  13.110  0.00  0.00    +0.164 C 
ATOM     13  C   UNL     1      -4.636 -10.027  15.371  0.00  0.00    +0.181 C 
ENDROOT
BRANCH  10   3
ATOM      3  O   UNL     1      -7.370 -10.603  13.065  0.00  0.00    -0.388 OA
ATOM     28  H   UNL     1      -7.090 -11.461  12.704  0.00  0.00    +0.210 HD
ENDBRANCH  10   3
BRANCH   9   6
ATOM      6  N   UNL     1      -6.984  -9.539  15.995  0.00  0.00    -0.306 NA
ATOM     26  H   UNL     1      -7.803  -9.229  15.474  0.00  0.00    +0.123 HD
BRANCH   6  11
ATOM      7  N   UNL     1      -8.407 -10.426  19.906  0.00  0.00    -0.316 NA
ATOM     11  C   UNL     1      -7.404 -10.324  17.154  0.00  0.00    +0.056 C 
ATOM     14  C   UNL     1      -6.513 -10.009  18.360  0.00  0.00    +0.034 C 
ATOM     15  C   UNL     1      -8.872 -10.051  17.498  0.00  0.00    +0.034 C 
ATOM     17  C   UNL     1      -7.008 -10.741  19.608  0.00  0.00    +0.082 C 
ATOM     18  C   UNL     1      -9.276 -10.781  18.780  0.00  0.00    +0.082 C 
ATOM     27  H   UNL     1      -8.700 -10.945  20.733  0.00  0.00    +0.122 HD
ENDBRANCH   6  11
ENDBRANCH   9   6
BRANCH  12  16
ATOM     16  C   UNL     1      -4.500  -9.852  11.823  0.00  0.00    +0.140 C 
BRANCH  16   8
ATOM      8  N   UNL     1      -5.332 -10.331  10.703  0.00  0.00    -0.187 NA
ATOM     29  H   UNL     1      -5.669 -11.299  10.780  0.00  0.00    +0.148 HD
BRANCH   8   1
ATOM      1  S   UNL     1      -5.141  -9.662   9.151  0.00  0.00    +0.058 S 
ATOM      4  O   UNL     1      -4.917 -10.727   8.193  0.00  0.00    -0.153 OA
ATOM      5  O   UNL     1      -4.217  -8.546   9.229  0.00  0.00    -0.153 OA
BRANCH   1  19
ATOM     19  C   UNL     1      -6.745  -8.984   8.848  0.00  0.00    +0.105 A 
ATOM     20  C   UNL     1      -6.917  -7.601   8.787  0.00  0.00    +0.029 A 
ATOM     21  C   UNL     1      -7.838  -9.832   8.674  0.00  0.00    +0.029 A 
ATOM     22  C   UNL     1      -8.183  -7.066   8.551  0.00  0.00    +0.005 A 
ATOM     23  C   UNL     1      -9.104  -9.296   8.438  0.00  0.00    +0.005 A 
ATOM     24  C   UNL     1      -9.277  -7.914   8.376  0.00  0.00    -0.050 A 
ATOM     25  C   UNL     1     -10.630  -7.341   8.124  0.00  0.00    +0.044 C 
ENDBRANCH   1  19
ENDBRANCH   8   1
ENDBRANCH  16   8
ENDBRANCH  12  16
TORSDOF 7
ENDMDL
MODEL 4
REMARK VINA RESULT:      -3.5      2.912      6.571
REMARK  Name = 75367099
REMARK  8 active torsions:
REMARK  status: ('A' for Active; 'I' for Inactive)
REMARK    1  A    between atoms: S_1  and  N_8
REMARK    2  A    between atoms: S_1  and  C_19
REMARK    3  A    between atoms: O_3  and  C_10
REMARK    4  A    between atoms: N_6  and  C_9
REMARK    5  A    between atoms: N_6  and  C_11
REMARK    6  A    between atoms: N_8  and  C_16
REMARK    7  A    between atoms: C_12  and  C_16
REMARK    8  A    between atoms: C_24  and  C_25
REMARK                            x       y       z     vdW  Elec       q    Type
REMARK                         _______ _______ _______ _____ _____    ______ ____
ROOT
ATOM      2  O   UNL     1      -1.504  -0.883  25.971  0.00  0.00    -0.371 OA
ATOM      9  C   UNL     1      -3.756  -0.834  25.220  0.00  0.00    +0.111 C 
ATOM     10  C   UNL     1      -2.928  -1.653  24.247  0.00  0.00    +0.164 C 
ATOM     12  C   UNL     1      -1.730  -2.015  25.114  0.00  0.00    +0.164 C 
ATOM     13  C   UNL     1      -2.677  -0.051  25.949  0.00  0.00    +0.181 C 
ENDROOT
BRANCH  10   3
ATOM      3  O   UNL     1      -3.610  -2.802  23.784  0.00  0.00    -0.388 OA
ATOM     28  H   UNL     1      -4.565  -2.625  23.812  0.00  0.00    +0.210 HD
ENDBRANCH  10   3
BRANCH   9   6
ATOM      6  N   UNL     1      -4.737   0.022  24.573  0.00  0.00    -0.306 NA
ATOM     26  H   UNL     1      -5.650  -0.431  24.570  0.00  0.00    +0.123 HD
BRANCH   6  11
ATOM      7  N   UNL     1      -6.215   3.862  25.655  0.00  0.00    -0.316 NA
ATOM     11  C   UNL     1      -4.828   1.312  25.253  0.00  0.00    +0.056 C 
ATOM     14  C   UNL     1      -4.746   2.456  24.236  0.00  0.00    +0.034 C 
ATOM     15  C   UNL     1      -6.127   1.417  26.059  0.00  0.00    +0.034 C 
ATOM     17  C   UNL     1      -4.949   3.808  24.921  0.00  0.00    +0.082 C 
ATOM     18  C   UNL     1      -6.277   2.810  26.673  0.00  0.00    +0.082 C 
ATOM     27  H   UNL     1      -6.303   4.773  26.107  0.00  0.00    +0.122 HD
ENDBRANCH   6  11
ENDBRANCH   9   6
BRANCH  12  16
ATOM     16  C   UNL     1      -0.475  -2.312  24.313  0.00  0.00    +0.140 C 
BRANCH  16   8
ATOM      8  N   UNL     1       0.509  -1.230  24.513  0.00  0.00    -0.187 NA
ATOM     29  H   UNL     1       0.656  -0.937  25.487  0.00  0.00    +0.148 HD
BRANCH   8   1
ATOM      1  S   UNL     1       0.798  -0.101  23.275  0.00  0.00    +0.058 S 
ATOM      4  O   UNL     1       0.077  -0.501  22.082  0.00  0.00    -0.153 OA
ATOM      5  O   UNL     1       2.221   0.174  23.210  0.00  0.00    -0.153 OA
BRANCH   1  19
ATOM     19  C   UNL     1       0.021   1.351  23.920  0.00  0.00    +0.105 A 
ATOM     20  C   UNL     1      -1.029   1.947  23.222  0.00  0.00    +0.029 A 
ATOM     21  C   UNL     1       0.462   1.901  25.123  0.00  0.00    +0.029 A 
ATOM     22  C   UNL     1      -1.640   3.094  23.728  0.00  0.00    +0.005 A 
ATOM     23  C   UNL     1      -0.149   3.048  25.629  0.00  0.00    +0.005 A 
ATOM     24  C   UNL     1      -1.200   3.644  24.932  0.00  0.00    -0.050 A 
ATOM     25  C   UNL     1      -1.854   4.871  25.473  0.00  0.00    +0.044 C 
ENDBRANCH   1  19
ENDBRANCH   8   1
ENDBRANCH  16   8
ENDBRANCH  12  16
TORSDOF 7
ENDMDL
MODEL 5
REMARK VINA RESULT:      -2.7      2.489      4.917
REMARK  Name = 75367099
REMARK  8 active torsions:
REMARK  status: ('A' for Active; 'I' for Inactive)
REMARK    1  A    between atoms: S_1  and  N_8
REMARK    2  A    between atoms: S_1  and  C_19
REMARK    3  A    between atoms: O_3  and  C_10
REMARK    4  A    between atoms: N_6  and  C_9
REMARK    5  A    between atoms: N_6  and  C_11
REMARK    6  A    between atoms: N_8  and  C_16
REMARK    7  A    between atoms: C_12  and  C_16
REMARK    8  A    between atoms: C_24  and  C_25
REMARK                            x       y       z     vdW  Elec       q    Type
REMARK                         _______ _______ _______ _____ _____    ______ ____
ROOT
ATOM      2  O   UNL     1       0.674  -1.030  22.988  0.00  0.00    -0.371 OA
ATOM      9  C   UNL     1       0.987   0.900  24.334  0.00  0.00    +0.111 C 
ATOM     10  C   UNL     1      -0.333   0.248  24.704  0.00  0.00    +0.164 C 
ATOM     12  C   UNL     1      -0.118  -1.165  24.180  0.00  0.00    +0.164 C 
ATOM     13  C   UNL     1       1.256   0.285  22.971  0.00  0.00    +0.181 C 
ENDROOT
BRANCH  10   3
ATOM      3  O   UNL     1      -0.577   0.262  26.097  0.00  0.00    -0.388 OA
ATOM     28  H   UNL     1      -1.512   0.484  26.242  0.00  0.00    +0.210 HD
ENDBRANCH  10   3
BRANCH   9   6
ATOM      6  N   UNL     1       0.930   2.353  24.299  0.00  0.00    -0.306 NA
ATOM     26  H   UNL     1       1.206   2.692  23.378  0.00  0.00    +0.123 HD
BRANCH   6  11
ATOM      7  N   UNL     1      -2.160   4.842  25.834  0.00  0.00    -0.316 NA
ATOM     11  C   UNL     1      -0.415   2.827  24.617  0.00  0.00    +0.056 C 
ATOM     14  C   UNL     1      -0.591   2.945  26.134  0.00  0.00    +0.034 C 
ATOM     15  C   UNL     1      -0.694   4.176  23.947  0.00  0.00    +0.034 C 
ATOM     17  C   UNL     1      -1.956   3.544  26.479  0.00  0.00    +0.082 C 
ATOM     18  C   UNL     1      -2.055   4.726  24.377  0.00  0.00    +0.082 C 
ATOM     27  H   UNL     1      -3.085   5.197  26.077  0.00  0.00    +0.122 HD
ENDBRANCH   6  11
ENDBRANCH   9   6
BRANCH  12  16
ATOM     16  C   UNL     1      -1.412  -1.890  23.857  0.00  0.00    +0.140 C 
BRANCH  16   8
ATOM      8  N   UNL     1      -2.517  -0.915  23.764  0.00  0.00    -0.187 NA
ATOM     29  H   UNL     1      -2.245   0.044  23.512  0.00  0.00    +0.148 HD
BRANCH   8   1
ATOM      1  S   UNL     1      -3.932  -1.141  24.679  0.00  0.00    +0.058 S 
ATOM      4  O   UNL     1      -3.581  -1.657  25.988  0.00  0.00    -0.153 OA
ATOM      5  O   UNL     1      -4.916  -1.828  23.865  0.00  0.00    -0.153 OA
BRANCH   1  19
ATOM     19  C   UNL     1      -4.501   0.521  24.883  0.00  0.00    +0.105 A 
ATOM     20  C   UNL     1      -4.002   1.533  24.064  0.00  0.00    +0.029 A 
ATOM     21  C   UNL     1      -5.445   0.819  25.865  0.00  0.00    +0.029 A 
ATOM     22  C   UNL     1      -4.448   2.844  24.226  0.00  0.00    +0.005 A 
ATOM     23  C   UNL     1      -5.891   2.130  26.027  0.00  0.00    +0.005 A 
ATOM     24  C   UNL     1      -5.393   3.143  25.208  0.00  0.00    -0.050 A 
ATOM     25  C   UNL     1      -5.870   4.545  25.381  0.00  0.00    +0.044 C 
ENDBRANCH   1  19
ENDBRANCH   8   1
ENDBRANCH  16   8
ENDBRANCH  12  16
TORSDOF 7
ENDMDL
MODEL 6
REMARK VINA RESULT:      -2.5      1.977      2.915
REMARK  Name = 75367099
REMARK  8 active torsions:
REMARK  status: ('A' for Active; 'I' for Inactive)
REMARK    1  A    between atoms: S_1  and  N_8
REMARK    2  A    between atoms: S_1  and  C_19
REMARK    3  A    between atoms: O_3  and  C_10
REMARK    4  A    between atoms: N_6  and  C_9
REMARK    5  A    between atoms: N_6  and  C_11
REMARK    6  A    between atoms: N_8  and  C_16
REMARK    7  A    between atoms: C_12  and  C_16
REMARK    8  A    between atoms: C_24  and  C_25
REMARK                            x       y       z     vdW  Elec       q    Type
REMARK                         _______ _______ _______ _____ _____    ______ ____
ROOT
ATOM      2  O   UNL     1      -0.627   3.173  26.529  0.00  0.00    -0.371 OA
ATOM      9  C   UNL     1       0.321   2.093  24.639  0.00  0.00    +0.111 C 
ATOM     10  C   UNL     1      -0.585   3.215  24.165  0.00  0.00    +0.164 C 
ATOM     12  C   UNL     1      -0.657   4.081  25.415  0.00  0.00    +0.164 C 
ATOM     13  C   UNL     1      -0.169   1.892  26.063  0.00  0.00    +0.181 C 
ENDROOT
BRANCH  10   3
ATOM      3  O   UNL     1      -0.047   3.922  23.064  0.00  0.00    -0.388 OA
ATOM     28  H   UNL     1       0.157   4.828  23.351  0.00  0.00    +0.210 HD
ENDBRANCH  10   3
BRANCH   9   6
ATOM      6  N   UNL     1       0.226   0.887  23.832  0.00  0.00    -0.306 NA
ATOM     26  H   UNL     1       1.103   0.726  23.338  0.00  0.00    +0.123 HD
BRANCH   6  11
ATOM      7  N   UNL     1      -2.006  -2.320  25.515  0.00  0.00    -0.316 NA
ATOM     11  C   UNL     1      -0.092  -0.270  24.665  0.00  0.00    +0.056 C 
ATOM     14  C   UNL     1      -1.273   0.048  25.588  0.00  0.00    +0.034 C 
ATOM     15  C   UNL     1      -0.412  -1.496  23.802  0.00  0.00    +0.034 C 
ATOM     17  C   UNL     1      -1.687  -1.188  26.388  0.00  0.00    +0.082 C 
ATOM     18  C   UNL     1      -0.860  -2.672  24.671  0.00  0.00    +0.082 C 
ATOM     27  H   UNL     1      -2.261  -3.125  26.088  0.00  0.00    +0.122 HD
ENDBRANCH   6  11
ENDBRANCH   9   6
BRANCH  12  16
ATOM     16  C   UNL     1      -1.910   4.936  25.482  0.00  0.00    +0.140 C 
BRANCH  16   8
ATOM      8  N   UNL     1      -3.049   4.112  25.932  0.00  0.00    -0.187 NA
ATOM     29  H   UNL     1      -2.820   3.356  26.590  0.00  0.00    +0.148 HD
BRANCH   8   1
ATOM      1  S   UNL     1      -4.416   3.932  24.936  0.00  0.00    +0.058 S 
ATOM      4  O   UNL     1      -4.206   4.656  23.697  0.00  0.00    -0.153 OA
ATOM      5  O   UNL     1      -5.609   4.168  25.726  0.00  0.00    -0.153 OA
BRANCH   1  19
ATOM     19  C   UNL     1      -4.373   2.203  24.571  0.00  0.00    +0.105 A 
ATOM     20  C   UNL     1      -5.104   1.307  25.352  0.00  0.00    +0.029 A 
ATOM     21  C   UNL     1      -3.605   1.734  23.506  0.00  0.00    +0.029 A 
ATOM     22  C   UNL     1      -5.068  -0.057  25.066  0.00  0.00    +0.005 A 
ATOM     23  C   UNL     1      -3.569   0.369  23.221  0.00  0.00    +0.005 A 
ATOM     24  C   UNL     1      -4.301  -0.526  24.000  0.00  0.00    -0.050 A 
ATOM     25  C   UNL     1      -4.262  -1.986  23.695  0.00  0.00    +0.044 C 
ENDBRANCH   1  19
ENDBRANCH   8   1
ENDBRANCH  16   8
ENDBRANCH  12  16
TORSDOF 7
ENDMDL
MODEL 7
REMARK VINA RESULT:      -2.4      2.424      4.950
REMARK  Name = 75367099
REMARK  8 active torsions:
REMARK  status: ('A' for Active; 'I' for Inactive)
REMARK    1  A    between atoms: S_1  and  N_8
REMARK    2  A    between atoms: S_1  and  C_19
REMARK    3  A    between atoms: O_3  and  C_10
REMARK    4  A    between atoms: N_6  and  C_9
REMARK    5  A    between atoms: N_6  and  C_11
REMARK    6  A    between atoms: N_8  and  C_16
REMARK    7  A    between atoms: C_12  and  C_16
REMARK    8  A    between atoms: C_24  and  C_25
REMARK                            x       y       z     vdW  Elec       q    Type
REMARK                         _______ _______ _______ _____ _____    ______ ____
ROOT
ATOM      2  O   UNL     1      -2.850   3.105  23.746  0.00  0.00    -0.371 OA
ATOM      9  C   UNL     1      -4.892   2.000  24.244  0.00  0.00    +0.111 C 
ATOM     10  C   UNL     1      -4.511   2.887  25.415  0.00  0.00    +0.164 C 
ATOM     12  C   UNL     1      -3.554   3.863  24.744  0.00  0.00    +0.164 C 
ATOM     13  C   UNL     1      -3.565   1.879  23.514  0.00  0.00    +0.181 C 
ENDROOT
BRANCH  10   3
ATOM      3  O   UNL     1      -5.625   3.548  25.983  0.00  0.00    -0.388 OA
ATOM     28  H   UNL     1      -6.050   4.083  25.292  0.00  0.00    +0.210 HD
ENDBRANCH  10   3
BRANCH   9   6
ATOM      6  N   UNL     1      -5.439   0.713  24.642  0.00  0.00    -0.306 NA
ATOM     26  H   UNL     1      -6.176   0.431  23.997  0.00  0.00    +0.123 HD
BRANCH   6  11
ATOM      7  N   UNL     1      -3.570  -3.062  25.240  0.00  0.00    -0.316 NA
ATOM     11  C   UNL     1      -4.393  -0.308  24.673  0.00  0.00    +0.056 C 
ATOM     14  C   UNL     1      -4.197  -0.824  26.103  0.00  0.00    +0.034 C 
ATOM     15  C   UNL     1      -4.733  -1.470  23.735  0.00  0.00    +0.034 C 
ATOM     17  C   UNL     1      -3.184  -1.969  26.134  0.00  0.00    +0.082 C 
ATOM     18  C   UNL     1      -3.699  -2.590  23.858  0.00  0.00    +0.082 C 
ATOM     27  H   UNL     1      -2.861  -3.795  25.280  0.00  0.00    +0.122 HD
ENDBRANCH   6  11
ENDBRANCH   9   6
BRANCH  12  16
ATOM     16  C   UNL     1      -2.562   4.490  25.708  0.00  0.00    +0.140 C 
BRANCH  16   8
ATOM      8  N   UNL     1      -1.694   3.441  26.277  0.00  0.00    -0.187 NA
ATOM     29  H   UNL     1      -1.869   3.203  27.262  0.00  0.00    +0.148 HD
BRANCH   8   1
ATOM      1  S   UNL     1      -0.132   3.194  25.651  0.00  0.00    +0.058 S 
ATOM      4  O   UNL     1       0.832   3.230  26.734  0.00  0.00    -0.153 OA
ATOM      5  O   UNL     1       0.048   4.039  24.485  0.00  0.00    -0.153 OA
BRANCH   1  19
ATOM     19  C   UNL     1      -0.235   1.528  25.068  0.00  0.00    +0.105 A 
ATOM     20  C   UNL     1      -0.735   0.528  25.902  0.00  0.00    +0.029 A 
ATOM     21  C   UNL     1       0.187   1.213  23.777  0.00  0.00    +0.029 A 
ATOM     22  C   UNL     1      -0.814  -0.787  25.445  0.00  0.00    +0.005 A 
ATOM     23  C   UNL     1       0.109  -0.102  23.320  0.00  0.00    +0.005 A 
ATOM     24  C   UNL     1      -0.392  -1.102  24.153  0.00  0.00    -0.050 A 
ATOM     25  C   UNL     1      -0.476  -2.509  23.664  0.00  0.00    +0.044 C 
ENDBRANCH   1  19
ENDBRANCH   8   1
ENDBRANCH  16   8
ENDBRANCH  12  16
TORSDOF 7
ENDMDL
MODEL 8
REMARK VINA RESULT:      -2.1      2.498      6.355
REMARK  Name = 75367099
REMARK  8 active torsions:
REMARK  status: ('A' for Active; 'I' for Inactive)
REMARK    1  A    between atoms: S_1  and  N_8
REMARK    2  A    between atoms: S_1  and  C_19
REMARK    3  A    between atoms: O_3  and  C_10
REMARK    4  A    between atoms: N_6  and  C_9
REMARK    5  A    between atoms: N_6  and  C_11
REMARK    6  A    between atoms: N_8  and  C_16
REMARK    7  A    between atoms: C_12  and  C_16
REMARK    8  A    between atoms: C_24  and  C_25
REMARK                            x       y       z     vdW  Elec       q    Type
REMARK                         _______ _______ _______ _____ _____    ______ ____
ROOT
ATOM      2  O   UNL     1      -1.917   2.655  22.699  0.00  0.00    -0.371 OA
ATOM      9  C   UNL     1      -3.406   2.123  24.471  0.00  0.00    +0.111 C 
ATOM     10  C   UNL     1      -1.984   2.123  25.002  0.00  0.00    +0.164 C 
ATOM     12  C   UNL     1      -1.277   2.964  23.948  0.00  0.00    +0.164 C 
ATOM     13  C   UNL     1      -3.169   2.002  22.975  0.00  0.00    +0.181 C 
ENDROOT
BRANCH  10   3
ATOM      3  O   UNL     1      -1.883   2.698  26.290  0.00  0.00    -0.388 OA
ATOM     28  H   UNL     1      -2.178   3.623  26.238  0.00  0.00    +0.210 HD
ENDBRANCH  10   3
BRANCH   9   6
ATOM      6  N   UNL     1      -4.227   1.048  25.004  0.00  0.00    -0.306 NA
ATOM     26  H   UNL     1      -5.165   1.095  24.608  0.00  0.00    +0.123 HD
BRANCH   6  11
ATOM      7  N   UNL     1      -3.653  -3.168  25.018  0.00  0.00    -0.316 NA
ATOM     11  C   UNL     1      -3.631  -0.253  24.710  0.00  0.00    +0.056 C 
ATOM     14  C   UNL     1      -3.190  -0.941  26.006  0.00  0.00    +0.034 C 
ATOM     15  C   UNL     1      -4.615  -1.147  23.948  0.00  0.00    +0.034 C 
ATOM     17  C   UNL     1      -2.665  -2.349  25.725  0.00  0.00    +0.082 C 
ATOM     18  C   UNL     1      -4.035  -2.548  23.746  0.00  0.00    +0.082 C 
ATOM     27  H   UNL     1      -3.257  -4.090  24.837  0.00  0.00    +0.122 HD
ENDBRANCH   6  11
ENDBRANCH   9   6
BRANCH  12  16
ATOM     16  C   UNL     1       0.210   2.677  23.848  0.00  0.00    +0.140 C 
BRANCH  16   8
ATOM      8  N   UNL     1       0.502   1.359  24.444  0.00  0.00    -0.187 NA
ATOM     29  H   UNL     1       0.965   1.378  25.362  0.00  0.00    +0.148 HD
BRANCH   8   1
ATOM      1  S   UNL     1       0.743   0.006  23.444  0.00  0.00    +0.058 S 
ATOM      4  O   UNL     1       0.260   0.303  22.109  0.00  0.00    -0.153 OA
ATOM      5  O   UNL     1       0.282  -1.182  24.138  0.00  0.00    -0.153 OA
BRANCH   1  19
ATOM     19  C   UNL     1       2.507  -0.088  23.378  0.00  0.00    +0.105 A 
ATOM     20  C   UNL     1       3.160  -1.240  23.815  0.00  0.00    +0.029 A 
ATOM     21  C   UNL     1       3.245   0.992  22.894  0.00  0.00    +0.029 A 
ATOM     22  C   UNL     1       4.552  -1.313  23.766  0.00  0.00    +0.005 A 
ATOM     23  C   UNL     1       4.636   0.919  22.845  0.00  0.00    +0.005 A 
ATOM     24  C   UNL     1       5.290  -0.233  23.280  0.00  0.00    -0.050 A 
ATOM     25  C   UNL     1       6.779  -0.311  23.228  0.00  0.00    +0.044 C 
ENDBRANCH   1  19
ENDBRANCH   8   1
ENDBRANCH  16   8
ENDBRANCH  12  16
TORSDOF 7
ENDMDL
MODEL 9
REMARK VINA RESULT:      -1.7      2.784      4.704
REMARK  Name = 75367099
REMARK  8 active torsions:
REMARK  status: ('A' for Active; 'I' for Inactive)
REMARK    1  A    between atoms: S_1  and  N_8
REMARK    2  A    between atoms: S_1  and  C_19
REMARK    3  A    between atoms: O_3  and  C_10
REMARK    4  A    between atoms: N_6  and  C_9
REMARK    5  A    between atoms: N_6  and  C_11
REMARK    6  A    between atoms: N_8  and  C_16
REMARK    7  A    between atoms: C_12  and  C_16
REMARK    8  A    between atoms: C_24  and  C_25
REMARK                            x       y       z     vdW  Elec       q    Type
REMARK                         _______ _______ _______ _____ _____    ______ ____
ROOT
ATOM      2  O   UNL     1      -0.560   1.625  25.932  0.00  0.00    -0.371 OA
ATOM      9  C   UNL     1       0.006  -0.340  24.724  0.00  0.00    +0.111 C 
ATOM     10  C   UNL     1       0.332   0.875  23.874  0.00  0.00    +0.164 C 
ATOM     12  C   UNL     1       0.422   1.961  24.938  0.00  0.00    +0.164 C 
ATOM     13  C   UNL     1      -0.953   0.254  25.742  0.00  0.00    +0.181 C 
ENDROOT
BRANCH  10   3
ATOM      3  O   UNL     1       1.546   0.732  23.163  0.00  0.00    -0.388 OA
ATOM     28  H   UNL     1       2.255   0.540  23.800  0.00  0.00    +0.210 HD
ENDBRANCH  10   3
BRANCH   9   6
ATOM      6  N   UNL     1      -0.577  -1.438  23.971  0.00  0.00    -0.306 NA
ATOM     26  H   UNL     1      -0.009  -2.277  24.078  0.00  0.00    +0.123 HD
BRANCH   6  11
ATOM      7  N   UNL     1      -4.683  -2.539  23.800  0.00  0.00    -0.316 NA
ATOM     11  C   UNL     1      -1.942  -1.706  24.417  0.00  0.00    +0.056 C 
ATOM     14  C   UNL     1      -2.929  -0.790  23.686  0.00  0.00    +0.034 C 
ATOM     15  C   UNL     1      -2.317  -3.174  24.188  0.00  0.00    +0.034 C 
ATOM     17  C   UNL     1      -4.371  -1.133  24.062  0.00  0.00    +0.082 C 
ATOM     18  C   UNL     1      -3.783  -3.424  24.544  0.00  0.00    +0.082 C 
ATOM     27  H   UNL     1      -5.646  -2.728  24.078  0.00  0.00    +0.122 HD
ENDBRANCH   6  11
ENDBRANCH   9   6
BRANCH  12  16
ATOM     16  C   UNL     1       0.151   3.354  24.398  0.00  0.00    +0.140 C 
BRANCH  16   8
ATOM      8  N   UNL     1      -0.601   4.135  25.399  0.00  0.00    -0.187 NA
ATOM     29  H   UNL     1      -0.637   3.733  26.344  0.00  0.00    +0.148 HD
BRANCH   8   1
ATOM      1  S   UNL     1      -1.870   5.155  24.905  0.00  0.00    +0.058 S 
ATOM      4  O   UNL     1      -1.641   5.580  23.538  0.00  0.00    -0.153 OA
ATOM      5  O   UNL     1      -2.115   6.139  25.943  0.00  0.00    -0.153 OA
BRANCH   1  19
ATOM     19  C   UNL     1      -3.248   4.047  24.909  0.00  0.00    +0.105 A 
ATOM     20  C   UNL     1      -3.519   3.271  23.783  0.00  0.00    +0.029 A 
ATOM     21  C   UNL     1      -4.064   3.954  26.035  0.00  0.00    +0.029 A 
ATOM     22  C   UNL     1      -4.608   2.399  23.783  0.00  0.00    +0.005 A 
ATOM     23  C   UNL     1      -5.153   3.082  26.036  0.00  0.00    +0.005 A 
ATOM     24  C   UNL     1      -5.425   2.305  24.910  0.00  0.00    -0.050 A 
ATOM     25  C   UNL     1      -6.589   1.372  24.911  0.00  0.00    +0.044 C 
ENDBRANCH   1  19
ENDBRANCH   8   1
ENDBRANCH  16   8
ENDBRANCH  12  16
TORSDOF 7
ENDMDL
MODEL 10
REMARK VINA RESULT:      -1.6      2.772      5.163
REMARK  Name = 75367099
REMARK  8 active torsions:
REMARK  status: ('A' for Active; 'I' for Inactive)
REMARK    1  A    between atoms: S_1  and  N_8
REMARK    2  A    between atoms: S_1  and  C_19
REMARK    3  A    between atoms: O_3  and  C_10
REMARK    4  A    between atoms: N_6  and  C_9
REMARK    5  A    between atoms: N_6  and  C_11
REMARK    6  A    between atoms: N_8  and  C_16
REMARK    7  A    between atoms: C_12  and  C_16
REMARK    8  A    between atoms: C_24  and  C_25
REMARK                            x       y       z     vdW  Elec       q    Type
REMARK                         _______ _______ _______ _____ _____    ______ ____
ROOT
ATOM      2  O   UNL     1      -0.229   4.219  23.846  0.00  0.00    -0.371 OA
ATOM      9  C   UNL     1      -1.644   4.485  25.735  0.00  0.00    +0.111 C 
ATOM     10  C   UNL     1      -1.124   3.060  25.704  0.00  0.00    +0.164 C 
ATOM     12  C   UNL     1       0.106   3.216  24.821  0.00  0.00    +0.164 C 
ATOM     13  C   UNL     1      -1.394   4.928  24.303  0.00  0.00    +0.181 C 
ENDROOT
BRANCH  10   3
ATOM      3  O   UNL     1      -0.791   2.573  26.989  0.00  0.00    -0.388 OA
ATOM     28  H   UNL     1      -1.558   2.092  27.343  0.00  0.00    +0.210 HD
ENDBRANCH  10   3
BRANCH   9   6
ATOM      6  N   UNL     1      -3.042   4.587  26.122  0.00  0.00    -0.306 NA
ATOM     26  H   UNL     1      -3.463   5.413  25.699  0.00  0.00    +0.123 HD
BRANCH   6  11
ATOM      7  N   UNL     1      -6.233   2.172  24.678  0.00  0.00    -0.316 NA
ATOM     11  C   UNL     1      -3.781   3.393  25.719  0.00  0.00    +0.056 C 
ATOM     14  C   UNL     1      -5.041   3.233  26.576  0.00  0.00    +0.034 C 
ATOM     15  C   UNL     1      -4.157   3.456  24.235  0.00  0.00    +0.034 C 
ATOM     17  C   UNL     1      -5.880   2.050  26.094  0.00  0.00    +0.082 C 
ATOM     18  C   UNL     1      -5.031   2.264  23.844  0.00  0.00    +0.082 C 
ATOM     27  H   UNL     1      -6.778   1.358  24.395  0.00  0.00    +0.122 HD
ENDBRANCH   6  11
ENDBRANCH   9   6
BRANCH  12  16
ATOM     16  C   UNL     1       0.509   1.932  24.118  0.00  0.00    +0.140 C 
BRANCH  16   8
ATOM      8  N   UNL     1      -0.626   0.988  24.120  0.00  0.00    -0.187 NA
ATOM     29  H   UNL     1      -1.553   1.406  23.969  0.00  0.00    +0.148 HD
BRANCH   8   1
ATOM      1  S   UNL     1      -0.526  -0.463  24.999  0.00  0.00    +0.058 S 
ATOM      4  O   UNL     1      -0.606  -0.173  26.418  0.00  0.00    -0.153 OA
ATOM      5  O   UNL     1       0.572  -1.256  24.479  0.00  0.00    -0.153 OA
BRANCH   1  19
ATOM     19  C   UNL     1      -2.021  -1.279  24.525  0.00  0.00    +0.105 A 
ATOM     20  C   UNL     1      -2.067  -2.672  24.467  0.00  0.00    +0.029 A 
ATOM     21  C   UNL     1      -3.152  -0.529  24.204  0.00  0.00    +0.029 A 
ATOM     22  C   UNL     1      -3.245  -3.315  24.090  0.00  0.00    +0.005 A 
ATOM     23  C   UNL     1      -4.331  -1.173  23.827  0.00  0.00    +0.005 A 
ATOM     24  C   UNL     1      -4.378  -2.565  23.770  0.00  0.00    -0.050 A 
ATOM     25  C   UNL     1      -5.637  -3.254  23.366  0.00  0.00    +0.044 C 
ENDBRANCH   1  19
ENDBRANCH   8   1
ENDBRANCH  16   8
ENDBRANCH  12  16
TORSDOF 7
ENDMDL
