MODEL 1
REMARK VINA RESULT:      -4.4      0.000      0.000
REMARK  Name = 28991037
REMARK  6 active torsions:
REMARK  status: ('A' for Active; 'I' for Inactive)
REMARK    1  A    between atoms: S_1  and  N_8
REMARK    2  A    between atoms: S_1  and  C_22
REMARK    3  A    between atoms: N_7  and  C_16
REMARK    4  A    between atoms: N_8  and  C_17
REMARK    5  A    between atoms: C_10  and  C_16
REMARK    6  A    between atoms: C_11  and  C_17
REMARK                            x       y       z     vdW  Elec       q    Type
REMARK                         _______ _______ _______ _____ _____    ______ ____
ROOT
ATOM      6  N   UNL     1      -2.760  -2.199  24.206  0.00  0.00    -0.298 NA
ATOM      9  C   UNL     1      -3.010  -0.141  25.778  0.00  0.00    -0.003 C 
ATOM     10  C   UNL     1      -3.781   0.077  24.456  0.00  0.00    +0.020 C 
ATOM     11  C   UNL     1      -1.419  -1.732  24.652  0.00  0.00    +0.072 C 
ATOM     12  C   UNL     1      -1.529  -0.422  25.463  0.00  0.00    +0.024 C 
ATOM     13  C   UNL     1      -3.480  -1.105  23.509  0.00  0.00    +0.089 C 
ATOM     14  C   UNL     1      -3.587  -1.413  26.428  0.00  0.00    +0.019 C 
ATOM     15  C   UNL     1      -3.539  -2.568  25.413  0.00  0.00    +0.085 C 
ENDROOT
BRANCH  10  16
ATOM     16  C   UNL     1      -3.476   1.420  23.795  0.00  0.00    +0.089 C 
BRANCH  16   7
ATOM      3  O   UNL     1      -1.871   4.892  25.521  0.00  0.00    -0.377 OA
ATOM      7  N   UNL     1      -2.818   2.326  24.734  0.00  0.00    -0.298 NA
ATOM     18  C   UNL     1      -3.739   3.384  25.171  0.00  0.00    +0.112 C 
ATOM     19  C   UNL     1      -1.618   2.921  24.129  0.00  0.00    +0.112 C 
ATOM     20  C   UNL     1      -3.026   4.324  26.138  0.00  0.00    +0.175 C 
ATOM     21  C   UNL     1      -0.955   3.871  25.124  0.00  0.00    +0.175 C 
ENDBRANCH  16   7
ENDBRANCH  10  16
BRANCH  11  17
ATOM     17  C   UNL     1      -0.433  -1.598  23.489  0.00  0.00    +0.124 C 
BRANCH  17   8
ATOM      8  N   UNL     1       0.799  -0.963  23.929  0.00  0.00    -0.188 NA
ATOM     26  H   UNL     1       0.801  -0.695  24.921  0.00  0.00    +0.148 HD
BRANCH   8   1
ATOM      1  S   UNL     1       1.626   0.140  22.912  0.00  0.00    +0.065 S 
ATOM      4  O   UNL     1       1.372   1.490  23.376  0.00  0.00    -0.153 OA
ATOM      5  O   UNL     1       1.394  -0.210  21.524  0.00  0.00    -0.153 OA
BRANCH   1  22
ATOM      2  S   UNL     1       4.437   0.967  22.837  0.00  0.00    -0.077 S 
ATOM     22  C   UNL     1       3.313  -0.251  23.268  0.00  0.00    +0.142 A 
ATOM     23  C   UNL     1       3.929  -1.348  23.829  0.00  0.00    +0.036 A 
ATOM     24  C   UNL     1       5.343  -1.186  23.906  0.00  0.00    +0.010 A 
ATOM     25  C   UNL     1       5.754   0.028  23.402  0.00  0.00    +0.047 A 
ENDBRANCH   1  22
ENDBRANCH   8   1
ENDBRANCH  17   8
ENDBRANCH  11  17
TORSDOF 6
ENDMDL
MODEL 2
REMARK VINA RESULT:      -3.0      1.923      4.090
REMARK  Name = 28991037
REMARK  6 active torsions:
REMARK  status: ('A' for Active; 'I' for Inactive)
REMARK    1  A    between atoms: S_1  and  N_8
REMARK    2  A    between atoms: S_1  and  C_22
REMARK    3  A    between atoms: N_7  and  C_16
REMARK    4  A    between atoms: N_8  and  C_17
REMARK    5  A    between atoms: C_10  and  C_16
REMARK    6  A    between atoms: C_11  and  C_17
REMARK                            x       y       z     vdW  Elec       q    Type
REMARK                         _______ _______ _______ _____ _____    ______ ____
ROOT
ATOM      6  N   UNL     1      -1.793   3.418  24.825  0.00  0.00    -0.298 NA
ATOM      9  C   UNL     1      -3.771   2.286  23.570  0.00  0.00    -0.003 C 
ATOM     10  C   UNL     1      -4.002   2.264  25.098  0.00  0.00    +0.020 C 
ATOM     11  C   UNL     1      -1.278   2.380  23.892  0.00  0.00    +0.072 C 
ATOM     12  C   UNL     1      -2.437   1.590  23.246  0.00  0.00    +0.024 C 
ATOM     13  C   UNL     1      -2.738   2.813  25.796  0.00  0.00    +0.089 C 
ATOM     14  C   UNL     1      -3.624   3.764  23.162  0.00  0.00    +0.019 C 
ATOM     15  C   UNL     1      -2.534   4.423  24.025  0.00  0.00    +0.085 C 
ENDROOT
BRANCH  10  16
ATOM     16  C   UNL     1      -4.382   0.883  25.629  0.00  0.00    +0.089 C 
BRANCH  16   7
ATOM      3  O   UNL     1      -3.079  -2.898  24.358  0.00  0.00    -0.377 OA
ATOM      7  N   UNL     1      -3.711  -0.171  24.872  0.00  0.00    -0.298 NA
ATOM     18  C   UNL     1      -4.690  -1.086  24.270  0.00  0.00    +0.112 C 
ATOM     19  C   UNL     1      -2.783  -0.920  25.731  0.00  0.00    +0.112 C 
ATOM     20  C   UNL     1      -3.966  -2.184  23.497  0.00  0.00    +0.175 C 
ATOM     21  C   UNL     1      -2.103  -2.021  24.920  0.00  0.00    +0.175 C 
ENDBRANCH  16   7
ENDBRANCH  10  16
BRANCH  11  17
ATOM     17  C   UNL     1      -0.260   1.451  24.559  0.00  0.00    +0.124 C 
BRANCH  17   8
ATOM      8  N   UNL     1       0.914   1.285  23.718  0.00  0.00    -0.188 NA
ATOM     26  H   UNL     1       1.109   2.088  23.106  0.00  0.00    +0.148 HD
BRANCH   8   1
ATOM      1  S   UNL     1       1.271  -0.231  23.005  0.00  0.00    +0.065 S 
ATOM      4  O   UNL     1       1.045  -0.145  21.575  0.00  0.00    -0.153 OA
ATOM      5  O   UNL     1       0.653  -1.291  23.778  0.00  0.00    -0.153 OA
BRANCH   1  22
ATOM      2  S   UNL     1       3.910   1.025  22.767  0.00  0.00    -0.077 S 
ATOM     22  C   UNL     1       3.015  -0.345  23.274  0.00  0.00    +0.142 A 
ATOM     23  C   UNL     1       3.824  -1.319  23.816  0.00  0.00    +0.036 A 
ATOM     24  C   UNL     1       5.197  -0.936  23.814  0.00  0.00    +0.010 A 
ATOM     25  C   UNL     1       5.385   0.316  23.272  0.00  0.00    +0.047 A 
ENDBRANCH   1  22
ENDBRANCH   8   1
ENDBRANCH  17   8
ENDBRANCH  11  17
TORSDOF 6
ENDMDL
MODEL 3
REMARK VINA RESULT:      -2.7      2.104      2.592
REMARK  Name = 28991037
REMARK  6 active torsions:
REMARK  status: ('A' for Active; 'I' for Inactive)
REMARK    1  A    between atoms: S_1  and  N_8
REMARK    2  A    between atoms: S_1  and  C_22
REMARK    3  A    between atoms: N_7  and  C_16
REMARK    4  A    between atoms: N_8  and  C_17
REMARK    5  A    between atoms: C_10  and  C_16
REMARK    6  A    between atoms: C_11  and  C_17
REMARK                            x       y       z     vdW  Elec       q    Type
REMARK                         _______ _______ _______ _____ _____    ______ ____
ROOT
ATOM      6  N   UNL     1      -1.764  -1.283  24.268  0.00  0.00    -0.298 NA
ATOM      9  C   UNL     1      -4.034  -1.820  25.423  0.00  0.00    -0.003 C 
ATOM     10  C   UNL     1      -4.229  -0.821  24.260  0.00  0.00    +0.020 C 
ATOM     11  C   UNL     1      -1.652  -1.074  25.737  0.00  0.00    +0.072 C 
ATOM     12  C   UNL     1      -3.022  -1.240  26.429  0.00  0.00    +0.024 C 
ATOM     13  C   UNL     1      -2.840  -0.429  23.708  0.00  0.00    +0.089 C 
ATOM     14  C   UNL     1      -3.400  -3.089  24.820  0.00  0.00    +0.019 C 
ATOM     15  C   UNL     1      -2.134  -2.701  24.036  0.00  0.00    +0.085 C 
ENDROOT
BRANCH  10  16
ATOM     16  C   UNL     1      -5.046   0.408  24.652  0.00  0.00    +0.089 C 
BRANCH  16   7
ATOM      3  O   UNL     1      -3.807   4.417  24.568  0.00  0.00    -0.377 OA
ATOM      7  N   UNL     1      -4.204   1.601  24.699  0.00  0.00    -0.298 NA
ATOM     18  C   UNL     1      -4.614   2.487  25.797  0.00  0.00    +0.112 C 
ATOM     19  C   UNL     1      -4.256   2.326  23.422  0.00  0.00    +0.112 C 
ATOM     20  C   UNL     1      -3.730   3.731  25.817  0.00  0.00    +0.175 C 
ATOM     21  C   UNL     1      -3.378   3.573  23.499  0.00  0.00    +0.175 C 
ENDBRANCH  16   7
ENDBRANCH  10  16
BRANCH  11  17
ATOM     17  C   UNL     1      -0.998   0.265  26.086  0.00  0.00    +0.124 C 
BRANCH  17   8
ATOM      8  N   UNL     1      -1.007   1.158  24.938  0.00  0.00    -0.188 NA
ATOM     26  H   UNL     1      -1.329   0.717  24.067  0.00  0.00    +0.148 HD
BRANCH   8   1
ATOM      1  S   UNL     1       0.245   2.305  24.712  0.00  0.00    +0.065 S 
ATOM      4  O   UNL     1       0.893   2.552  25.985  0.00  0.00    -0.153 OA
ATOM      5  O   UNL     1      -0.248   3.413  23.917  0.00  0.00    -0.153 OA
BRANCH   1  22
ATOM      2  S   UNL     1       0.683   0.064  22.873  0.00  0.00    -0.077 S 
ATOM     22  C   UNL     1       1.372   1.400  23.694  0.00  0.00    +0.142 A 
ATOM     23  C   UNL     1       2.713   1.543  23.414  0.00  0.00    +0.036 A 
ATOM     24  C   UNL     1       3.181   0.542  22.514  0.00  0.00    +0.010 A 
ATOM     25  C   UNL     1       2.180  -0.327  22.139  0.00  0.00    +0.047 A 
ENDBRANCH   1  22
ENDBRANCH   8   1
ENDBRANCH  17   8
ENDBRANCH  11  17
TORSDOF 6
ENDMDL
MODEL 4
REMARK VINA RESULT:      -2.7      2.380      5.510
REMARK  Name = 28991037
REMARK  6 active torsions:
REMARK  status: ('A' for Active; 'I' for Inactive)
REMARK    1  A    between atoms: S_1  and  N_8
REMARK    2  A    between atoms: S_1  and  C_22
REMARK    3  A    between atoms: N_7  and  C_16
REMARK    4  A    between atoms: N_8  and  C_17
REMARK    5  A    between atoms: C_10  and  C_16
REMARK    6  A    between atoms: C_11  and  C_17
REMARK                            x       y       z     vdW  Elec       q    Type
REMARK                         _______ _______ _______ _____ _____    ______ ____
ROOT
ATOM      6  N   UNL     1      -3.414  -1.142  26.042  0.00  0.00    -0.298 NA
ATOM      9  C   UNL     1      -2.429  -1.512  23.663  0.00  0.00    -0.003 C 
ATOM     10  C   UNL     1      -1.377  -0.882  24.604  0.00  0.00    +0.020 C 
ATOM     11  C   UNL     1      -4.309  -0.535  25.020  0.00  0.00    +0.072 C 
ATOM     12  C   UNL     1      -3.674  -0.608  23.613  0.00  0.00    +0.024 C 
ATOM     13  C   UNL     1      -2.056  -0.552  25.952  0.00  0.00    +0.089 C 
ATOM     14  C   UNL     1      -2.859  -2.846  24.302  0.00  0.00    +0.019 C 
ATOM     15  C   UNL     1      -3.308  -2.592  25.752  0.00  0.00    +0.085 C 
ENDROOT
BRANCH  10  16
ATOM     16  C   UNL     1      -0.690   0.343  24.005  0.00  0.00    +0.089 C 
BRANCH  16   7
ATOM      3  O   UNL     1       2.850   0.416  21.753  0.00  0.00    -0.377 OA
ATOM      7  N   UNL     1       0.632  -0.001  23.487  0.00  0.00    -0.298 NA
ATOM     18  C   UNL     1       1.581   1.101  23.704  0.00  0.00    +0.112 C 
ATOM     19  C   UNL     1       0.562  -0.331  22.057  0.00  0.00    +0.112 C 
ATOM     20  C   UNL     1       2.949   0.724  23.143  0.00  0.00    +0.175 C 
ATOM     21  C   UNL     1       1.956  -0.675  21.536  0.00  0.00    +0.175 C 
ENDBRANCH  16   7
ENDBRANCH  10  16
BRANCH  11  17
ATOM     17  C   UNL     1      -4.723   0.893  25.382  0.00  0.00    +0.124 C 
BRANCH  17   8
ATOM      8  N   UNL     1      -4.360   1.819  24.321  0.00  0.00    -0.188 NA
ATOM     26  H   UNL     1      -3.735   1.419  23.611  0.00  0.00    +0.148 HD
BRANCH   8   1
ATOM      1  S   UNL     1      -4.049   3.468  24.668  0.00  0.00    +0.065 S 
ATOM      4  O   UNL     1      -4.861   3.873  25.798  0.00  0.00    -0.153 OA
ATOM      5  O   UNL     1      -4.074   4.237  23.439  0.00  0.00    -0.153 OA
BRANCH   1  22
ATOM      2  S   UNL     1      -1.245   4.136  24.133  0.00  0.00    -0.077 S 
ATOM     22  C   UNL     1      -2.364   3.403  25.202  0.00  0.00    +0.142 A 
ATOM     23  C   UNL     1      -1.748   2.878  26.316  0.00  0.00    +0.036 A 
ATOM     24  C   UNL     1      -0.337   3.081  26.292  0.00  0.00    +0.010 A 
ATOM     25  C   UNL     1       0.070   3.752  25.161  0.00  0.00    +0.047 A 
ENDBRANCH   1  22
ENDBRANCH   8   1
ENDBRANCH  17   8
ENDBRANCH  11  17
TORSDOF 6
ENDMDL
MODEL 5
REMARK VINA RESULT:      -2.0      3.119      6.884
REMARK  Name = 28991037
REMARK  6 active torsions:
REMARK  status: ('A' for Active; 'I' for Inactive)
REMARK    1  A    between atoms: S_1  and  N_8
REMARK    2  A    between atoms: S_1  and  C_22
REMARK    3  A    between atoms: N_7  and  C_16
REMARK    4  A    between atoms: N_8  and  C_17
REMARK    5  A    between atoms: C_10  and  C_16
REMARK    6  A    between atoms: C_11  and  C_17
REMARK                            x       y       z     vdW  Elec       q    Type
REMARK                         _______ _______ _______ _____ _____    ______ ____
ROOT
ATOM      6  N   UNL     1      -1.006   3.294  24.181  0.00  0.00    -0.298 NA
ATOM      9  C   UNL     1       0.042   1.167  25.252  0.00  0.00    -0.003 C 
ATOM     10  C   UNL     1       0.772   1.543  23.942  0.00  0.00    +0.020 C 
ATOM     11  C   UNL     1      -2.067   2.289  24.463  0.00  0.00    +0.072 C 
ATOM     12  C   UNL     1      -1.455   0.961  24.960  0.00  0.00    +0.024 C 
ATOM     13  C   UNL     1       0.020   2.718  23.278  0.00  0.00    +0.089 C 
ATOM     14  C   UNL     1       0.160   2.382  26.193  0.00  0.00    +0.019 C 
ATOM     15  C   UNL     1      -0.350   3.638  25.465  0.00  0.00    +0.085 C 
ENDROOT
BRANCH  10  16
ATOM     16  C   UNL     1       0.933   0.365  22.983  0.00  0.00    +0.089 C 
BRANCH  16   7
ATOM      3  O   UNL     1       5.024  -0.176  23.744  0.00  0.00    -0.377 OA
ATOM      7  N   UNL     1       2.342   0.021  22.811  0.00  0.00    -0.298 NA
ATOM     18  C   UNL     1       2.748  -1.015  23.771  0.00  0.00    +0.112 C 
ATOM     19  C   UNL     1       3.192   1.210  22.965  0.00  0.00    +0.112 C 
ATOM     20  C   UNL     1       4.225  -1.347  23.582  0.00  0.00    +0.175 C 
ATOM     21  C   UNL     1       4.659   0.824  22.792  0.00  0.00    +0.175 C 
ENDBRANCH  16   7
ENDBRANCH  10  16
BRANCH  11  17
ATOM     17  C   UNL     1      -2.999   2.074  23.268  0.00  0.00    +0.124 C 
BRANCH  17   8
ATOM      8  N   UNL     1      -4.373   2.389  23.624  0.00  0.00    -0.188 NA
ATOM     26  H   UNL     1      -4.602   3.389  23.567  0.00  0.00    +0.148 HD
BRANCH   8   1
ATOM      1  S   UNL     1      -5.152   1.571  24.912  0.00  0.00    +0.065 S 
ATOM      4  O   UNL     1      -6.578   1.535  24.653  0.00  0.00    -0.153 OA
ATOM      5  O   UNL     1      -4.654   2.072  26.178  0.00  0.00    -0.153 OA
BRANCH   1  22
ATOM      2  S   UNL     1      -3.769  -0.715  26.118  0.00  0.00    -0.077 S 
ATOM     22  C   UNL     1      -4.521  -0.069  24.721  0.00  0.00    +0.142 A 
ATOM     23  C   UNL     1      -4.504  -0.956  23.667  0.00  0.00    +0.036 A 
ATOM     24  C   UNL     1      -3.865  -2.183  24.012  0.00  0.00    +0.010 A 
ATOM     25  C   UNL     1      -3.419  -2.187  25.314  0.00  0.00    +0.047 A 
ENDBRANCH   1  22
ENDBRANCH   8   1
ENDBRANCH  17   8
ENDBRANCH  11  17
TORSDOF 6
ENDMDL
MODEL 6
REMARK VINA RESULT:      -1.9      1.598      2.113
REMARK  Name = 28991037
REMARK  6 active torsions:
REMARK  status: ('A' for Active; 'I' for Inactive)
REMARK    1  A    between atoms: S_1  and  N_8
REMARK    2  A    between atoms: S_1  and  C_22
REMARK    3  A    between atoms: N_7  and  C_16
REMARK    4  A    between atoms: N_8  and  C_17
REMARK    5  A    between atoms: C_10  and  C_16
REMARK    6  A    between atoms: C_11  and  C_17
REMARK                            x       y       z     vdW  Elec       q    Type
REMARK                         _______ _______ _______ _____ _____    ______ ____
ROOT
ATOM      6  N   UNL     1      -1.587  -1.963  24.002  0.00  0.00    -0.298 NA
ATOM      9  C   UNL     1      -3.154  -0.783  25.712  0.00  0.00    -0.003 C 
ATOM     10  C   UNL     1      -3.113  -0.008  24.375  0.00  0.00    +0.020 C 
ATOM     11  C   UNL     1      -0.869  -1.747  25.288  0.00  0.00    +0.072 C 
ATOM     12  C   UNL     1      -1.725  -0.916  26.269  0.00  0.00    +0.024 C 
ATOM     13  C   UNL     1      -2.062  -0.668  23.455  0.00  0.00    +0.089 C 
ATOM     14  C   UNL     1      -3.651  -2.205  25.389  0.00  0.00    +0.019 C 
ATOM     15  C   UNL     1      -2.773  -2.809  24.279  0.00  0.00    +0.085 C 
ENDROOT
BRANCH  10  16
ATOM     16  C   UNL     1      -2.846   1.485  24.553  0.00  0.00    +0.089 C 
BRANCH  16   7
ATOM      3  O   UNL     1      -6.307   3.363  26.005  0.00  0.00    -0.377 OA
ATOM      7  N   UNL     1      -4.098   2.236  24.607  0.00  0.00    -0.298 NA
ATOM     18  C   UNL     1      -3.950   3.440  25.436  0.00  0.00    +0.112 C 
ATOM     19  C   UNL     1      -5.187   1.397  25.129  0.00  0.00    +0.112 C 
ATOM     20  C   UNL     1      -5.272   4.200  25.488  0.00  0.00    +0.175 C 
ATOM     21  C   UNL     1      -6.481   2.206  25.186  0.00  0.00    +0.175 C 
ENDBRANCH  16   7
ENDBRANCH  10  16
BRANCH  11  17
ATOM     17  C   UNL     1       0.518  -1.134  25.084  0.00  0.00    +0.124 C 
BRANCH  17   8
ATOM      8  N   UNL     1       0.982  -1.351  23.723  0.00  0.00    -0.188 NA
ATOM     26  H   UNL     1       1.552  -2.198  23.605  0.00  0.00    +0.148 HD
BRANCH   8   1
ATOM      1  S   UNL     1       1.489  -0.034  22.752  0.00  0.00    +0.065 S 
ATOM      4  O   UNL     1       0.883   1.183  23.255  0.00  0.00    -0.153 OA
ATOM      5  O   UNL     1       1.363  -0.386  21.351  0.00  0.00    -0.153 OA
BRANCH   1  22
ATOM      2  S   UNL     1       3.863  -1.415  23.776  0.00  0.00    -0.077 S 
ATOM     22  C   UNL     1       3.218   0.028  23.116  0.00  0.00    +0.142 A 
ATOM     23  C   UNL     1       4.176   1.008  22.979  0.00  0.00    +0.036 A 
ATOM     24  C   UNL     1       5.457   0.569  23.422  0.00  0.00    +0.010 A 
ATOM     25  C   UNL     1       5.430  -0.730  23.880  0.00  0.00    +0.047 A 
ENDBRANCH   1  22
ENDBRANCH   8   1
ENDBRANCH  17   8
ENDBRANCH  11  17
TORSDOF 6
ENDMDL
MODEL 7
REMARK VINA RESULT:      -1.8      2.166      4.481
REMARK  Name = 28991037
REMARK  6 active torsions:
REMARK  status: ('A' for Active; 'I' for Inactive)
REMARK    1  A    between atoms: S_1  and  N_8
REMARK    2  A    between atoms: S_1  and  C_22
REMARK    3  A    between atoms: N_7  and  C_16
REMARK    4  A    between atoms: N_8  and  C_17
REMARK    5  A    between atoms: C_10  and  C_16
REMARK    6  A    between atoms: C_11  and  C_17
REMARK                            x       y       z     vdW  Elec       q    Type
REMARK                         _______ _______ _______ _____ _____    ______ ____
ROOT
ATOM      6  N   UNL     1      -3.026   3.024  25.134  0.00  0.00    -0.298 NA
ATOM      9  C   UNL     1      -5.415   2.073  24.733  0.00  0.00    -0.003 C 
ATOM     10  C   UNL     1      -4.580   1.115  25.612  0.00  0.00    +0.020 C 
ATOM     11  C   UNL     1      -3.332   3.010  23.677  0.00  0.00    +0.072 C 
ATOM     12  C   UNL     1      -4.682   2.313  23.400  0.00  0.00    +0.024 C 
ATOM     13  C   UNL     1      -3.135   1.655  25.695  0.00  0.00    +0.089 C 
ATOM     14  C   UNL     1      -5.469   3.424  25.472  0.00  0.00    +0.019 C 
ATOM     15  C   UNL     1      -4.036   3.879  25.804  0.00  0.00    +0.085 C 
ENDROOT
BRANCH  10  16
ATOM     16  C   UNL     1      -4.612  -0.332  25.123  0.00  0.00    +0.089 C 
BRANCH  16   7
ATOM      3  O   UNL     1      -1.114  -2.650  25.168  0.00  0.00    -0.377 OA
ATOM      7  N   UNL     1      -3.264  -0.815  24.833  0.00  0.00    -0.298 NA
ATOM     18  C   UNL     1      -3.306  -2.163  24.250  0.00  0.00    +0.112 C 
ATOM     19  C   UNL     1      -2.439  -0.819  26.049  0.00  0.00    +0.112 C 
ATOM     20  C   UNL     1      -1.888  -2.650  23.968  0.00  0.00    +0.175 C 
ATOM     21  C   UNL     1      -1.040  -1.337  25.724  0.00  0.00    +0.175 C 
ENDBRANCH  16   7
ENDBRANCH  10  16
BRANCH  11  17
ATOM     17  C   UNL     1      -2.198   2.401  22.850  0.00  0.00    +0.124 C 
BRANCH  17   8
ATOM      8  N   UNL     1      -1.313   1.612  23.691  0.00  0.00    -0.188 NA
ATOM     26  H   UNL     1      -1.801   0.979  24.337  0.00  0.00    +0.148 HD
BRANCH   8   1
ATOM      1  S   UNL     1       0.115   2.299  24.343  0.00  0.00    +0.065 S 
ATOM      4  O   UNL     1       0.187   1.984  25.756  0.00  0.00    -0.153 OA
ATOM      5  O   UNL     1       0.243   3.672  23.894  0.00  0.00    -0.153 OA
BRANCH   1  22
ATOM      2  S   UNL     1       0.837  -0.136  22.878  0.00  0.00    -0.077 S 
ATOM     22  C   UNL     1       1.366   1.365  23.512  0.00  0.00    +0.142 A 
ATOM     23  C   UNL     1       2.701   1.591  23.262  0.00  0.00    +0.036 A 
ATOM     24  C   UNL     1       3.298   0.518  22.539  0.00  0.00    +0.010 A 
ATOM     25  C   UNL     1       2.398  -0.487  22.264  0.00  0.00    +0.047 A 
ENDBRANCH   1  22
ENDBRANCH   8   1
ENDBRANCH  17   8
ENDBRANCH  11  17
TORSDOF 6
ENDMDL
MODEL 8
REMARK VINA RESULT:      -1.7      3.359      5.397
REMARK  Name = 28991037
REMARK  6 active torsions:
REMARK  status: ('A' for Active; 'I' for Inactive)
REMARK    1  A    between atoms: S_1  and  N_8
REMARK    2  A    between atoms: S_1  and  C_22
REMARK    3  A    between atoms: N_7  and  C_16
REMARK    4  A    between atoms: N_8  and  C_17
REMARK    5  A    between atoms: C_10  and  C_16
REMARK    6  A    between atoms: C_11  and  C_17
REMARK                            x       y       z     vdW  Elec       q    Type
REMARK                         _______ _______ _______ _____ _____    ______ ____
ROOT
ATOM      6  N   UNL     1      -0.632   1.800  25.732  0.00  0.00    -0.298 NA
ATOM      9  C   UNL     1      -0.782   4.098  24.520  0.00  0.00    -0.003 C 
ATOM     10  C   UNL     1      -2.171   3.649  25.026  0.00  0.00    +0.020 C 
ATOM     11  C   UNL     1       0.003   1.711  24.389  0.00  0.00    +0.072 C 
ATOM     12  C   UNL     1      -0.203   3.016  23.589  0.00  0.00    +0.024 C 
ATOM     13  C   UNL     1      -2.048   2.221  25.603  0.00  0.00    +0.089 C 
ATOM     14  C   UNL     1       0.138   4.176  25.754  0.00  0.00    +0.019 C 
ATOM     15  C   UNL     1       0.089   2.837  26.510  0.00  0.00    +0.085 C 
ENDROOT
BRANCH  10  16
ATOM     16  C   UNL     1      -3.257   3.730  23.954  0.00  0.00    +0.089 C 
BRANCH  16   7
ATOM      3  O   UNL     1      -6.282   1.874  26.194  0.00  0.00    -0.377 OA
ATOM      7  N   UNL     1      -4.566   3.400  24.512  0.00  0.00    -0.298 NA
ATOM     18  C   UNL     1      -4.574   3.582  25.970  0.00  0.00    +0.112 C 
ATOM     19  C   UNL     1      -4.944   2.021  24.175  0.00  0.00    +0.112 C 
ATOM     20  C   UNL     1      -5.946   3.220  26.530  0.00  0.00    +0.175 C 
ATOM     21  C   UNL     1      -6.309   1.697  24.777  0.00  0.00    +0.175 C 
ENDBRANCH  16   7
ENDBRANCH  10  16
BRANCH  11  17
ATOM     17  C   UNL     1      -0.464   0.484  23.603  0.00  0.00    +0.124 C 
BRANCH  17   8
ATOM      8  N   UNL     1       0.126  -0.730  24.145  0.00  0.00    -0.188 NA
ATOM     26  H   UNL     1       0.601  -1.313  23.445  0.00  0.00    +0.148 HD
BRANCH   8   1
ATOM      1  S   UNL     1      -0.679  -1.625  25.363  0.00  0.00    +0.065 S 
ATOM      4  O   UNL     1      -0.730  -0.832  26.575  0.00  0.00    -0.153 OA
ATOM      5  O   UNL     1      -0.156  -2.978  25.398  0.00  0.00    -0.153 OA
BRANCH   1  22
ATOM      2  S   UNL     1      -2.806  -3.293  24.228  0.00  0.00    -0.077 S 
ATOM     22  C   UNL     1      -2.317  -1.722  24.705  0.00  0.00    +0.142 A 
ATOM     23  C   UNL     1      -3.303  -0.786  24.489  0.00  0.00    +0.036 A 
ATOM     24  C   UNL     1      -4.477  -1.365  23.925  0.00  0.00    +0.010 A 
ATOM     25  C   UNL     1      -4.342  -2.722  23.731  0.00  0.00    +0.047 A 
ENDBRANCH   1  22
ENDBRANCH   8   1
ENDBRANCH  17   8
ENDBRANCH  11  17
TORSDOF 6
ENDMDL
MODEL 9
REMARK VINA RESULT:      -1.5      2.908      6.593
REMARK  Name = 28991037
REMARK  6 active torsions:
REMARK  status: ('A' for Active; 'I' for Inactive)
REMARK    1  A    between atoms: S_1  and  N_8
REMARK    2  A    between atoms: S_1  and  C_22
REMARK    3  A    between atoms: N_7  and  C_16
REMARK    4  A    between atoms: N_8  and  C_17
REMARK    5  A    between atoms: C_10  and  C_16
REMARK    6  A    between atoms: C_11  and  C_17
REMARK                            x       y       z     vdW  Elec       q    Type
REMARK                         _______ _______ _______ _____ _____    ______ ____
ROOT
ATOM      6  N   UNL     1      -2.180   4.396  24.556  0.00  0.00    -0.298 NA
ATOM      9  C   UNL     1      -0.211   3.088  25.643  0.00  0.00    -0.003 C 
ATOM     10  C   UNL     1      -0.557   2.510  24.252  0.00  0.00    +0.020 C 
ATOM     11  C   UNL     1      -2.556   3.954  25.927  0.00  0.00    +0.072 C 
ATOM     12  C   UNL     1      -1.464   3.049  26.537  0.00  0.00    +0.024 C 
ATOM     13  C   UNL     1      -1.818   3.225  23.720  0.00  0.00    +0.089 C 
ATOM     14  C   UNL     1       0.153   4.570  25.433  0.00  0.00    +0.019 C 
ATOM     15  C   UNL     1      -0.986   5.269  24.669  0.00  0.00    +0.085 C 
ENDROOT
BRANCH  10  16
ATOM     16  C   UNL     1      -0.731   0.992  24.257  0.00  0.00    +0.089 C 
BRANCH  16   7
ATOM      3  O   UNL     1       2.454   0.107  21.671  0.00  0.00    -0.377 OA
ATOM      7  N   UNL     1       0.426   0.333  23.655  0.00  0.00    -0.298 NA
ATOM     18  C   UNL     1       1.590   1.230  23.640  0.00  0.00    +0.112 C 
ATOM     19  C   UNL     1       0.119  -0.117  22.290  0.00  0.00    +0.112 C 
ATOM     20  C   UNL     1       2.780   0.524  22.996  0.00  0.00    +0.175 C 
ATOM     21  C   UNL     1       1.344  -0.792  21.680  0.00  0.00    +0.175 C 
ENDBRANCH  16   7
ENDBRANCH  10  16
BRANCH  11  17
ATOM     17  C   UNL     1      -3.933   3.289  25.967  0.00  0.00    +0.124 C 
BRANCH  17   8
ATOM      8  N   UNL     1      -3.824   1.863  25.707  0.00  0.00    -0.188 NA
ATOM     26  H   UNL     1      -2.884   1.479  25.863  0.00  0.00    +0.148 HD
BRANCH   8   1
ATOM      1  S   UNL     1      -4.655   1.148  24.391  0.00  0.00    +0.065 S 
ATOM      4  O   UNL     1      -4.105   1.662  23.152  0.00  0.00    -0.153 OA
ATOM      5  O   UNL     1      -6.084   1.201  24.631  0.00  0.00    -0.153 OA
BRANCH   1  22
ATOM      2  S   UNL     1      -3.324  -0.920  25.986  0.00  0.00    -0.077 S 
ATOM     22  C   UNL     1      -4.168  -0.544  24.544  0.00  0.00    +0.142 A 
ATOM     23  C   UNL     1      -4.326  -1.648  23.734  0.00  0.00    +0.036 A 
ATOM     24  C   UNL     1      -3.746  -2.817  24.306  0.00  0.00    +0.010 A 
ATOM     25  C   UNL     1      -3.168  -2.564  25.530  0.00  0.00    +0.047 A 
ENDBRANCH   1  22
ENDBRANCH   8   1
ENDBRANCH  17   8
ENDBRANCH  11  17
TORSDOF 6
ENDMDL
MODEL 10
REMARK VINA RESULT:      -1.3      2.836      5.789
REMARK  Name = 28991037
REMARK  6 active torsions:
REMARK  status: ('A' for Active; 'I' for Inactive)
REMARK    1  A    between atoms: S_1  and  N_8
REMARK    2  A    between atoms: S_1  and  C_22
REMARK    3  A    between atoms: N_7  and  C_16
REMARK    4  A    between atoms: N_8  and  C_17
REMARK    5  A    between atoms: C_10  and  C_16
REMARK    6  A    between atoms: C_11  and  C_17
REMARK                            x       y       z     vdW  Elec       q    Type
REMARK                         _______ _______ _______ _____ _____    ______ ____
ROOT
ATOM      6  N   UNL     1      -3.495   3.788  23.868  0.00  0.00    -0.298 NA
ATOM      9  C   UNL     1      -1.535   3.278  25.502  0.00  0.00    -0.003 C 
ATOM     10  C   UNL     1      -1.227   2.742  24.086  0.00  0.00    +0.020 C 
ATOM     11  C   UNL     1      -4.011   3.108  25.087  0.00  0.00    +0.072 C 
ATOM     12  C   UNL     1      -2.853   2.660  26.005  0.00  0.00    +0.024 C 
ATOM     13  C   UNL     1      -2.477   2.941  23.200  0.00  0.00    +0.089 C 
ATOM     14  C   UNL     1      -1.767   4.795  25.364  0.00  0.00    +0.019 C 
ATOM     15  C   UNL     1      -2.841   5.049  24.291  0.00  0.00    +0.085 C 
ENDROOT
BRANCH  10  16
ATOM     16  C   UNL     1      -0.760   1.288  24.081  0.00  0.00    +0.089 C 
BRANCH  16   7
ATOM      3  O   UNL     1       2.875  -0.101  22.510  0.00  0.00    -0.377 OA
ATOM      7  N   UNL     1       0.397   1.114  23.206  0.00  0.00    -0.298 NA
ATOM     18  C   UNL     1       0.461  -0.261  22.691  0.00  0.00    +0.112 C 
ATOM     19  C   UNL     1       1.641   1.445  23.915  0.00  0.00    +0.112 C 
ATOM     20  C   UNL     1       1.683  -0.421  21.792  0.00  0.00    +0.175 C 
ATOM     21  C   UNL     1       2.835   1.245  22.985  0.00  0.00    +0.175 C 
ENDBRANCH  16   7
ENDBRANCH  10  16
BRANCH  11  17
ATOM     17  C   UNL     1      -4.952   1.948  24.753  0.00  0.00    +0.124 C 
BRANCH  17   8
ATOM      8  N   UNL     1      -4.412   0.690  25.244  0.00  0.00    -0.188 NA
ATOM     26  H   UNL     1      -3.775   0.790  26.043  0.00  0.00    +0.148 HD
BRANCH   8   1
ATOM      1  S   UNL     1      -3.967  -0.555  24.154  0.00  0.00    +0.065 S 
ATOM      4  O   UNL     1      -3.627   0.038  22.875  0.00  0.00    -0.153 OA
ATOM      5  O   UNL     1      -4.934  -1.633  24.225  0.00  0.00    -0.153 OA
BRANCH   1  22
ATOM      2  S   UNL     1      -1.882  -2.615  24.230  0.00  0.00    -0.077 S 
ATOM     22  C   UNL     1      -2.474  -1.151  24.892  0.00  0.00    +0.142 A 
ATOM     23  C   UNL     1      -1.670  -0.679  25.906  0.00  0.00    +0.036 A 
ATOM     24  C   UNL     1      -0.553  -1.532  26.142  0.00  0.00    +0.010 A 
ATOM     25  C   UNL     1      -0.546  -2.621  25.300  0.00  0.00    +0.047 A 
ENDBRANCH   1  22
ENDBRANCH   8   1
ENDBRANCH  17   8
ENDBRANCH  11  17
TORSDOF 6
ENDMDL
