MODEL 1
REMARK VINA RESULT:      -2.3      0.000      0.000
REMARK  Name = 11912808
REMARK  7 active torsions:
REMARK  status: ('A' for Active; 'I' for Inactive)
REMARK    1  A    between atoms: O_3  and  C_14
REMARK    2  A    between atoms: O_3  and  C_18
REMARK    3  A    between atoms: O_4  and  C_19
REMARK    4  A    between atoms: O_4  and  C_29
REMARK    5  A    between atoms: N_8  and  C_13
REMARK    6  A    between atoms: C_18  and  C_19
REMARK    7  A    between atoms: C_20  and  C_23
REMARK                            x       y       z     vdW  Elec       q    Type
REMARK                         _______ _______ _______ _____ _____    ______ ____
ROOT
ATOM      8  N   UNL     1      -3.719   4.589  24.716  0.00  0.00    -0.306 N 
ATOM      9  N   UNL     1      -3.892   2.249  24.789  0.00  0.00    -0.214 NA
ATOM     10  N   UNL     1      -5.708   3.649  25.532  0.00  0.00    -0.223 NA
ATOM     17  C   UNL     1      -4.462   3.462  25.022  0.00  0.00    +0.216 A 
ATOM     20  C   UNL     1      -4.644   1.173  25.097  0.00  0.00    +0.076 A 
ATOM     21  C   UNL     1      -6.404   2.529  25.820  0.00  0.00    +0.116 A 
ATOM     22  C   UNL     1      -5.919   1.253  25.621  0.00  0.00    +0.048 A 
ATOM     31  H   UNL     1      -4.132   5.486  24.942  0.00  0.00    +0.149 HD
ENDROOT
BRANCH  20  23
ATOM      6  O   UNL     1      -0.858  -1.931  25.228  0.00  0.00    -0.453 OA
ATOM      7  O   UNL     1      -2.126  -3.687  24.171  0.00  0.00    -0.453 OA
ATOM     23  C   UNL     1      -4.020  -0.104  24.843  0.00  0.00    +0.004 A 
ATOM     24  C   UNL     1      -2.687  -0.314  25.210  0.00  0.00    +0.059 A 
ATOM     25  C   UNL     1      -4.758  -1.132  24.225  0.00  0.00    +0.014 A 
ATOM     26  C   UNL     1      -2.134  -1.549  24.945  0.00  0.00    +0.167 A 
ATOM     27  C   UNL     1      -2.857  -2.552  24.342  0.00  0.00    +0.166 A 
ATOM     28  C   UNL     1      -4.174  -2.374  23.969  0.00  0.00    +0.050 A 
ATOM     30  C   UNL     1      -0.861  -3.286  24.736  0.00  0.00    +0.466 C 
ENDBRANCH  20  23
BRANCH   8  13
ATOM      1  O   UNL     1      -0.901   4.619  26.030  0.00  0.00    -0.369 OA
ATOM      2  O   UNL     1      -0.684   2.969  23.453  0.00  0.00    -0.369 OA
ATOM     11  C   UNL     1      -1.779   3.170  24.371  0.00  0.00    +0.172 C 
ATOM     12  C   UNL     1      -1.179   3.235  25.762  0.00  0.00    +0.180 C 
ATOM     13  C   UNL     1      -2.380   4.541  24.168  0.00  0.00    +0.130 C 
ATOM     14  C   UNL     1       0.088   2.430  25.610  0.00  0.00    +0.176 C 
ATOM     15  C   UNL     1      -1.448   5.426  24.976  0.00  0.00    +0.185 C 
ATOM     16  C   UNL     1       0.523   2.782  24.205  0.00  0.00    +0.194 C 
BRANCH  14   3
ATOM      3  O   UNL     1       1.075   2.746  26.565  0.00  0.00    -0.360 OA
BRANCH   3  18
ATOM     18  C   UNL     1       0.679   2.373  27.883  0.00  0.00    +0.280 C 
BRANCH  18  19
ATOM      5  O   UNL     1       2.905   3.101  28.514  0.00  0.00    -0.248 OA
ATOM     19  C   UNL     1       1.849   2.558  28.813  0.00  0.00    +0.333 C 
BRANCH  19   4
ATOM      4  O   UNL     1       1.536   2.026  30.031  0.00  0.00    -0.466 OA
ATOM     29  C   UNL     1       0.635   2.802  30.828  0.00  0.00    +0.280 C 
ENDBRANCH  19   4
ENDBRANCH  18  19
ENDBRANCH   3  18
ENDBRANCH  14   3
ENDBRANCH   8  13
TORSDOF 6
ENDMDL
MODEL 2
REMARK VINA RESULT:      -1.4      2.121      3.192
REMARK  Name = 11912808
REMARK  7 active torsions:
REMARK  status: ('A' for Active; 'I' for Inactive)
REMARK    1  A    between atoms: O_3  and  C_14
REMARK    2  A    between atoms: O_3  and  C_18
REMARK    3  A    between atoms: O_4  and  C_19
REMARK    4  A    between atoms: O_4  and  C_29
REMARK    5  A    between atoms: N_8  and  C_13
REMARK    6  A    between atoms: C_18  and  C_19
REMARK    7  A    between atoms: C_20  and  C_23
REMARK                            x       y       z     vdW  Elec       q    Type
REMARK                         _______ _______ _______ _____ _____    ______ ____
ROOT
ATOM      8  N   UNL     1      -3.673   4.618  25.838  0.00  0.00    -0.306 N 
ATOM      9  N   UNL     1      -3.845   2.324  25.372  0.00  0.00    -0.214 NA
ATOM     10  N   UNL     1      -5.815   3.667  25.724  0.00  0.00    -0.223 NA
ATOM     17  C   UNL     1      -4.468   3.503  25.639  0.00  0.00    +0.216 A 
ATOM     20  C   UNL     1      -4.650   1.259  25.183  0.00  0.00    +0.076 A 
ATOM     21  C   UNL     1      -6.560   2.560  25.525  0.00  0.00    +0.116 A 
ATOM     22  C   UNL     1      -6.027   1.317  25.248  0.00  0.00    +0.048 A 
ATOM     31  H   UNL     1      -4.144   5.479  26.088  0.00  0.00    +0.149 HD
ENDROOT
BRANCH  20  23
ATOM      6  O   UNL     1      -0.783  -1.738  25.410  0.00  0.00    -0.453 OA
ATOM      7  O   UNL     1      -1.915  -3.464  24.166  0.00  0.00    -0.453 OA
ATOM     23  C   UNL     1      -3.968   0.018  24.902  0.00  0.00    +0.004 A 
ATOM     24  C   UNL     1      -2.658  -0.175  25.351  0.00  0.00    +0.059 A 
ATOM     25  C   UNL     1      -4.627  -0.993  24.174  0.00  0.00    +0.014 A 
ATOM     26  C   UNL     1      -2.047  -1.377  25.057  0.00  0.00    +0.167 A 
ATOM     27  C   UNL     1      -2.693  -2.363  24.348  0.00  0.00    +0.166 A 
ATOM     28  C   UNL     1      -3.985  -2.201  23.891  0.00  0.00    +0.050 A 
ATOM     30  C   UNL     1      -0.707  -3.061  24.842  0.00  0.00    +0.466 C 
ENDBRANCH  20  23
BRANCH   8  13
ATOM      1  O   UNL     1      -1.612   2.295  25.685  0.00  0.00    -0.369 OA
ATOM      2  O   UNL     1      -0.396   4.686  24.197  0.00  0.00    -0.369 OA
ATOM     11  C   UNL     1      -1.765   4.266  24.377  0.00  0.00    +0.172 C 
ATOM     12  C   UNL     1      -1.769   2.751  24.331  0.00  0.00    +0.180 C 
ATOM     13  C   UNL     1      -2.227   4.591  25.779  0.00  0.00    +0.130 C 
ATOM     14  C   UNL     1      -0.551   2.446  23.493  0.00  0.00    +0.176 C 
ATOM     15  C   UNL     1      -1.688   3.417  26.577  0.00  0.00    +0.185 C 
ATOM     16  C   UNL     1       0.410   3.533  23.920  0.00  0.00    +0.194 C 
BRANCH  14   3
ATOM      3  O   UNL     1      -0.025   1.157  23.712  0.00  0.00    -0.360 OA
BRANCH   3  18
ATOM     18  C   UNL     1       1.400   1.147  23.661  0.00  0.00    +0.280 C 
BRANCH  18  19
ATOM      5  O   UNL     1       1.150  -0.348  21.768  0.00  0.00    -0.248 OA
ATOM     19  C   UNL     1       1.844   0.103  22.671  0.00  0.00    +0.333 C 
BRANCH  19   4
ATOM      4  O   UNL     1       3.134  -0.249  22.946  0.00  0.00    -0.466 OA
ATOM     29  C   UNL     1       4.104   0.792  22.787  0.00  0.00    +0.280 C 
ENDBRANCH  19   4
ENDBRANCH  18  19
ENDBRANCH   3  18
ENDBRANCH  14   3
ENDBRANCH   8  13
TORSDOF 6
ENDMDL
MODEL 3
REMARK VINA RESULT:       0.1      2.753      5.047
REMARK  Name = 11912808
REMARK  7 active torsions:
REMARK  status: ('A' for Active; 'I' for Inactive)
REMARK    1  A    between atoms: O_3  and  C_14
REMARK    2  A    between atoms: O_3  and  C_18
REMARK    3  A    between atoms: O_4  and  C_19
REMARK    4  A    between atoms: O_4  and  C_29
REMARK    5  A    between atoms: N_8  and  C_13
REMARK    6  A    between atoms: C_18  and  C_19
REMARK    7  A    between atoms: C_20  and  C_23
REMARK                            x       y       z     vdW  Elec       q    Type
REMARK                         _______ _______ _______ _____ _____    ______ ____
ROOT
ATOM      8  N   UNL     1      -4.922  -0.806  24.432  0.00  0.00    -0.306 N 
ATOM      9  N   UNL     1      -2.589  -0.622  24.251  0.00  0.00    -0.214 NA
ATOM     10  N   UNL     1      -3.606  -2.600  25.179  0.00  0.00    -0.223 NA
ATOM     17  C   UNL     1      -3.668  -1.360  24.627  0.00  0.00    +0.216 A 
ATOM     20  C   UNL     1      -1.384  -1.191  24.453  0.00  0.00    +0.076 A 
ATOM     21  C   UNL     1      -2.368  -3.109  25.354  0.00  0.00    +0.116 A 
ATOM     22  C   UNL     1      -1.210  -2.443  25.007  0.00  0.00    +0.048 A 
ATOM     31  H   UNL     1      -5.716  -1.342  24.764  0.00  0.00    +0.149 HD
ENDROOT
BRANCH  20  23
ATOM      6  O   UNL     1       3.210  -0.636  22.848  0.00  0.00    -0.453 OA
ATOM      7  O   UNL     1       3.040   1.768  22.874  0.00  0.00    -0.453 OA
ATOM     23  C   UNL     1      -0.252  -0.392  24.048  0.00  0.00    +0.004 A 
ATOM     24  C   UNL     1       0.933  -1.015  23.643  0.00  0.00    +0.059 A 
ATOM     25  C   UNL     1      -0.348   1.014  24.062  0.00  0.00    +0.014 A 
ATOM     26  C   UNL     1       1.987  -0.208  23.266  0.00  0.00    +0.167 A 
ATOM     27  C   UNL     1       1.891   1.164  23.280  0.00  0.00    +0.166 A 
ATOM     28  C   UNL     1       0.735   1.806  23.674  0.00  0.00    +0.050 A 
ATOM     30  C   UNL     1       3.871   0.621  22.601  0.00  0.00    +0.466 C 
ENDBRANCH  20  23
BRANCH   8  13
ATOM      1  O   UNL     1      -5.155   2.032  25.680  0.00  0.00    -0.369 OA
ATOM      2  O   UNL     1      -3.936   2.366  22.885  0.00  0.00    -0.369 OA
ATOM     11  C   UNL     1      -3.850   1.291  23.845  0.00  0.00    +0.172 C 
ATOM     12  C   UNL     1      -3.798   1.932  25.218  0.00  0.00    +0.180 C 
ATOM     13  C   UNL     1      -5.139   0.503  23.857  0.00  0.00    +0.130 C 
ATOM     14  C   UNL     1      -3.206   3.289  24.924  0.00  0.00    +0.176 C 
ATOM     15  C   UNL     1      -6.021   1.340  24.767  0.00  0.00    +0.185 C 
ATOM     16  C   UNL     1      -3.813   3.616  23.578  0.00  0.00    +0.194 C 
BRANCH  14   3
ATOM      3  O   UNL     1      -3.516   4.261  25.895  0.00  0.00    -0.360 OA
BRANCH   3  18
ATOM     18  C   UNL     1      -2.369   5.015  26.280  0.00  0.00    +0.280 C 
BRANCH  18  19
ATOM      5  O   UNL     1      -0.407   4.758  24.879  0.00  0.00    -0.248 OA
ATOM     19  C   UNL     1      -1.136   4.324  25.762  0.00  0.00    +0.333 C 
BRANCH  19   4
ATOM      4  O   UNL     1      -0.971   3.148  26.435  0.00  0.00    -0.466 OA
ATOM     29  C   UNL     1       0.377   2.833  26.802  0.00  0.00    +0.280 C 
ENDBRANCH  19   4
ENDBRANCH  18  19
ENDBRANCH   3  18
ENDBRANCH  14   3
ENDBRANCH   8  13
TORSDOF 6
ENDMDL
MODEL 4
REMARK VINA RESULT:       0.5      2.615      5.359
REMARK  Name = 11912808
REMARK  7 active torsions:
REMARK  status: ('A' for Active; 'I' for Inactive)
REMARK    1  A    between atoms: O_3  and  C_14
REMARK    2  A    between atoms: O_3  and  C_18
REMARK    3  A    between atoms: O_4  and  C_19
REMARK    4  A    between atoms: O_4  and  C_29
REMARK    5  A    between atoms: N_8  and  C_13
REMARK    6  A    between atoms: C_18  and  C_19
REMARK    7  A    between atoms: C_20  and  C_23
REMARK                            x       y       z     vdW  Elec       q    Type
REMARK                         _______ _______ _______ _____ _____    ______ ____
ROOT
ATOM      8  N   UNL     1      -1.054  -2.247  24.533  0.00  0.00    -0.306 N 
ATOM      9  N   UNL     1      -2.910  -0.819  24.677  0.00  0.00    -0.214 NA
ATOM     10  N   UNL     1      -3.134  -3.057  23.812  0.00  0.00    -0.223 NA
ATOM     17  C   UNL     1      -2.406  -2.035  24.334  0.00  0.00    +0.216 A 
ATOM     20  C   UNL     1      -4.232  -0.647  24.470  0.00  0.00    +0.076 A 
ATOM     21  C   UNL     1      -4.450  -2.816  23.631  0.00  0.00    +0.116 A 
ATOM     22  C   UNL     1      -5.059  -1.618  23.945  0.00  0.00    +0.048 A 
ATOM     31  H   UNL     1      -0.679  -3.138  24.227  0.00  0.00    +0.149 HD
ENDROOT
BRANCH  20  23
ATOM      6  O   UNL     1      -4.528   4.219  23.998  0.00  0.00    -0.453 OA
ATOM      7  O   UNL     1      -6.125   4.402  25.793  0.00  0.00    -0.453 OA
ATOM     23  C   UNL     1      -4.745   0.651  24.839  0.00  0.00    +0.004 A 
ATOM     24  C   UNL     1      -4.314   1.792  24.155  0.00  0.00    +0.059 A 
ATOM     25  C   UNL     1      -5.679   0.761  25.889  0.00  0.00    +0.014 A 
ATOM     26  C   UNL     1      -4.832   3.010  24.545  0.00  0.00    +0.167 A 
ATOM     27  C   UNL     1      -5.744   3.115  25.569  0.00  0.00    +0.166 A 
ATOM     28  C   UNL     1      -6.188   2.007  26.262  0.00  0.00    +0.050 A 
ATOM     30  C   UNL     1      -5.351   5.095  24.793  0.00  0.00    +0.466 C 
ENDBRANCH  20  23
BRANCH   8  13
ATOM      1  O   UNL     1       0.005   0.463  23.437  0.00  0.00    -0.369 OA
ATOM      2  O   UNL     1      -0.152   0.717  26.490  0.00  0.00    -0.369 OA
ATOM     11  C   UNL     1      -0.939  -0.046  25.552  0.00  0.00    +0.172 C 
ATOM     12  C   UNL     1      -1.087   0.806  24.307  0.00  0.00    +0.180 C 
ATOM     13  C   UNL     1      -0.158  -1.250  25.080  0.00  0.00    +0.130 C 
ATOM     14  C   UNL     1      -0.948   2.207  24.851  0.00  0.00    +0.176 C 
ATOM     15  C   UNL     1       0.710  -0.663  23.981  0.00  0.00    +0.185 C 
ATOM     16  C   UNL     1       0.080   2.024  25.945  0.00  0.00    +0.194 C 
BRANCH  14   3
ATOM      3  O   UNL     1      -0.534   3.148  23.887  0.00  0.00    -0.360 OA
BRANCH   3  18
ATOM     18  C   UNL     1      -0.181   4.397  24.477  0.00  0.00    +0.280 C 
BRANCH  18  19
ATOM      5  O   UNL     1      -1.763   6.175  24.941  0.00  0.00    -0.248 OA
ATOM     19  C   UNL     1      -1.413   5.011  25.088  0.00  0.00    +0.333 C 
BRANCH  19   4
ATOM      4  O   UNL     1      -2.063   4.063  25.824  0.00  0.00    -0.466 OA
ATOM     29  C   UNL     1      -2.770   4.551  26.970  0.00  0.00    +0.280 C 
ENDBRANCH  19   4
ENDBRANCH  18  19
ENDBRANCH   3  18
ENDBRANCH  14   3
ENDBRANCH   8  13
TORSDOF 6
ENDMDL
MODEL 5
REMARK VINA RESULT:       1.0      3.327      5.891
REMARK  Name = 11912808
REMARK  7 active torsions:
REMARK  status: ('A' for Active; 'I' for Inactive)
REMARK    1  A    between atoms: O_3  and  C_14
REMARK    2  A    between atoms: O_3  and  C_18
REMARK    3  A    between atoms: O_4  and  C_19
REMARK    4  A    between atoms: O_4  and  C_29
REMARK    5  A    between atoms: N_8  and  C_13
REMARK    6  A    between atoms: C_18  and  C_19
REMARK    7  A    between atoms: C_20  and  C_23
REMARK                            x       y       z     vdW  Elec       q    Type
REMARK                         _______ _______ _______ _____ _____    ______ ____
ROOT
ATOM      8  N   UNL     1      -1.165  -2.293  24.551  0.00  0.00    -0.306 N 
ATOM      9  N   UNL     1      -2.969  -0.798  24.683  0.00  0.00    -0.214 NA
ATOM     10  N   UNL     1      -3.297  -3.074  23.959  0.00  0.00    -0.223 NA
ATOM     17  C   UNL     1      -2.518  -2.048  24.393  0.00  0.00    +0.216 A 
ATOM     20  C   UNL     1      -4.292  -0.594  24.519  0.00  0.00    +0.076 A 
ATOM     21  C   UNL     1      -4.611  -2.799  23.816  0.00  0.00    +0.116 A 
ATOM     22  C   UNL     1      -5.170  -1.566  24.084  0.00  0.00    +0.048 A 
ATOM     31  H   UNL     1      -0.831  -3.212  24.282  0.00  0.00    +0.149 HD
ENDROOT
BRANCH  20  23
ATOM      6  O   UNL     1      -3.772   4.274  24.653  0.00  0.00    -0.453 OA
ATOM      7  O   UNL     1      -5.933   4.582  25.675  0.00  0.00    -0.453 OA
ATOM     23  C   UNL     1      -4.750   0.738  24.832  0.00  0.00    +0.004 A 
ATOM     24  C   UNL     1      -3.939   1.841  24.541  0.00  0.00    +0.059 A 
ATOM     25  C   UNL     1      -6.013   0.922  25.429  0.00  0.00    +0.014 A 
ATOM     26  C   UNL     1      -4.420   3.094  24.860  0.00  0.00    +0.167 A 
ATOM     27  C   UNL     1      -5.653   3.271  25.443  0.00  0.00    +0.166 A 
ATOM     28  C   UNL     1      -6.475   2.203  25.741  0.00  0.00    +0.050 A 
ATOM     30  C   UNL     1      -4.737   5.211  25.171  0.00  0.00    +0.466 C 
ENDBRANCH  20  23
BRANCH   8  13
ATOM      1  O   UNL     1       1.710  -1.549  23.632  0.00  0.00    -0.369 OA
ATOM      2  O   UNL     1       0.394   1.021  24.669  0.00  0.00    -0.369 OA
ATOM     11  C   UNL     1      -0.161  -0.146  24.026  0.00  0.00    +0.172 C 
ATOM     12  C   UNL     1       0.848  -0.596  22.988  0.00  0.00    +0.180 C 
ATOM     13  C   UNL     1      -0.218  -1.297  25.003  0.00  0.00    +0.130 C 
ATOM     14  C   UNL     1       1.576   0.685  22.662  0.00  0.00    +0.176 C 
ATOM     15  C   UNL     1       1.196  -1.847  24.939  0.00  0.00    +0.185 C 
ATOM     16  C   UNL     1       1.612   1.382  24.003  0.00  0.00    +0.194 C 
BRANCH  14   3
ATOM      3  O   UNL     1       2.867   0.481  22.135  0.00  0.00    -0.360 OA
BRANCH   3  18
ATOM     18  C   UNL     1       3.830   1.344  22.736  0.00  0.00    +0.280 C 
BRANCH  18  19
ATOM      5  O   UNL     1       5.672   0.928  24.257  0.00  0.00    -0.248 OA
ATOM     19  C   UNL     1       4.860   0.504  23.445  0.00  0.00    +0.333 C 
BRANCH  19   4
ATOM      4  O   UNL     1       4.735  -0.792  23.035  0.00  0.00    -0.466 OA
ATOM     29  C   UNL     1       4.979  -1.782  24.040  0.00  0.00    +0.280 C 
ENDBRANCH  19   4
ENDBRANCH  18  19
ENDBRANCH   3  18
ENDBRANCH  14   3
ENDBRANCH   8  13
TORSDOF 6
ENDMDL
MODEL 6
REMARK VINA RESULT:       1.1      3.147      7.145
REMARK  Name = 11912808
REMARK  7 active torsions:
REMARK  status: ('A' for Active; 'I' for Inactive)
REMARK    1  A    between atoms: O_3  and  C_14
REMARK    2  A    between atoms: O_3  and  C_18
REMARK    3  A    between atoms: O_4  and  C_19
REMARK    4  A    between atoms: O_4  and  C_29
REMARK    5  A    between atoms: N_8  and  C_13
REMARK    6  A    between atoms: C_18  and  C_19
REMARK    7  A    between atoms: C_20  and  C_23
REMARK                            x       y       z     vdW  Elec       q    Type
REMARK                         _______ _______ _______ _____ _____    ______ ____
ROOT
ATOM      8  N   UNL     1       0.394  -1.863  24.431  0.00  0.00    -0.306 N 
ATOM      9  N   UNL     1       0.107   0.465  24.455  0.00  0.00    -0.214 NA
ATOM     10  N   UNL     1       1.976  -0.539  23.313  0.00  0.00    -0.223 NA
ATOM     17  C   UNL     1       0.840  -0.608  24.055  0.00  0.00    +0.216 A 
ATOM     20  C   UNL     1       0.568   1.673  24.070  0.00  0.00    +0.076 A 
ATOM     21  C   UNL     1       2.382   0.700  22.964  0.00  0.00    +0.116 A 
ATOM     22  C   UNL     1       1.711   1.853  23.317  0.00  0.00    +0.048 A 
ATOM     31  H   UNL     1       0.976  -2.653  24.173  0.00  0.00    +0.149 HD
ENDROOT
BRANCH  20  23
ATOM      6  O   UNL     1      -3.007   3.723  26.715  0.00  0.00    -0.453 OA
ATOM      7  O   UNL     1      -2.553   5.916  25.823  0.00  0.00    -0.453 OA
ATOM     23  C   UNL     1      -0.224   2.799  24.505  0.00  0.00    +0.004 A 
ATOM     24  C   UNL     1      -1.248   2.611  25.439  0.00  0.00    +0.059 A 
ATOM     25  C   UNL     1       0.039   4.081  23.985  0.00  0.00    +0.014 A 
ATOM     26  C   UNL     1      -1.978   3.717  25.823  0.00  0.00    +0.167 A 
ATOM     27  C   UNL     1      -1.719   4.968  25.315  0.00  0.00    +0.166 A 
ATOM     28  C   UNL     1      -0.716   5.184  24.392  0.00  0.00    +0.050 A 
ATOM     30  C   UNL     1      -3.366   5.120  26.710  0.00  0.00    +0.466 C 
ENDBRANCH  20  23
BRANCH   8  13
ATOM      1  O   UNL     1      -2.165  -0.165  24.913  0.00  0.00    -0.369 OA
ATOM      2  O   UNL     1      -2.985  -3.116  25.093  0.00  0.00    -0.369 OA
ATOM     11  C   UNL     1      -1.958  -2.453  24.326  0.00  0.00    +0.172 C 
ATOM     12  C   UNL     1      -2.526  -1.114  23.897  0.00  0.00    +0.180 C 
ATOM     13  C   UNL     1      -0.797  -2.087  25.221  0.00  0.00    +0.130 C 
ATOM     14  C   UNL     1      -4.012  -1.379  23.882  0.00  0.00    +0.176 C 
ATOM     15  C   UNL     1      -1.268  -0.786  25.846  0.00  0.00    +0.185 C 
ATOM     16  C   UNL     1      -4.180  -2.323  25.051  0.00  0.00    +0.194 C 
BRANCH  14   3
ATOM      3  O   UNL     1      -4.793  -0.215  24.023  0.00  0.00    -0.360 OA
BRANCH   3  18
ATOM     18  C   UNL     1      -4.633   0.382  25.308  0.00  0.00    +0.280 C 
BRANCH  18  19
ATOM      5  O   UNL     1      -5.854   2.218  26.317  0.00  0.00    -0.248 OA
ATOM     19  C   UNL     1      -5.354   1.704  25.325  0.00  0.00    +0.333 C 
BRANCH  19   4
ATOM      4  O   UNL     1      -5.355   2.225  24.063  0.00  0.00    -0.466 OA
ATOM     29  C   UNL     1      -4.090   2.706  23.595  0.00  0.00    +0.280 C 
ENDBRANCH  19   4
ENDBRANCH  18  19
ENDBRANCH   3  18
ENDBRANCH  14   3
ENDBRANCH   8  13
TORSDOF 6
ENDMDL
