MODEL 1
REMARK VINA RESULT:      -5.1      0.000      0.000
REMARK  Name = 11865650
REMARK  11 active torsions:
REMARK  status: ('A' for Active; 'I' for Inactive)
REMARK    1  A    between atoms: O_1  and  C_11
REMARK    2  A    between atoms: O_2  and  C_14
REMARK    3  A    between atoms: O_3  and  C_16
REMARK    4  A    between atoms: N_7  and  C_12
REMARK    5  A    between atoms: N_8  and  C_19
REMARK    6  A    between atoms: N_9  and  C_22
REMARK    7  A    between atoms: C_11  and  C_17
REMARK    8  A    between atoms: C_19  and  C_20
REMARK    9  A    between atoms: C_19  and  C_21
REMARK   10  A    between atoms: C_22  and  C_23
REMARK   11  A    between atoms: C_23  and  C_24
REMARK                            x       y       z     vdW  Elec       q    Type
REMARK                         _______ _______ _______ _____ _____    ______ ____
ROOT
ATOM     11  C   UNL     1      -3.224   2.085  24.469  0.00  0.00    +0.146 C 
ATOM     12  C   UNL     1      -0.908   3.025  24.010  0.00  0.00    +0.109 C 
ATOM     13  C   UNL     1      -1.740   1.766  24.281  0.00  0.00    +0.069 C 
ATOM     14  C   UNL     1      -1.130   4.097  25.084  0.00  0.00    +0.163 C 
ATOM     15  C   UNL     1      -3.433   3.139  25.554  0.00  0.00    +0.078 C 
ATOM     16  C   UNL     1      -2.616   4.405  25.291  0.00  0.00    +0.148 C 
ENDROOT
BRANCH  12   7
ATOM      5  O   UNL     1       0.204   0.525  23.092  0.00  0.00    -0.253 OA
ATOM      7  N   UNL     1       0.492   2.674  23.921  0.00  0.00    -0.294 N 
ATOM      9  N   UNL     1       2.330   1.370  23.481  0.00  0.00    -0.299 N 
ATOM     18  C   UNL     1       0.939   1.439  23.463  0.00  0.00    +0.300 C 
ATOM     25  H   UNL     1       1.179   3.333  24.275  0.00  0.00    +0.151 HD
ATOM     30  H   UNL     1       2.856   2.178  23.797  0.00  0.00    +0.150 HD
BRANCH   9  22
ATOM     22  C   UNL     1       3.060   0.198  23.056  0.00  0.00    +0.105 C 
BRANCH  22  23
ATOM     23  C   UNL     1       4.544   0.479  22.856  0.00  0.00    +0.015 C 
ATOM     24  C   UNL     1       5.425  -0.281  23.838  0.00  0.00    +0.005 C 
ENDBRANCH  22  23
ENDBRANCH   9  22
ENDBRANCH  12   7
BRANCH  11  17
ATOM      4  O   UNL     1      -5.223   0.819  24.803  0.00  0.00    -0.273 OA
ATOM      8  N   UNL     1      -3.165  -0.222  25.114  0.00  0.00    -0.302 N 
ATOM     17  C   UNL     1      -3.995   0.841  24.802  0.00  0.00    +0.245 C 
ATOM     29  H   UNL     1      -2.158  -0.094  25.122  0.00  0.00    +0.150 HD
BRANCH   8  19
ATOM     19  C   UNL     1      -3.658  -1.527  25.493  0.00  0.00    +0.156 C 
ATOM     20  C   UNL     1      -3.180  -1.911  26.884  0.00  0.00    +0.038 C 
BRANCH  19  21
ATOM      6  O   UNL     1      -3.939  -3.275  23.831  0.00  0.00    -0.274 OA
ATOM     10  N   UNL     1      -1.821  -2.495  24.258  0.00  0.00    -0.328 N 
ATOM     21  C   UNL     1      -3.185  -2.533  24.456  0.00  0.00    +0.231 C 
ATOM     31  H   UNL     1      -1.212  -1.864  24.767  0.00  0.00    +0.145 HD
ATOM     32  H   UNL     1      -1.376  -3.109  23.582  0.00  0.00    +0.145 HD
ENDBRANCH  19  21
ENDBRANCH   8  19
ENDBRANCH  11  17
BRANCH  11   1
ATOM      1  O   UNL     1      -3.791   2.554  23.251  0.00  0.00    -0.379 OA
ATOM     26  H   UNL     1      -4.443   3.244  23.460  0.00  0.00    +0.211 HD
ENDBRANCH  11   1
BRANCH  14   2
ATOM      2  O   UNL     1      -0.491   5.309  24.674  0.00  0.00    -0.387 OA
ATOM     27  H   UNL     1       0.348   5.075  24.241  0.00  0.00    +0.210 HD
ENDBRANCH  14   2
BRANCH  16   3
ATOM      3  O   UNL     1      -2.744   5.278  26.413  0.00  0.00    -0.389 OA
ATOM     28  H   UNL     1      -2.561   4.756  27.213  0.00  0.00    +0.210 HD
ENDBRANCH  16   3
TORSDOF 9
ENDMDL
MODEL 2
REMARK VINA RESULT:      -4.9      2.227      4.869
REMARK  Name = 11865650
REMARK  11 active torsions:
REMARK  status: ('A' for Active; 'I' for Inactive)
REMARK    1  A    between atoms: O_1  and  C_11
REMARK    2  A    between atoms: O_2  and  C_14
REMARK    3  A    between atoms: O_3  and  C_16
REMARK    4  A    between atoms: N_7  and  C_12
REMARK    5  A    between atoms: N_8  and  C_19
REMARK    6  A    between atoms: N_9  and  C_22
REMARK    7  A    between atoms: C_11  and  C_17
REMARK    8  A    between atoms: C_19  and  C_20
REMARK    9  A    between atoms: C_19  and  C_21
REMARK   10  A    between atoms: C_22  and  C_23
REMARK   11  A    between atoms: C_23  and  C_24
REMARK                            x       y       z     vdW  Elec       q    Type
REMARK                         _______ _______ _______ _____ _____    ______ ____
ROOT
ATOM     11  C   UNL     1      -2.525   0.738  24.498  0.00  0.00    +0.146 C 
ATOM     12  C   UNL     1      -0.397  -0.647  24.396  0.00  0.00    +0.109 C 
ATOM     13  C   UNL     1      -1.153   0.566  23.843  0.00  0.00    +0.069 C 
ATOM     14  C   UNL     1      -1.235  -1.929  24.311  0.00  0.00    +0.163 C 
ATOM     15  C   UNL     1      -3.356  -0.538  24.389  0.00  0.00    +0.078 C 
ATOM     16  C   UNL     1      -2.617  -1.756  24.946  0.00  0.00    +0.148 C 
ENDROOT
BRANCH  12   7
ATOM      5  O   UNL     1       1.570   1.395  23.857  0.00  0.00    -0.253 OA
ATOM      7  N   UNL     1       0.854  -0.807  23.687  0.00  0.00    -0.294 N 
ATOM      9  N   UNL     1       2.865  -0.192  22.767  0.00  0.00    -0.299 N 
ATOM     18  C   UNL     1       1.745   0.239  23.473  0.00  0.00    +0.300 C 
ATOM     25  H   UNL     1       1.058  -1.707  23.264  0.00  0.00    +0.151 HD
ATOM     30  H   UNL     1       2.928  -1.168  22.497  0.00  0.00    +0.150 HD
BRANCH   9  22
ATOM     22  C   UNL     1       3.951   0.691  22.408  0.00  0.00    +0.105 C 
BRANCH  22  23
ATOM     23  C   UNL     1       5.072   0.682  23.440  0.00  0.00    +0.015 C 
ATOM     24  C   UNL     1       5.323  -0.701  24.025  0.00  0.00    +0.005 C 
ENDBRANCH  22  23
ENDBRANCH   9  22
ENDBRANCH  12   7
BRANCH  11  17
ATOM      4  O   UNL     1      -3.221   2.120  22.677  0.00  0.00    -0.273 OA
ATOM      8  N   UNL     1      -3.951   2.636  24.827  0.00  0.00    -0.302 N 
ATOM     17  C   UNL     1      -3.264   1.891  23.883  0.00  0.00    +0.245 C 
ATOM     29  H   UNL     1      -3.894   2.387  25.809  0.00  0.00    +0.150 HD
BRANCH   8  19
ATOM     19  C   UNL     1      -4.724   3.812  24.496  0.00  0.00    +0.156 C 
ATOM     20  C   UNL     1      -3.836   5.042  24.404  0.00  0.00    +0.038 C 
BRANCH  19  21
ATOM      6  O   UNL     1      -6.354   5.060  25.793  0.00  0.00    -0.274 OA
ATOM     10  N   UNL     1      -6.108   2.814  26.208  0.00  0.00    -0.328 N 
ATOM     21  C   UNL     1      -5.795   3.991  25.560  0.00  0.00    +0.231 C 
ATOM     31  H   UNL     1      -5.652   1.934  25.991  0.00  0.00    +0.145 HD
ATOM     32  H   UNL     1      -6.817   2.793  26.933  0.00  0.00    +0.145 HD
ENDBRANCH  19  21
ENDBRANCH   8  19
ENDBRANCH  11  17
BRANCH  11   1
ATOM      1  O   UNL     1      -2.381   1.084  25.871  0.00  0.00    -0.379 OA
ATOM     26  H   UNL     1      -2.912   1.879  26.046  0.00  0.00    +0.211 HD
ENDBRANCH  11   1
BRANCH  14   2
ATOM      2  O   UNL     1      -0.562  -2.974  25.018  0.00  0.00    -0.387 OA
ATOM     27  H   UNL     1      -1.206  -3.400  25.610  0.00  0.00    +0.210 HD
ENDBRANCH  14   2
BRANCH  16   3
ATOM      3  O   UNL     1      -3.388  -2.927  24.677  0.00  0.00    -0.389 OA
ATOM     28  H   UNL     1      -4.060  -3.001  25.376  0.00  0.00    +0.210 HD
ENDBRANCH  16   3
TORSDOF 9
ENDMDL
MODEL 3
REMARK VINA RESULT:      -4.6      1.625      5.035
REMARK  Name = 11865650
REMARK  11 active torsions:
REMARK  status: ('A' for Active; 'I' for Inactive)
REMARK    1  A    between atoms: O_1  and  C_11
REMARK    2  A    between atoms: O_2  and  C_14
REMARK    3  A    between atoms: O_3  and  C_16
REMARK    4  A    between atoms: N_7  and  C_12
REMARK    5  A    between atoms: N_8  and  C_19
REMARK    6  A    between atoms: N_9  and  C_22
REMARK    7  A    between atoms: C_11  and  C_17
REMARK    8  A    between atoms: C_19  and  C_20
REMARK    9  A    between atoms: C_19  and  C_21
REMARK   10  A    between atoms: C_22  and  C_23
REMARK   11  A    between atoms: C_23  and  C_24
REMARK                            x       y       z     vdW  Elec       q    Type
REMARK                         _______ _______ _______ _____ _____    ______ ____
ROOT
ATOM     11  C   UNL     1      -3.399   0.087  25.293  0.00  0.00    +0.146 C 
ATOM     12  C   UNL     1      -1.330  -1.326  24.867  0.00  0.00    +0.109 C 
ATOM     13  C   UNL     1      -1.905   0.091  24.965  0.00  0.00    +0.069 C 
ATOM     14  C   UNL     1      -2.127  -2.198  23.888  0.00  0.00    +0.163 C 
ATOM     15  C   UNL     1      -4.183  -0.769  24.300  0.00  0.00    +0.078 C 
ATOM     16  C   UNL     1      -3.626  -2.190  24.200  0.00  0.00    +0.148 C 
ENDROOT
BRANCH  12   7
ATOM      5  O   UNL     1      -0.171   0.347  22.822  0.00  0.00    -0.253 OA
ATOM      7  N   UNL     1       0.061  -1.263  24.477  0.00  0.00    -0.294 N 
ATOM      9  N   UNL     1       1.908  -0.562  23.307  0.00  0.00    -0.299 N 
ATOM     18  C   UNL     1       0.533  -0.421  23.476  0.00  0.00    +0.300 C 
ATOM     25  H   UNL     1       0.713  -1.914  24.906  0.00  0.00    +0.151 HD
ATOM     30  H   UNL     1       2.409  -1.217  23.899  0.00  0.00    +0.150 HD
BRANCH   9  22
ATOM     22  C   UNL     1       2.658   0.194  22.331  0.00  0.00    +0.105 C 
BRANCH  22  23
ATOM     23  C   UNL     1       3.774   1.014  22.965  0.00  0.00    +0.015 C 
ATOM     24  C   UNL     1       5.027   0.192  23.237  0.00  0.00    +0.005 C 
ENDBRANCH  22  23
ENDBRANCH   9  22
ENDBRANCH  12   7
BRANCH  11  17
ATOM      4  O   UNL     1      -5.146   1.714  25.396  0.00  0.00    -0.273 OA
ATOM      8  N   UNL     1      -2.942   2.436  25.201  0.00  0.00    -0.302 N 
ATOM     17  C   UNL     1      -3.941   1.486  25.311  0.00  0.00    +0.245 C 
ATOM     29  H   UNL     1      -1.975   2.147  25.097  0.00  0.00    +0.150 HD
BRANCH   8  19
ATOM     19  C   UNL     1      -3.201   3.858  25.170  0.00  0.00    +0.156 C 
ATOM     20  C   UNL     1      -3.958   4.250  23.911  0.00  0.00    +0.038 C 
BRANCH  19  21
ATOM      6  O   UNL     1      -1.752   5.807  25.161  0.00  0.00    -0.274 OA
ATOM     10  N   UNL     1      -0.810   3.738  25.494  0.00  0.00    -0.328 N 
ATOM     21  C   UNL     1      -1.870   4.587  25.255  0.00  0.00    +0.231 C 
ATOM     31  H   UNL     1      -0.925   2.735  25.589  0.00  0.00    +0.145 HD
ATOM     32  H   UNL     1       0.135   4.098  25.585  0.00  0.00    +0.145 HD
ENDBRANCH  19  21
ENDBRANCH   8  19
ENDBRANCH  11  17
BRANCH  11   1
ATOM      1  O   UNL     1      -3.619  -0.410  26.609  0.00  0.00    -0.379 OA
ATOM     26  H   UNL     1      -2.757  -0.626  27.004  0.00  0.00    +0.211 HD
ENDBRANCH  11   1
BRANCH  14   2
ATOM      2  O   UNL     1      -1.672  -3.551  23.991  0.00  0.00    -0.387 OA
ATOM     27  H   UNL     1      -2.453  -4.128  24.045  0.00  0.00    +0.210 HD
ENDBRANCH  14   2
BRANCH  16   3
ATOM      3  O   UNL     1      -4.309  -2.880  23.153  0.00  0.00    -0.389 OA
ATOM     28  H   UNL     1      -3.722  -2.890  22.378  0.00  0.00    +0.210 HD
ENDBRANCH  16   3
TORSDOF 9
ENDMDL
MODEL 4
REMARK VINA RESULT:      -3.5     15.785     19.248
REMARK  Name = 11865650
REMARK  11 active torsions:
REMARK  status: ('A' for Active; 'I' for Inactive)
REMARK    1  A    between atoms: O_1  and  C_11
REMARK    2  A    between atoms: O_2  and  C_14
REMARK    3  A    between atoms: O_3  and  C_16
REMARK    4  A    between atoms: N_7  and  C_12
REMARK    5  A    between atoms: N_8  and  C_19
REMARK    6  A    between atoms: N_9  and  C_22
REMARK    7  A    between atoms: C_11  and  C_17
REMARK    8  A    between atoms: C_19  and  C_20
REMARK    9  A    between atoms: C_19  and  C_21
REMARK   10  A    between atoms: C_22  and  C_23
REMARK   11  A    between atoms: C_23  and  C_24
REMARK                            x       y       z     vdW  Elec       q    Type
REMARK                         _______ _______ _______ _____ _____    ______ ____
ROOT
ATOM     11  C   UNL     1      15.151  -7.723  30.613  0.00  0.00    +0.146 C 
ATOM     12  C   UNL     1      12.866  -7.159  31.571  0.00  0.00    +0.109 C 
ATOM     13  C   UNL     1      13.649  -8.012  30.568  0.00  0.00    +0.069 C 
ATOM     14  C   UNL     1      13.165  -5.664  31.405  0.00  0.00    +0.163 C 
ATOM     15  C   UNL     1      15.435  -6.234  30.425  0.00  0.00    +0.078 C 
ATOM     16  C   UNL     1      14.667  -5.371  31.428  0.00  0.00    +0.148 C 
ENDROOT
BRANCH  12   7
ATOM      5  O   UNL     1      11.335  -9.229  32.873  0.00  0.00    -0.253 OA
ATOM      7  N   UNL     1      11.450  -7.416  31.429  0.00  0.00    -0.294 N 
ATOM      9  N   UNL     1       9.437  -8.462  31.781  0.00  0.00    -0.299 N 
ATOM     18  C   UNL     1      10.792  -8.441  32.100  0.00  0.00    +0.300 C 
ATOM     25  H   UNL     1      10.924  -6.868  30.754  0.00  0.00    +0.151 HD
ATOM     30  H   UNL     1       9.075  -7.766  31.137  0.00  0.00    +0.150 HD
BRANCH   9  22
ATOM     22  C   UNL     1       8.517  -9.427  32.338  0.00  0.00    +0.105 C 
BRANCH  22  23
ATOM     23  C   UNL     1       7.340  -9.707  31.412  0.00  0.00    +0.015 C 
ATOM     24  C   UNL     1       6.675  -8.435  30.904  0.00  0.00    +0.005 C 
ENDBRANCH  22  23
ENDBRANCH   9  22
ENDBRANCH  12   7
BRANCH  11  17
ATOM      4  O   UNL     1      16.677  -9.405  29.869  0.00  0.00    -0.273 OA
ATOM      8  N   UNL     1      15.545  -8.128  28.284  0.00  0.00    -0.302 N 
ATOM     17  C   UNL     1      15.876  -8.522  29.570  0.00  0.00    +0.245 C 
ATOM     29  H   UNL     1      14.899  -7.360  28.139  0.00  0.00    +0.150 HD
BRANCH   8  19
ATOM     19  C   UNL     1      16.123  -8.725  27.101  0.00  0.00    +0.156 C 
ATOM     20  C   UNL     1      16.300  -7.694  25.998  0.00  0.00    +0.038 C 
BRANCH  19  21
ATOM      6  O   UNL     1      14.860 -10.781  27.376  0.00  0.00    -0.274 OA
ATOM     10  N   UNL     1      14.791  -9.713  25.343  0.00  0.00    -0.328 N 
ATOM     21  C   UNL     1      15.214  -9.857  26.648  0.00  0.00    +0.231 C 
ATOM     31  H   UNL     1      15.075  -8.934  24.760  0.00  0.00    +0.145 HD
ATOM     32  H   UNL     1      14.170 -10.395  24.920  0.00  0.00    +0.145 HD
ENDBRANCH  19  21
ENDBRANCH   8  19
ENDBRANCH  11  17
BRANCH  11   1
ATOM      1  O   UNL     1      15.704  -8.149  31.853  0.00  0.00    -0.379 OA
ATOM     26  H   UNL     1      16.668  -8.031  31.817  0.00  0.00    +0.211 HD
ENDBRANCH  11   1
BRANCH  14   2
ATOM      2  O   UNL     1      12.567  -4.945  32.487  0.00  0.00    -0.387 OA
ATOM     27  H   UNL     1      12.459  -4.018  32.210  0.00  0.00    +0.210 HD
ENDBRANCH  14   2
BRANCH  16   3
ATOM      3  O   UNL     1      14.865  -3.995  31.099  0.00  0.00    -0.389 OA
ATOM     28  H   UNL     1      15.397  -3.963  30.287  0.00  0.00    +0.210 HD
ENDBRANCH  16   3
TORSDOF 9
ENDMDL
MODEL 5
REMARK VINA RESULT:      -2.7     17.023     19.735
REMARK  Name = 11865650
REMARK  11 active torsions:
REMARK  status: ('A' for Active; 'I' for Inactive)
REMARK    1  A    between atoms: O_1  and  C_11
REMARK    2  A    between atoms: O_2  and  C_14
REMARK    3  A    between atoms: O_3  and  C_16
REMARK    4  A    between atoms: N_7  and  C_12
REMARK    5  A    between atoms: N_8  and  C_19
REMARK    6  A    between atoms: N_9  and  C_22
REMARK    7  A    between atoms: C_11  and  C_17
REMARK    8  A    between atoms: C_19  and  C_20
REMARK    9  A    between atoms: C_19  and  C_21
REMARK   10  A    between atoms: C_22  and  C_23
REMARK   11  A    between atoms: C_23  and  C_24
REMARK                            x       y       z     vdW  Elec       q    Type
REMARK                         _______ _______ _______ _____ _____    ______ ____
ROOT
ATOM     11  C   UNL     1      16.334  -6.791  28.403  0.00  0.00    +0.146 C 
ATOM     12  C   UNL     1      14.585  -6.832  30.246  0.00  0.00    +0.109 C 
ATOM     13  C   UNL     1      14.848  -6.930  28.739  0.00  0.00    +0.069 C 
ATOM     14  C   UNL     1      15.190  -5.558  30.849  0.00  0.00    +0.163 C 
ATOM     15  C   UNL     1      16.919  -5.510  28.993  0.00  0.00    +0.078 C 
ATOM     16  C   UNL     1      16.672  -5.404  30.498  0.00  0.00    +0.148 C 
ENDROOT
BRANCH  12   7
ATOM      5  O   UNL     1      13.265  -8.039  32.510  0.00  0.00    -0.253 OA
ATOM      7  N   UNL     1      13.161  -6.890  30.496  0.00  0.00    -0.294 N 
ATOM      9  N   UNL     1      11.222  -7.406  31.611  0.00  0.00    -0.299 N 
ATOM     18  C   UNL     1      12.612  -7.495  31.621  0.00  0.00    +0.300 C 
ATOM     25  H   UNL     1      12.530  -6.534  29.784  0.00  0.00    +0.151 HD
ATOM     30  H   UNL     1      10.767  -6.931  30.838  0.00  0.00    +0.150 HD
BRANCH   9  22
ATOM     22  C   UNL     1      10.395  -7.953  32.662  0.00  0.00    +0.105 C 
BRANCH  22  23
ATOM     23  C   UNL     1       9.430  -9.014  32.148  0.00  0.00    +0.015 C 
ATOM     24  C   UNL     1       8.040  -8.457  31.866  0.00  0.00    +0.005 C 
ENDBRANCH  22  23
ENDBRANCH   9  22
ENDBRANCH  12   7
BRANCH  11  17
ATOM      4  O   UNL     1      16.913  -7.837  26.334  0.00  0.00    -0.273 OA
ATOM      8  N   UNL     1      16.302  -5.591  26.329  0.00  0.00    -0.302 N 
ATOM     17  C   UNL     1      16.546  -6.820  26.918  0.00  0.00    +0.245 C 
ATOM     29  H   UNL     1      16.039  -4.797  26.904  0.00  0.00    +0.150 HD
BRANCH   8  19
ATOM     19  C   UNL     1      16.456  -5.347  24.913  0.00  0.00    +0.156 C 
ATOM     20  C   UNL     1      17.405  -6.354  24.283  0.00  0.00    +0.038 C 
BRANCH  19  21
ATOM      6  O   UNL     1      17.403  -3.234  25.643  0.00  0.00    -0.274 OA
ATOM     10  N   UNL     1      16.928  -3.513  23.413  0.00  0.00    -0.328 N 
ATOM     21  C   UNL     1      16.966  -3.927  24.728  0.00  0.00    +0.231 C 
ATOM     31  H   UNL     1      16.583  -4.103  22.664  0.00  0.00    +0.145 HD
ATOM     32  H   UNL     1      17.252  -2.587  23.150  0.00  0.00    +0.145 HD
ENDBRANCH  19  21
ENDBRANCH   8  19
ENDBRANCH  11  17
BRANCH  11   1
ATOM      1  O   UNL     1      17.064  -7.907  28.901  0.00  0.00    -0.379 OA
ATOM     26  H   UNL     1      17.510  -7.641  29.723  0.00  0.00    +0.211 HD
ENDBRANCH  11   1
BRANCH  14   2
ATOM      2  O   UNL     1      15.087  -5.623  32.274  0.00  0.00    -0.387 OA
ATOM     27  H   UNL     1      15.766  -5.037  32.652  0.00  0.00    +0.210 HD
ENDBRANCH  14   2
BRANCH  16   3
ATOM      3  O   UNL     1      17.112  -4.122  30.949  0.00  0.00    -0.389 OA
ATOM     28  H   UNL     1      17.220  -3.558  30.165  0.00  0.00    +0.210 HD
ENDBRANCH  16   3
TORSDOF 9
ENDMDL
MODEL 6
REMARK VINA RESULT:      -2.6     16.254     20.040
REMARK  Name = 11865650
REMARK  11 active torsions:
REMARK  status: ('A' for Active; 'I' for Inactive)
REMARK    1  A    between atoms: O_1  and  C_11
REMARK    2  A    between atoms: O_2  and  C_14
REMARK    3  A    between atoms: O_3  and  C_16
REMARK    4  A    between atoms: N_7  and  C_12
REMARK    5  A    between atoms: N_8  and  C_19
REMARK    6  A    between atoms: N_9  and  C_22
REMARK    7  A    between atoms: C_11  and  C_17
REMARK    8  A    between atoms: C_19  and  C_20
REMARK    9  A    between atoms: C_19  and  C_21
REMARK   10  A    between atoms: C_22  and  C_23
REMARK   11  A    between atoms: C_23  and  C_24
REMARK                            x       y       z     vdW  Elec       q    Type
REMARK                         _______ _______ _______ _____ _____    ______ ____
ROOT
ATOM     11  C   UNL     1      15.010  -8.525  29.625  0.00  0.00    +0.146 C 
ATOM     12  C   UNL     1      12.913  -8.920  31.004  0.00  0.00    +0.109 C 
ATOM     13  C   UNL     1      13.673  -7.949  30.094  0.00  0.00    +0.069 C 
ATOM     14  C   UNL     1      13.775  -9.392  32.182  0.00  0.00    +0.163 C 
ATOM     15  C   UNL     1      15.867  -8.973  30.808  0.00  0.00    +0.078 C 
ATOM     16  C   UNL     1      15.123  -9.950  31.719  0.00  0.00    +0.148 C 
ENDROOT
BRANCH  12   7
ATOM      5  O   UNL     1      10.422 -10.224  31.655  0.00  0.00    -0.253 OA
ATOM      7  N   UNL     1      11.698  -8.293  31.480  0.00  0.00    -0.294 N 
ATOM      9  N   UNL     1       9.526  -8.156  32.208  0.00  0.00    -0.299 N 
ATOM     18  C   UNL     1      10.539  -9.005  31.770  0.00  0.00    +0.300 C 
ATOM     25  H   UNL     1      11.668  -7.279  31.537  0.00  0.00    +0.151 HD
ATOM     30  H   UNL     1       9.716  -7.162  32.279  0.00  0.00    +0.150 HD
BRANCH   9  22
ATOM     22  C   UNL     1       8.213  -8.632  32.578  0.00  0.00    +0.105 C 
BRANCH  22  23
ATOM     23  C   UNL     1       7.164  -8.328  31.515  0.00  0.00    +0.015 C 
ATOM     24  C   UNL     1       6.858  -9.528  30.629  0.00  0.00    +0.005 C 
ENDBRANCH  22  23
ENDBRANCH   9  22
ENDBRANCH  12   7
BRANCH  11  17
ATOM      4  O   UNL     1      15.778  -6.327  29.085  0.00  0.00    -0.273 OA
ATOM      8  N   UNL     1      16.373  -8.101  27.701  0.00  0.00    -0.302 N 
ATOM     17  C   UNL     1      15.758  -7.521  28.796  0.00  0.00    +0.245 C 
ATOM     29  H   UNL     1      16.266  -9.095  27.525  0.00  0.00    +0.150 HD
BRANCH   8  19
ATOM     19  C   UNL     1      17.137  -7.348  26.732  0.00  0.00    +0.156 C 
ATOM     20  C   UNL     1      16.567  -5.950  26.551  0.00  0.00    +0.038 C 
BRANCH  19  21
ATOM      6  O   UNL     1      17.401  -7.610  24.332  0.00  0.00    -0.274 OA
ATOM     10  N   UNL     1      16.823  -9.450  25.581  0.00  0.00    -0.328 N 
ATOM     21  C   UNL     1      17.128  -8.115  25.419  0.00  0.00    +0.231 C 
ATOM     31  H   UNL     1      16.619  -9.857  26.488  0.00  0.00    +0.145 HD
ATOM     32  H   UNL     1      16.795 -10.078  24.784  0.00  0.00    +0.145 HD
ENDBRANCH  19  21
ENDBRANCH   8  19
ENDBRANCH  11  17
BRANCH  11   1
ATOM      1  O   UNL     1      14.798  -9.633  28.758  0.00  0.00    -0.379 OA
ATOM     26  H   UNL     1      15.025  -9.364  27.852  0.00  0.00    +0.211 HD
ENDBRANCH  11   1
BRANCH  14   2
ATOM      2  O   UNL     1      13.088 -10.439  32.873  0.00  0.00    -0.387 OA
ATOM     27  H   UNL     1      12.539 -10.032  33.566  0.00  0.00    +0.210 HD
ENDBRANCH  14   2
BRANCH  16   3
ATOM      3  O   UNL     1      15.926 -10.207  32.872  0.00  0.00    -0.389 OA
ATOM     28  H   UNL     1      16.132 -11.157  32.879  0.00  0.00    +0.210 HD
ENDBRANCH  16   3
TORSDOF 9
ENDMDL
MODEL 7
REMARK VINA RESULT:      -2.4      2.159      3.463
REMARK  Name = 11865650
REMARK  11 active torsions:
REMARK  status: ('A' for Active; 'I' for Inactive)
REMARK    1  A    between atoms: O_1  and  C_11
REMARK    2  A    between atoms: O_2  and  C_14
REMARK    3  A    between atoms: O_3  and  C_16
REMARK    4  A    between atoms: N_7  and  C_12
REMARK    5  A    between atoms: N_8  and  C_19
REMARK    6  A    between atoms: N_9  and  C_22
REMARK    7  A    between atoms: C_11  and  C_17
REMARK    8  A    between atoms: C_19  and  C_20
REMARK    9  A    between atoms: C_19  and  C_21
REMARK   10  A    between atoms: C_22  and  C_23
REMARK   11  A    between atoms: C_23  and  C_24
REMARK                            x       y       z     vdW  Elec       q    Type
REMARK                         _______ _______ _______ _____ _____    ______ ____
ROOT
ATOM     11  C   UNL     1      -2.494   1.206  23.720  0.00  0.00    +0.146 C 
ATOM     12  C   UNL     1      -0.003   0.719  23.578  0.00  0.00    +0.109 C 
ATOM     13  C   UNL     1      -1.390   0.167  23.928  0.00  0.00    +0.069 C 
ATOM     14  C   UNL     1       0.295   2.026  24.322  0.00  0.00    +0.163 C 
ATOM     15  C   UNL     1      -2.193   2.495  24.482  0.00  0.00    +0.078 C 
ATOM     16  C   UNL     1      -0.816   3.062  24.134  0.00  0.00    +0.148 C 
ENDROOT
BRANCH  12   7
ATOM      5  O   UNL     1       2.669   0.583  22.497  0.00  0.00    -0.253 OA
ATOM      7  N   UNL     1       1.005  -0.277  23.868  0.00  0.00    -0.294 N 
ATOM      9  N   UNL     1       3.040  -1.333  23.752  0.00  0.00    -0.299 N 
ATOM     18  C   UNL     1       2.273  -0.263  23.298  0.00  0.00    +0.300 C 
ATOM     25  H   UNL     1       0.752  -1.062  24.461  0.00  0.00    +0.151 HD
ATOM     30  H   UNL     1       2.632  -1.979  24.421  0.00  0.00    +0.150 HD
BRANCH   9  22
ATOM     22  C   UNL     1       4.399  -1.561  23.319  0.00  0.00    +0.105 C 
BRANCH  22  23
ATOM     23  C   UNL     1       5.418  -0.872  24.218  0.00  0.00    +0.015 C 
ATOM     24  C   UNL     1       5.706   0.561  23.791  0.00  0.00    +0.005 C 
ENDBRANCH  22  23
ENDBRANCH   9  22
ENDBRANCH  12   7
BRANCH  11  17
ATOM      4  O   UNL     1      -4.139  -0.514  23.931  0.00  0.00    -0.273 OA
ATOM      8  N   UNL     1      -4.619   1.612  24.748  0.00  0.00    -0.302 N 
ATOM     17  C   UNL     1      -3.825   0.656  24.140  0.00  0.00    +0.245 C 
ATOM     29  H   UNL     1      -4.284   2.565  24.841  0.00  0.00    +0.150 HD
BRANCH   8  19
ATOM     19  C   UNL     1      -5.958   1.343  25.223  0.00  0.00    +0.156 C 
ATOM     20  C   UNL     1      -6.982   1.539  24.117  0.00  0.00    +0.038 C 
BRANCH  19  21
ATOM      6  O   UNL     1      -6.593   1.873  27.507  0.00  0.00    -0.274 OA
ATOM     10  N   UNL     1      -6.014   3.595  26.100  0.00  0.00    -0.328 N 
ATOM     21  C   UNL     1      -6.240   2.267  26.397  0.00  0.00    +0.231 C 
ATOM     31  H   UNL     1      -5.703   3.904  25.185  0.00  0.00    +0.145 HD
ATOM     32  H   UNL     1      -6.153   4.316  26.800  0.00  0.00    +0.145 HD
ENDBRANCH  19  21
ENDBRANCH   8  19
ENDBRANCH  11  17
BRANCH  11   1
ATOM      1  O   UNL     1      -2.639   1.508  22.337  0.00  0.00    -0.379 OA
ATOM     26  H   UNL     1      -2.205   2.359  22.160  0.00  0.00    +0.211 HD
ENDBRANCH  11   1
BRANCH  14   2
ATOM      2  O   UNL     1       1.504   2.591  23.807  0.00  0.00    -0.387 OA
ATOM     27  H   UNL     1       1.299   3.475  23.459  0.00  0.00    +0.210 HD
ENDBRANCH  14   2
BRANCH  16   3
ATOM      3  O   UNL     1      -0.546   4.174  24.988  0.00  0.00    -0.389 OA
ATOM     28  H   UNL     1       0.052   4.772  24.508  0.00  0.00    +0.210 HD
ENDBRANCH  16   3
TORSDOF 9
ENDMDL
MODEL 8
REMARK VINA RESULT:      -2.3      2.389      7.182
REMARK  Name = 11865650
REMARK  11 active torsions:
REMARK  status: ('A' for Active; 'I' for Inactive)
REMARK    1  A    between atoms: O_1  and  C_11
REMARK    2  A    between atoms: O_2  and  C_14
REMARK    3  A    between atoms: O_3  and  C_16
REMARK    4  A    between atoms: N_7  and  C_12
REMARK    5  A    between atoms: N_8  and  C_19
REMARK    6  A    between atoms: N_9  and  C_22
REMARK    7  A    between atoms: C_11  and  C_17
REMARK    8  A    between atoms: C_19  and  C_20
REMARK    9  A    between atoms: C_19  and  C_21
REMARK   10  A    between atoms: C_22  and  C_23
REMARK   11  A    between atoms: C_23  and  C_24
REMARK                            x       y       z     vdW  Elec       q    Type
REMARK                         _______ _______ _______ _____ _____    ______ ____
ROOT
ATOM     11  C   UNL     1       0.149   0.022  23.376  0.00  0.00    +0.146 C 
ATOM     12  C   UNL     1      -2.381   0.238  23.282  0.00  0.00    +0.109 C 
ATOM     13  C   UNL     1      -1.045   0.979  23.401  0.00  0.00    +0.069 C 
ATOM     14  C   UNL     1      -2.515  -0.870  24.334  0.00  0.00    +0.163 C 
ATOM     15  C   UNL     1       0.013  -1.064  24.442  0.00  0.00    +0.078 C 
ATOM     16  C   UNL     1      -1.313  -1.818  24.328  0.00  0.00    +0.148 C 
ENDROOT
BRANCH  12   7
ATOM      5  O   UNL     1      -2.839   2.130  25.413  0.00  0.00    -0.253 OA
ATOM      7  N   UNL     1      -3.473   1.180  23.392  0.00  0.00    -0.294 N 
ATOM      9  N   UNL     1      -4.749   2.852  24.311  0.00  0.00    -0.299 N 
ATOM     18  C   UNL     1      -3.614   2.060  24.460  0.00  0.00    +0.300 C 
ATOM     25  H   UNL     1      -4.209   1.150  22.693  0.00  0.00    +0.151 HD
ATOM     30  H   UNL     1      -5.328   2.730  23.487  0.00  0.00    +0.150 HD
BRANCH   9  22
ATOM     22  C   UNL     1      -5.136   3.854  25.279  0.00  0.00    +0.105 C 
BRANCH  22  23
ATOM     23  C   UNL     1      -5.961   3.271  26.419  0.00  0.00    +0.015 C 
ATOM     24  C   UNL     1      -6.369   1.825  26.171  0.00  0.00    +0.005 C 
ENDBRANCH  22  23
ENDBRANCH   9  22
ENDBRANCH  12   7
BRANCH  11  17
ATOM      4  O   UNL     1       1.456   1.916  24.021  0.00  0.00    -0.273 OA
ATOM      8  N   UNL     1       2.535   0.043  23.157  0.00  0.00    -0.302 N 
ATOM     17  C   UNL     1       1.434   0.774  23.567  0.00  0.00    +0.245 C 
ATOM     29  H   UNL     1       2.410  -0.882  22.758  0.00  0.00    +0.150 HD
BRANCH   8  19
ATOM     19  C   UNL     1       3.887   0.549  23.214  0.00  0.00    +0.156 C 
ATOM     20  C   UNL     1       4.413   0.867  21.823  0.00  0.00    +0.038 C 
BRANCH  19  21
ATOM      6  O   UNL     1       5.850  -0.244  24.403  0.00  0.00    -0.274 OA
ATOM     10  N   UNL     1       4.169  -1.738  23.938  0.00  0.00    -0.328 N 
ATOM     21  C   UNL     1       4.757  -0.492  23.900  0.00  0.00    +0.231 C 
ATOM     31  H   UNL     1       3.256  -1.924  23.536  0.00  0.00    +0.145 HD
ATOM     32  H   UNL     1       4.639  -2.522  24.380  0.00  0.00    +0.145 HD
ENDBRANCH  19  21
ENDBRANCH   8  19
ENDBRANCH  11  17
BRANCH  11   1
ATOM      1  O   UNL     1       0.268  -0.592  22.098  0.00  0.00    -0.379 OA
ATOM     26  H   UNL     1      -0.598  -0.558  21.659  0.00  0.00    +0.211 HD
ENDBRANCH  11   1
BRANCH  14   2
ATOM      2  O   UNL     1      -3.681  -1.648  24.048  0.00  0.00    -0.387 OA
ATOM     27  H   UNL     1      -4.441  -1.223  24.480  0.00  0.00    +0.210 HD
ENDBRANCH  14   2
BRANCH  16   3
ATOM      3  O   UNL     1      -1.433  -2.709  25.437  0.00  0.00    -0.389 OA
ATOM     28  H   UNL     1      -0.547  -3.058  25.629  0.00  0.00    +0.210 HD
ENDBRANCH  16   3
TORSDOF 9
ENDMDL
MODEL 9
REMARK VINA RESULT:      -2.1      2.805      3.423
REMARK  Name = 11865650
REMARK  11 active torsions:
REMARK  status: ('A' for Active; 'I' for Inactive)
REMARK    1  A    between atoms: O_1  and  C_11
REMARK    2  A    between atoms: O_2  and  C_14
REMARK    3  A    between atoms: O_3  and  C_16
REMARK    4  A    between atoms: N_7  and  C_12
REMARK    5  A    between atoms: N_8  and  C_19
REMARK    6  A    between atoms: N_9  and  C_22
REMARK    7  A    between atoms: C_11  and  C_17
REMARK    8  A    between atoms: C_19  and  C_20
REMARK    9  A    between atoms: C_19  and  C_21
REMARK   10  A    between atoms: C_22  and  C_23
REMARK   11  A    between atoms: C_23  and  C_24
REMARK                            x       y       z     vdW  Elec       q    Type
REMARK                         _______ _______ _______ _____ _____    ______ ____
ROOT
ATOM     11  C   UNL     1      -3.468   1.368  24.174  0.00  0.00    +0.146 C 
ATOM     12  C   UNL     1      -2.146   3.275  25.210  0.00  0.00    +0.109 C 
ATOM     13  C   UNL     1      -2.207   1.767  24.942  0.00  0.00    +0.069 C 
ATOM     14  C   UNL     1      -3.419   3.784  25.898  0.00  0.00    +0.163 C 
ATOM     15  C   UNL     1      -4.729   1.863  24.880  0.00  0.00    +0.078 C 
ATOM     16  C   UNL     1      -4.685   3.369  25.144  0.00  0.00    +0.148 C 
ENDROOT
BRANCH  12   7
ATOM      5  O   UNL     1      -0.245   1.400  26.305  0.00  0.00    -0.253 OA
ATOM      7  N   UNL     1      -0.978   3.582  26.005  0.00  0.00    -0.294 N 
ATOM      9  N   UNL     1       0.926   3.180  27.224  0.00  0.00    -0.299 N 
ATOM     18  C   UNL     1      -0.112   2.609  26.493  0.00  0.00    +0.300 C 
ATOM     25  H   UNL     1      -0.820   4.547  26.280  0.00  0.00    +0.151 HD
ATOM     30  H   UNL     1       0.959   4.190  27.320  0.00  0.00    +0.150 HD
BRANCH   9  22
ATOM     22  C   UNL     1       1.969   2.397  27.845  0.00  0.00    +0.105 C 
BRANCH  22  23
ATOM     23  C   UNL     1       2.224   2.811  29.288  0.00  0.00    +0.015 C 
ATOM     24  C   UNL     1       1.077   2.442  30.219  0.00  0.00    +0.005 C 
ENDBRANCH  22  23
ENDBRANCH   9  22
ENDBRANCH  12   7
BRANCH  11  17
ATOM      4  O   UNL     1      -4.524  -0.679  23.535  0.00  0.00    -0.273 OA
ATOM      8  N   UNL     1      -2.369  -0.748  24.415  0.00  0.00    -0.302 N 
ATOM     17  C   UNL     1      -3.529  -0.121  23.993  0.00  0.00    +0.245 C 
ATOM     29  H   UNL     1      -1.614  -0.201  24.816  0.00  0.00    +0.150 HD
BRANCH   8  19
ATOM     19  C   UNL     1      -2.182  -2.180  24.368  0.00  0.00    +0.156 C 
ATOM     20  C   UNL     1      -3.342  -2.906  25.031  0.00  0.00    +0.038 C 
BRANCH  19  21
ATOM      6  O   UNL     1      -0.453  -3.656  25.224  0.00  0.00    -0.274 OA
ATOM     10  N   UNL     1      -0.166  -1.387  25.437  0.00  0.00    -0.328 N 
ATOM     21  C   UNL     1      -0.868  -2.511  25.057  0.00  0.00    +0.231 C 
ATOM     31  H   UNL     1      -0.511  -0.447  25.275  0.00  0.00    +0.145 HD
ATOM     32  H   UNL     1       0.735  -1.467  25.897  0.00  0.00    +0.145 HD
ENDBRANCH  19  21
ENDBRANCH   8  19
ENDBRANCH  11  17
BRANCH  11   1
ATOM      1  O   UNL     1      -3.436   1.898  22.854  0.00  0.00    -0.379 OA
ATOM     26  H   UNL     1      -3.948   1.310  22.273  0.00  0.00    +0.211 HD
ENDBRANCH  11   1
BRANCH  14   2
ATOM      2  O   UNL     1      -3.388   5.213  25.938  0.00  0.00    -0.387 OA
ATOM     27  H   UNL     1      -3.630   5.545  25.056  0.00  0.00    +0.210 HD
ENDBRANCH  14   2
BRANCH  16   3
ATOM      3  O   UNL     1      -5.819   3.732  25.933  0.00  0.00    -0.389 OA
ATOM     28  H   UNL     1      -5.521   3.812  26.854  0.00  0.00    +0.210 HD
ENDBRANCH  16   3
TORSDOF 9
ENDMDL
