MODEL 1
REMARK VINA RESULT:      -3.8      0.000      0.000
REMARK  Name = 38029325
REMARK  13 active torsions:
REMARK  status: ('A' for Active; 'I' for Inactive)
REMARK    1  A    between atoms: N_3  and  C_14
REMARK    2  A    between atoms: N_4  and  C_21
REMARK    3  A    between atoms: N_5  and  C_23
REMARK    4  A    between atoms: C_7  and  C_11
REMARK    5  A    between atoms: C_8  and  C_14
REMARK    6  A    between atoms: C_10  and  C_15
REMARK    7  A    between atoms: C_11  and  C_16
REMARK    8  A    between atoms: C_11  and  C_17
REMARK    9  A    between atoms: C_12  and  C_18
REMARK   10  A    between atoms: C_15  and  C_19
REMARK   11  A    between atoms: C_21  and  C_22
REMARK   12  A    between atoms: C_23  and  C_26
REMARK   13  A    between atoms: C_29  and  C_30
REMARK                            x       y       z     vdW  Elec       q    Type
REMARK                         _______ _______ _______ _____ _____    ______ ____
ROOT
ATOM      7  C   UNL     1      -1.645   0.416  24.810  0.00  0.00    +0.000 C 
ATOM      8  C   UNL     1      -0.518  -0.556  24.382  0.00  0.00    +0.032 C 
ATOM      9  C   UNL     1      -2.567  -0.253  25.842  0.00  0.00    +0.012 C 
ATOM     10  C   UNL     1      -3.214  -1.540  25.296  0.00  0.00    +0.023 C 
ATOM     12  C   UNL     1      -2.198  -2.435  24.615  0.00  0.00    -0.073 C 
ATOM     13  C   UNL     1      -0.994  -1.981  24.225  0.00  0.00    -0.022 C 
ATOM     18  C   UNL     1      -2.582  -3.877  24.431  0.00  0.00    +0.039 C 
ENDROOT
BRANCH   7  11
ATOM     11  C   UNL     1      -1.083   1.720  25.386  0.00  0.00    -0.013 C 
ATOM     16  C   UNL     1      -0.258   1.437  26.638  0.00  0.00    +0.007 C 
ATOM     17  C   UNL     1      -0.246   2.447  24.339  0.00  0.00    +0.007 C 
ENDBRANCH   7  11
BRANCH   8  14
ATOM     14  C   UNL     1       0.147  -0.093  23.080  0.00  0.00    +0.113 C 
BRANCH  14   3
ATOM      2  O   UNL     1       2.539   1.517  23.203  0.00  0.00    -0.253 OA
ATOM      3  N   UNL     1       1.498  -0.552  23.010  0.00  0.00    -0.299 N 
ATOM      5  N   UNL     1       3.807  -0.415  22.983  0.00  0.00    -0.300 N 
ATOM     20  C   UNL     1       2.612   0.294  23.076  0.00  0.00    +0.300 C 
ATOM     31  H   UNL     1       1.669  -1.553  22.974  0.00  0.00    +0.150 HD
ATOM     33  H   UNL     1       3.768  -1.422  22.866  0.00  0.00    +0.150 HD
BRANCH   5  23
ATOM     23  C   UNL     1       5.101   0.225  23.024  0.00  0.00    +0.102 C 
ATOM     26  C   UNL     1       5.705   0.167  24.412  0.00  0.00    +0.024 C 
ENDBRANCH   5  23
ENDBRANCH  14   3
ENDBRANCH   8  14
BRANCH  10  15
ATOM     15  C   UNL     1      -4.379  -1.217  24.354  0.00  0.00    +0.103 C 
BRANCH  15  19
ATOM      1  O   UNL     1      -3.982   0.953  23.359  0.00  0.00    -0.276 OA
ATOM      4  N   UNL     1      -5.515   0.753  25.094  0.00  0.00    -0.311 N 
ATOM     19  C   UNL     1      -4.579   0.273  24.189  0.00  0.00    +0.214 C 
ATOM     32  H   UNL     1      -5.960   0.109  25.742  0.00  0.00    +0.149 HD
BRANCH   4  21
ATOM     21  C   UNL     1      -5.904   2.142  25.165  0.00  0.00    +0.139 C 
BRANCH  21  22
ATOM     22  C   UNL     1      -4.719   3.061  25.113  0.00  0.00    -0.030 A 
ATOM     24  C   UNL     1      -4.054   3.410  26.290  0.00  0.00    +0.006 A 
ATOM     25  C   UNL     1      -4.281   3.567  23.890  0.00  0.00    +0.006 A 
ATOM     27  C   UNL     1      -2.952   4.263  26.242  0.00  0.00    +0.019 A 
ATOM     28  C   UNL     1      -3.179   4.421  23.842  0.00  0.00    +0.019 A 
ATOM     29  C   UNL     1      -2.515   4.769  25.018  0.00  0.00    +0.052 A 
BRANCH  29  30
ATOM      6  N   UNL     1      -0.468   6.354  24.930  0.00  0.00    -0.191 NA
ATOM     30  C   UNL     1      -1.385   5.643  24.969  0.00  0.00    +0.099 C 
ENDBRANCH  29  30
ENDBRANCH  21  22
ENDBRANCH   4  21
ENDBRANCH  15  19
ENDBRANCH  10  15
TORSDOF 9
ENDMDL
MODEL 2
REMARK VINA RESULT:      -2.5      1.735      5.142
REMARK  Name = 38029325
REMARK  13 active torsions:
REMARK  status: ('A' for Active; 'I' for Inactive)
REMARK    1  A    between atoms: N_3  and  C_14
REMARK    2  A    between atoms: N_4  and  C_21
REMARK    3  A    between atoms: N_5  and  C_23
REMARK    4  A    between atoms: C_7  and  C_11
REMARK    5  A    between atoms: C_8  and  C_14
REMARK    6  A    between atoms: C_10  and  C_15
REMARK    7  A    between atoms: C_11  and  C_16
REMARK    8  A    between atoms: C_11  and  C_17
REMARK    9  A    between atoms: C_12  and  C_18
REMARK   10  A    between atoms: C_15  and  C_19
REMARK   11  A    between atoms: C_21  and  C_22
REMARK   12  A    between atoms: C_23  and  C_26
REMARK   13  A    between atoms: C_29  and  C_30
REMARK                            x       y       z     vdW  Elec       q    Type
REMARK                         _______ _______ _______ _____ _____    ______ ____
ROOT
ATOM      7  C   UNL     1      -2.836   2.423  23.933  0.00  0.00    +0.000 C 
ATOM      8  C   UNL     1      -1.607   3.056  24.632  0.00  0.00    +0.032 C 
ATOM      9  C   UNL     1      -3.908   3.491  23.661  0.00  0.00    +0.012 C 
ATOM     10  C   UNL     1      -4.383   4.180  24.954  0.00  0.00    +0.023 C 
ATOM     12  C   UNL     1      -3.219   4.596  25.830  0.00  0.00    -0.073 C 
ATOM     13  C   UNL     1      -1.983   4.093  25.664  0.00  0.00    -0.022 C 
ATOM     18  C   UNL     1      -3.498   5.640  26.877  0.00  0.00    +0.039 C 
ENDROOT
BRANCH   7  11
ATOM     11  C   UNL     1      -2.451   1.730  22.622  0.00  0.00    -0.013 C 
ATOM     16  C   UNL     1      -3.119   0.362  22.527  0.00  0.00    +0.007 C 
ATOM     17  C   UNL     1      -2.830   2.601  21.429  0.00  0.00    +0.007 C 
ENDBRANCH   7  11
BRANCH   8  14
ATOM     14  C   UNL     1      -0.728   1.982  25.284  0.00  0.00    +0.113 C 
BRANCH  14   3
ATOM      2  O   UNL     1       0.418   0.168  23.354  0.00  0.00    -0.253 OA
ATOM      3  N   UNL     1       0.597   2.018  24.750  0.00  0.00    -0.299 N 
ATOM      5  N   UNL     1       2.404   1.365  23.462  0.00  0.00    -0.300 N 
ATOM     20  C   UNL     1       1.082   1.098  23.812  0.00  0.00    +0.300 C 
ATOM     31  H   UNL     1       1.204   2.789  25.011  0.00  0.00    +0.150 HD
ATOM     33  H   UNL     1       2.876   2.147  23.903  0.00  0.00    +0.150 HD
BRANCH   5  23
ATOM     23  C   UNL     1       3.139   0.563  22.513  0.00  0.00    +0.102 C 
ATOM     26  C   UNL     1       4.607   0.481  22.874  0.00  0.00    +0.024 C 
ENDBRANCH   5  23
ENDBRANCH  14   3
ENDBRANCH   8  14
BRANCH  10  15
ATOM     15  C   UNL     1      -5.361   3.290  25.729  0.00  0.00    +0.103 C 
BRANCH  15  19
ATOM      1  O   UNL     1      -6.298   1.805  24.063  0.00  0.00    -0.276 OA
ATOM      4  N   UNL     1      -4.864   0.952  25.680  0.00  0.00    -0.311 N 
ATOM     19  C   UNL     1      -5.578   1.958  25.047  0.00  0.00    +0.214 C 
ATOM     32  H   UNL     1      -4.291   1.178  26.489  0.00  0.00    +0.149 HD
BRANCH   4  21
ATOM     21  C   UNL     1      -4.884  -0.425  25.245  0.00  0.00    +0.139 C 
BRANCH  21  22
ATOM     22  C   UNL     1      -3.518  -1.046  25.277  0.00  0.00    -0.030 A 
ATOM     24  C   UNL     1      -3.242  -2.167  24.494  0.00  0.00    +0.006 A 
ATOM     25  C   UNL     1      -2.524  -0.502  26.090  0.00  0.00    +0.006 A 
ATOM     27  C   UNL     1      -1.972  -2.743  24.524  0.00  0.00    +0.019 A 
ATOM     28  C   UNL     1      -1.254  -1.078  26.120  0.00  0.00    +0.019 A 
ATOM     29  C   UNL     1      -0.979  -2.199  25.337  0.00  0.00    +0.052 A 
BRANCH  29  30
ATOM      6  N   UNL     1       1.380  -3.269  25.390  0.00  0.00    -0.191 NA
ATOM     30  C   UNL     1       0.323  -2.789  25.367  0.00  0.00    +0.099 C 
ENDBRANCH  29  30
ENDBRANCH  21  22
ENDBRANCH   4  21
ENDBRANCH  15  19
ENDBRANCH  10  15
TORSDOF 9
ENDMDL
MODEL 3
REMARK VINA RESULT:      -2.4      1.980      7.006
REMARK  Name = 38029325
REMARK  13 active torsions:
REMARK  status: ('A' for Active; 'I' for Inactive)
REMARK    1  A    between atoms: N_3  and  C_14
REMARK    2  A    between atoms: N_4  and  C_21
REMARK    3  A    between atoms: N_5  and  C_23
REMARK    4  A    between atoms: C_7  and  C_11
REMARK    5  A    between atoms: C_8  and  C_14
REMARK    6  A    between atoms: C_10  and  C_15
REMARK    7  A    between atoms: C_11  and  C_16
REMARK    8  A    between atoms: C_11  and  C_17
REMARK    9  A    between atoms: C_12  and  C_18
REMARK   10  A    between atoms: C_15  and  C_19
REMARK   11  A    between atoms: C_21  and  C_22
REMARK   12  A    between atoms: C_23  and  C_26
REMARK   13  A    between atoms: C_29  and  C_30
REMARK                            x       y       z     vdW  Elec       q    Type
REMARK                         _______ _______ _______ _____ _____    ______ ____
ROOT
ATOM      7  C   UNL     1      -3.689   2.993  25.532  0.00  0.00    +0.000 C 
ATOM      8  C   UNL     1      -3.666   3.209  23.998  0.00  0.00    +0.032 C 
ATOM      9  C   UNL     1      -2.800   4.031  26.234  0.00  0.00    +0.012 C 
ATOM     10  C   UNL     1      -1.338   3.964  25.753  0.00  0.00    +0.023 C 
ATOM     12  C   UNL     1      -1.244   3.903  24.242  0.00  0.00    -0.073 C 
ATOM     13  C   UNL     1      -2.298   3.576  23.474  0.00  0.00    -0.022 C 
ATOM     18  C   UNL     1       0.080   4.269  23.631  0.00  0.00    +0.039 C 
ENDROOT
BRANCH   7  11
ATOM     11  C   UNL     1      -5.112   3.065  26.095  0.00  0.00    -0.013 C 
ATOM     16  C   UNL     1      -5.867   4.242  25.485  0.00  0.00    +0.007 C 
ATOM     17  C   UNL     1      -5.853   1.757  25.839  0.00  0.00    +0.007 C 
ENDBRANCH   7  11
BRANCH   8  14
ATOM     14  C   UNL     1      -4.182   1.970  23.257  0.00  0.00    +0.113 C 
BRANCH  14   3
ATOM      2  O   UNL     1      -4.752  -0.691  24.216  0.00  0.00    -0.253 OA
ATOM      3  N   UNL     1      -3.261   0.884  23.382  0.00  0.00    -0.299 N 
ATOM      5  N   UNL     1      -2.526  -1.252  23.877  0.00  0.00    -0.300 N 
ATOM     20  C   UNL     1      -3.615  -0.384  23.858  0.00  0.00    +0.300 C 
ATOM     31  H   UNL     1      -2.311   1.014  23.049  0.00  0.00    +0.150 HD
ATOM     33  H   UNL     1      -1.621  -0.905  23.576  0.00  0.00    +0.150 HD
BRANCH   5  23
ATOM     23  C   UNL     1      -2.624  -2.621  24.326  0.00  0.00    +0.102 C 
ATOM     26  C   UNL     1      -3.217  -2.709  25.716  0.00  0.00    +0.024 C 
ENDBRANCH   5  23
ENDBRANCH  14   3
ENDBRANCH   8  14
BRANCH  10  15
ATOM     15  C   UNL     1      -0.597   2.786  26.397  0.00  0.00    +0.103 C 
BRANCH  15  19
ATOM      1  O   UNL     1      -1.346   0.623  25.609  0.00  0.00    -0.276 OA
ATOM      4  N   UNL     1       0.431   1.677  24.544  0.00  0.00    -0.311 N 
ATOM     19  C   UNL     1      -0.573   1.571  25.496  0.00  0.00    +0.214 C 
ATOM     32  H   UNL     1       1.020   2.505  24.529  0.00  0.00    +0.149 HD
BRANCH   4  21
ATOM     21  C   UNL     1       0.687   0.660  23.551  0.00  0.00    +0.139 C 
BRANCH  21  22
ATOM     22  C   UNL     1       2.155   0.392  23.388  0.00  0.00    -0.030 A 
ATOM     24  C   UNL     1       3.004   1.404  22.937  0.00  0.00    +0.006 A 
ATOM     25  C   UNL     1       2.671  -0.869  23.686  0.00  0.00    +0.006 A 
ATOM     27  C   UNL     1       4.368   1.154  22.786  0.00  0.00    +0.019 A 
ATOM     28  C   UNL     1       4.035  -1.118  23.535  0.00  0.00    +0.019 A 
ATOM     29  C   UNL     1       4.883  -0.107  23.085  0.00  0.00    +0.052 A 
BRANCH  29  30
ATOM      6  N   UNL     1       7.416  -0.569  22.804  0.00  0.00    -0.191 NA
ATOM     30  C   UNL     1       6.280  -0.362  22.930  0.00  0.00    +0.099 C 
ENDBRANCH  29  30
ENDBRANCH  21  22
ENDBRANCH   4  21
ENDBRANCH  15  19
ENDBRANCH  10  15
TORSDOF 9
ENDMDL
MODEL 4
REMARK VINA RESULT:      -2.3      1.706      3.498
REMARK  Name = 38029325
REMARK  13 active torsions:
REMARK  status: ('A' for Active; 'I' for Inactive)
REMARK    1  A    between atoms: N_3  and  C_14
REMARK    2  A    between atoms: N_4  and  C_21
REMARK    3  A    between atoms: N_5  and  C_23
REMARK    4  A    between atoms: C_7  and  C_11
REMARK    5  A    between atoms: C_8  and  C_14
REMARK    6  A    between atoms: C_10  and  C_15
REMARK    7  A    between atoms: C_11  and  C_16
REMARK    8  A    between atoms: C_11  and  C_17
REMARK    9  A    between atoms: C_12  and  C_18
REMARK   10  A    between atoms: C_15  and  C_19
REMARK   11  A    between atoms: C_21  and  C_22
REMARK   12  A    between atoms: C_23  and  C_26
REMARK   13  A    between atoms: C_29  and  C_30
REMARK                            x       y       z     vdW  Elec       q    Type
REMARK                         _______ _______ _______ _____ _____    ______ ____
ROOT
ATOM      7  C   UNL     1      -3.274  -0.724  24.943  0.00  0.00    +0.000 C 
ATOM      8  C   UNL     1      -2.188  -0.032  24.082  0.00  0.00    +0.032 C 
ATOM      9  C   UNL     1      -4.668  -0.490  24.337  0.00  0.00    +0.012 C 
ATOM     10  C   UNL     1      -5.011   1.008  24.230  0.00  0.00    +0.023 C 
ATOM     12  C   UNL     1      -3.870   1.805  23.631  0.00  0.00    -0.073 C 
ATOM     13  C   UNL     1      -2.618   1.319  23.562  0.00  0.00    -0.022 C 
ATOM     18  C   UNL     1      -4.210   3.159  23.072  0.00  0.00    +0.039 C 
ENDROOT
BRANCH   7  11
ATOM     11  C   UNL     1      -3.017  -2.228  25.083  0.00  0.00    -0.013 C 
ATOM     16  C   UNL     1      -4.003  -3.019  24.229  0.00  0.00    +0.007 C 
ATOM     17  C   UNL     1      -1.580  -2.560  24.696  0.00  0.00    +0.007 C 
ENDBRANCH   7  11
BRANCH   8  14
ATOM     14  C   UNL     1      -0.876   0.114  24.861  0.00  0.00    +0.113 C 
BRANCH  14   3
ATOM      2  O   UNL     1       1.343   1.740  23.990  0.00  0.00    -0.253 OA
ATOM      3  N   UNL     1       0.236  -0.302  24.065  0.00  0.00    -0.299 N 
ATOM      5  N   UNL     1       2.231  -0.113  22.910  0.00  0.00    -0.300 N 
ATOM     20  C   UNL     1       1.279   0.550  23.681  0.00  0.00    +0.300 C 
ATOM     31  H   UNL     1       0.313  -1.284  23.815  0.00  0.00    +0.150 HD
ATOM     33  H   UNL     1       2.085  -1.094  22.693  0.00  0.00    +0.150 HD
BRANCH   5  23
ATOM     23  C   UNL     1       3.407   0.541  22.386  0.00  0.00    +0.102 C 
ATOM     26  C   UNL     1       4.625   0.262  23.241  0.00  0.00    +0.024 C 
ENDBRANCH   5  23
ENDBRANCH  14   3
ENDBRANCH   8  14
BRANCH  10  15
ATOM     15  C   UNL     1      -5.424   1.580  25.590  0.00  0.00    +0.103 C 
BRANCH  15  19
ATOM      1  O   UNL     1      -5.424   3.999  25.522  0.00  0.00    -0.276 OA
ATOM      4  N   UNL     1      -3.597   2.880  26.420  0.00  0.00    -0.311 N 
ATOM     19  C   UNL     1      -4.848   2.958  25.825  0.00  0.00    +0.214 C 
ATOM     32  H   UNL     1      -3.202   1.969  26.637  0.00  0.00    +0.149 HD
BRANCH   4  21
ATOM     21  C   UNL     1      -2.810   4.042  26.759  0.00  0.00    +0.139 C 
BRANCH  21  22
ATOM     22  C   UNL     1      -1.892   4.445  25.642  0.00  0.00    -0.030 A 
ATOM     24  C   UNL     1      -0.906   3.564  25.196  0.00  0.00    +0.006 A 
ATOM     25  C   UNL     1      -2.024   5.700  25.048  0.00  0.00    +0.006 A 
ATOM     27  C   UNL     1      -0.053   3.938  24.158  0.00  0.00    +0.019 A 
ATOM     28  C   UNL     1      -1.171   6.074  24.009  0.00  0.00    +0.019 A 
ATOM     29  C   UNL     1      -0.187   5.193  23.565  0.00  0.00    +0.052 A 
BRANCH  29  30
ATOM      6  N   UNL     1       1.397   5.887  21.635  0.00  0.00    -0.191 NA
ATOM     30  C   UNL     1       0.687   5.576  22.500  0.00  0.00    +0.099 C 
ENDBRANCH  29  30
ENDBRANCH  21  22
ENDBRANCH   4  21
ENDBRANCH  15  19
ENDBRANCH  10  15
TORSDOF 9
ENDMDL
MODEL 5
REMARK VINA RESULT:      -1.9      1.870      5.265
REMARK  Name = 38029325
REMARK  13 active torsions:
REMARK  status: ('A' for Active; 'I' for Inactive)
REMARK    1  A    between atoms: N_3  and  C_14
REMARK    2  A    between atoms: N_4  and  C_21
REMARK    3  A    between atoms: N_5  and  C_23
REMARK    4  A    between atoms: C_7  and  C_11
REMARK    5  A    between atoms: C_8  and  C_14
REMARK    6  A    between atoms: C_10  and  C_15
REMARK    7  A    between atoms: C_11  and  C_16
REMARK    8  A    between atoms: C_11  and  C_17
REMARK    9  A    between atoms: C_12  and  C_18
REMARK   10  A    between atoms: C_15  and  C_19
REMARK   11  A    between atoms: C_21  and  C_22
REMARK   12  A    between atoms: C_23  and  C_26
REMARK   13  A    between atoms: C_29  and  C_30
REMARK                            x       y       z     vdW  Elec       q    Type
REMARK                         _______ _______ _______ _____ _____    ______ ____
ROOT
ATOM      7  C   UNL     1      -2.344   2.451  23.854  0.00  0.00    +0.000 C 
ATOM      8  C   UNL     1      -0.850   2.858  23.826  0.00  0.00    +0.032 C 
ATOM      9  C   UNL     1      -3.237   3.665  23.554  0.00  0.00    +0.012 C 
ATOM     10  C   UNL     1      -3.023   4.808  24.565  0.00  0.00    +0.023 C 
ATOM     12  C   UNL     1      -1.552   5.089  24.793  0.00  0.00    -0.073 C 
ATOM     13  C   UNL     1      -0.595   4.212  24.445  0.00  0.00    -0.022 C 
ATOM     18  C   UNL     1      -1.204   6.424  25.393  0.00  0.00    +0.039 C 
ENDROOT
BRANCH   7  11
ATOM     11  C   UNL     1      -2.646   1.327  22.858  0.00  0.00    -0.013 C 
ATOM     16  C   UNL     1      -2.766   1.888  21.444  0.00  0.00    +0.007 C 
ATOM     17  C   UNL     1      -1.566   0.253  22.924  0.00  0.00    +0.007 C 
ENDBRANCH   7  11
BRANCH   8  14
ATOM     14  C   UNL     1       0.023   1.806  24.519  0.00  0.00    +0.113 C 
BRANCH  14   3
ATOM      2  O   UNL     1       1.560  -0.190  23.113  0.00  0.00    -0.253 OA
ATOM      3  N   UNL     1       1.382   1.911  24.089  0.00  0.00    -0.299 N 
ATOM      5  N   UNL     1       3.373   1.260  23.108  0.00  0.00    -0.300 N 
ATOM     20  C   UNL     1       2.063   0.894  23.408  0.00  0.00    +0.300 C 
ATOM     31  H   UNL     1       1.867   2.794  24.223  0.00  0.00    +0.150 HD
ATOM     33  H   UNL     1       3.704   2.171  23.405  0.00  0.00    +0.150 HD
BRANCH   5  23
ATOM     23  C   UNL     1       4.288   0.388  22.409  0.00  0.00    +0.102 C 
ATOM     26  C   UNL     1       5.444  -0.028  23.294  0.00  0.00    +0.024 C 
ENDBRANCH   5  23
ENDBRANCH  14   3
ENDBRANCH   8  14
BRANCH  10  15
ATOM     15  C   UNL     1      -3.738   4.516  25.889  0.00  0.00    +0.103 C 
BRANCH  15  19
ATOM      1  O   UNL     1      -6.019   3.850  25.430  0.00  0.00    -0.276 OA
ATOM      4  N   UNL     1      -4.432   2.229  25.931  0.00  0.00    -0.311 N 
ATOM     19  C   UNL     1      -4.869   3.528  25.718  0.00  0.00    +0.214 C 
ATOM     32  H   UNL     1      -3.457   2.061  26.164  0.00  0.00    +0.149 HD
BRANCH   4  21
ATOM     21  C   UNL     1      -5.300   1.078  25.836  0.00  0.00    +0.139 C 
BRANCH  21  22
ATOM     22  C   UNL     1      -4.584  -0.122  25.288  0.00  0.00    -0.030 A 
ATOM     24  C   UNL     1      -5.021  -0.714  24.103  0.00  0.00    +0.006 A 
ATOM     25  C   UNL     1      -3.482  -0.646  25.963  0.00  0.00    +0.006 A 
ATOM     27  C   UNL     1      -4.355  -1.829  23.593  0.00  0.00    +0.019 A 
ATOM     28  C   UNL     1      -2.817  -1.761  25.454  0.00  0.00    +0.019 A 
ATOM     29  C   UNL     1      -3.253  -2.352  24.269  0.00  0.00    +0.052 A 
BRANCH  29  30
ATOM      6  N   UNL     1      -2.017  -4.422  23.322  0.00  0.00    -0.191 NA
ATOM     30  C   UNL     1      -2.572  -3.494  23.746  0.00  0.00    +0.099 C 
ENDBRANCH  29  30
ENDBRANCH  21  22
ENDBRANCH   4  21
ENDBRANCH  15  19
ENDBRANCH  10  15
TORSDOF 9
ENDMDL
MODEL 6
REMARK VINA RESULT:      -1.3      2.110      5.570
REMARK  Name = 38029325
REMARK  13 active torsions:
REMARK  status: ('A' for Active; 'I' for Inactive)
REMARK    1  A    between atoms: N_3  and  C_14
REMARK    2  A    between atoms: N_4  and  C_21
REMARK    3  A    between atoms: N_5  and  C_23
REMARK    4  A    between atoms: C_7  and  C_11
REMARK    5  A    between atoms: C_8  and  C_14
REMARK    6  A    between atoms: C_10  and  C_15
REMARK    7  A    between atoms: C_11  and  C_16
REMARK    8  A    between atoms: C_11  and  C_17
REMARK    9  A    between atoms: C_12  and  C_18
REMARK   10  A    between atoms: C_15  and  C_19
REMARK   11  A    between atoms: C_21  and  C_22
REMARK   12  A    between atoms: C_23  and  C_26
REMARK   13  A    between atoms: C_29  and  C_30
REMARK                            x       y       z     vdW  Elec       q    Type
REMARK                         _______ _______ _______ _____ _____    ______ ____
ROOT
ATOM      7  C   UNL     1      -3.584   2.417  23.919  0.00  0.00    +0.000 C 
ATOM      8  C   UNL     1      -4.194   3.665  24.606  0.00  0.00    +0.032 C 
ATOM      9  C   UNL     1      -4.670   1.360  23.666  0.00  0.00    +0.012 C 
ATOM     10  C   UNL     1      -5.361   0.912  24.967  0.00  0.00    +0.023 C 
ATOM     12  C   UNL     1      -5.755   2.094  25.830  0.00  0.00    -0.073 C 
ATOM     13  C   UNL     1      -5.233   3.319  25.646  0.00  0.00    -0.022 C 
ATOM     18  C   UNL     1      -6.799   1.844  26.884  0.00  0.00    +0.039 C 
ENDROOT
BRANCH   7  11
ATOM     11  C   UNL     1      -2.891   2.775  22.601  0.00  0.00    -0.013 C 
ATOM     16  C   UNL     1      -2.339   1.520  21.932  0.00  0.00    +0.007 C 
ATOM     17  C   UNL     1      -3.858   3.502  21.672  0.00  0.00    +0.007 C 
ENDBRANCH   7  11
BRANCH   8  14
ATOM     14  C   UNL     1      -3.104   4.535  25.242  0.00  0.00    +0.113 C 
BRANCH  14   3
ATOM      2  O   UNL     1      -0.268   4.011  25.149  0.00  0.00    -0.253 OA
ATOM      3  N   UNL     1      -2.336   3.779  26.181  0.00  0.00    -0.299 N 
ATOM      5  N   UNL     1      -0.463   2.798  27.118  0.00  0.00    -0.300 N 
ATOM     20  C   UNL     1      -0.957   3.568  26.068  0.00  0.00    +0.300 C 
ATOM     31  H   UNL     1      -2.799   3.428  27.014  0.00  0.00    +0.150 HD
ATOM     33  H   UNL     1      -1.111   2.464  27.824  0.00  0.00    +0.150 HD
BRANCH   5  23
ATOM     23  C   UNL     1       0.930   2.437  27.235  0.00  0.00    +0.102 C 
ATOM     26  C   UNL     1       1.424   2.583  28.659  0.00  0.00    +0.024 C 
ENDBRANCH   5  23
ENDBRANCH  14   3
ENDBRANCH   8  14
BRANCH  10  15
ATOM     15  C   UNL     1      -4.483  -0.070  25.750  0.00  0.00    +0.103 C 
BRANCH  15  19
ATOM      1  O   UNL     1      -4.343  -1.913  24.188  0.00  0.00    -0.276 OA
ATOM      4  N   UNL     1      -2.401  -0.821  24.846  0.00  0.00    -0.311 N 
ATOM     19  C   UNL     1      -3.770  -1.044  24.839  0.00  0.00    +0.214 C 
ATOM     32  H   UNL     1      -2.019  -0.072  25.418  0.00  0.00    +0.149 HD
BRANCH   4  21
ATOM     21  C   UNL     1      -1.469  -1.604  24.069  0.00  0.00    +0.139 C 
BRANCH  21  22
ATOM     22  C   UNL     1      -0.222  -0.835  23.744  0.00  0.00    -0.030 A 
ATOM     24  C   UNL     1       0.710  -1.362  22.849  0.00  0.00    +0.006 A 
ATOM     25  C   UNL     1       0.006   0.408  24.335  0.00  0.00    +0.006 A 
ATOM     27  C   UNL     1       1.868  -0.647  22.546  0.00  0.00    +0.019 A 
ATOM     28  C   UNL     1       1.165   1.123  24.031  0.00  0.00    +0.019 A 
ATOM     29  C   UNL     1       2.095   0.595  23.137  0.00  0.00    +0.052 A 
BRANCH  29  30
ATOM      6  N   UNL     1       4.247   1.923  22.573  0.00  0.00    -0.191 NA
ATOM     30  C   UNL     1       3.283   1.327  22.826  0.00  0.00    +0.099 C 
ENDBRANCH  29  30
ENDBRANCH  21  22
ENDBRANCH   4  21
ENDBRANCH  15  19
ENDBRANCH  10  15
TORSDOF 9
ENDMDL
MODEL 7
REMARK VINA RESULT:      -1.0      2.789      5.651
REMARK  Name = 38029325
REMARK  13 active torsions:
REMARK  status: ('A' for Active; 'I' for Inactive)
REMARK    1  A    between atoms: N_3  and  C_14
REMARK    2  A    between atoms: N_4  and  C_21
REMARK    3  A    between atoms: N_5  and  C_23
REMARK    4  A    between atoms: C_7  and  C_11
REMARK    5  A    between atoms: C_8  and  C_14
REMARK    6  A    between atoms: C_10  and  C_15
REMARK    7  A    between atoms: C_11  and  C_16
REMARK    8  A    between atoms: C_11  and  C_17
REMARK    9  A    between atoms: C_12  and  C_18
REMARK   10  A    between atoms: C_15  and  C_19
REMARK   11  A    between atoms: C_21  and  C_22
REMARK   12  A    between atoms: C_23  and  C_26
REMARK   13  A    between atoms: C_29  and  C_30
REMARK                            x       y       z     vdW  Elec       q    Type
REMARK                         _______ _______ _______ _____ _____    ______ ____
ROOT
ATOM      7  C   UNL     1      -2.355   2.330  23.855  0.00  0.00    +0.000 C 
ATOM      8  C   UNL     1      -1.053   2.762  24.575  0.00  0.00    +0.032 C 
ATOM      9  C   UNL     1      -2.894   3.478  22.987  0.00  0.00    +0.012 C 
ATOM     10  C   UNL     1      -3.190   4.743  23.815  0.00  0.00    +0.023 C 
ATOM     12  C   UNL     1      -2.050   5.081  24.753  0.00  0.00    -0.073 C 
ATOM     13  C   UNL     1      -1.097   4.188  25.071  0.00  0.00    -0.022 C 
ATOM     18  C   UNL     1      -2.005   6.488  25.284  0.00  0.00    +0.039 C 
ENDROOT
BRANCH   7  11
ATOM     11  C   UNL     1      -2.140   1.083  22.991  0.00  0.00    -0.013 C 
ATOM     16  C   UNL     1      -2.448   1.391  21.528  0.00  0.00    +0.007 C 
ATOM     17  C   UNL     1      -0.714   0.567  23.146  0.00  0.00    +0.007 C 
ENDBRANCH   7  11
BRANCH   8  14
ATOM     14  C   UNL     1      -0.730   1.824  25.744  0.00  0.00    +0.113 C 
BRANCH  14   3
ATOM      2  O   UNL     1      -0.147   2.411  28.508  0.00  0.00    -0.253 OA
ATOM      3  N   UNL     1       0.546   2.136  26.307  0.00  0.00    -0.299 N 
ATOM      5  N   UNL     1       2.088   2.682  27.942  0.00  0.00    -0.300 N 
ATOM     20  C   UNL     1       0.750   2.411  27.665  0.00  0.00    +0.300 C 
ATOM     31  H   UNL     1       1.364   2.094  25.707  0.00  0.00    +0.150 HD
ATOM     33  H   UNL     1       2.755   2.672  27.178  0.00  0.00    +0.150 HD
BRANCH   5  23
ATOM     23  C   UNL     1       2.564   2.997  29.269  0.00  0.00    +0.102 C 
ATOM     26  C   UNL     1       2.050   2.008  30.293  0.00  0.00    +0.024 C 
ENDBRANCH   5  23
ENDBRANCH  14   3
ENDBRANCH   8  14
BRANCH  10  15
ATOM     15  C   UNL     1      -4.510   4.605  24.583  0.00  0.00    +0.103 C 
BRANCH  15  19
ATOM      1  O   UNL     1      -3.753   3.322  26.490  0.00  0.00    -0.276 OA
ATOM      4  N   UNL     1      -5.436   2.470  25.132  0.00  0.00    -0.311 N 
ATOM     19  C   UNL     1      -4.500   3.418  25.519  0.00  0.00    +0.214 C 
ATOM     32  H   UNL     1      -6.012   2.642  24.313  0.00  0.00    +0.149 HD
BRANCH   4  21
ATOM     21  C   UNL     1      -5.645   1.231  25.843  0.00  0.00    +0.139 C 
BRANCH  21  22
ATOM     22  C   UNL     1      -4.717   0.149  25.373  0.00  0.00    -0.030 A 
ATOM     24  C   UNL     1      -3.628  -0.227  26.159  0.00  0.00    +0.006 A 
ATOM     25  C   UNL     1      -4.944  -0.482  24.150  0.00  0.00    +0.006 A 
ATOM     27  C   UNL     1      -2.766  -1.233  25.722  0.00  0.00    +0.019 A 
ATOM     28  C   UNL     1      -4.083  -1.489  23.714  0.00  0.00    +0.019 A 
ATOM     29  C   UNL     1      -2.995  -1.864  24.499  0.00  0.00    +0.052 A 
BRANCH  29  30
ATOM      6  N   UNL     1      -1.394  -3.733  23.690  0.00  0.00    -0.191 NA
ATOM     30  C   UNL     1      -2.112  -2.895  24.053  0.00  0.00    +0.099 C 
ENDBRANCH  29  30
ENDBRANCH  21  22
ENDBRANCH   4  21
ENDBRANCH  15  19
ENDBRANCH  10  15
TORSDOF 9
ENDMDL
MODEL 8
REMARK VINA RESULT:       0.2      1.642      4.876
REMARK  Name = 38029325
REMARK  13 active torsions:
REMARK  status: ('A' for Active; 'I' for Inactive)
REMARK    1  A    between atoms: N_3  and  C_14
REMARK    2  A    between atoms: N_4  and  C_21
REMARK    3  A    between atoms: N_5  and  C_23
REMARK    4  A    between atoms: C_7  and  C_11
REMARK    5  A    between atoms: C_8  and  C_14
REMARK    6  A    between atoms: C_10  and  C_15
REMARK    7  A    between atoms: C_11  and  C_16
REMARK    8  A    between atoms: C_11  and  C_17
REMARK    9  A    between atoms: C_12  and  C_18
REMARK   10  A    between atoms: C_15  and  C_19
REMARK   11  A    between atoms: C_21  and  C_22
REMARK   12  A    between atoms: C_23  and  C_26
REMARK   13  A    between atoms: C_29  and  C_30
REMARK                            x       y       z     vdW  Elec       q    Type
REMARK                         _______ _______ _______ _____ _____    ______ ____
ROOT
ATOM      7  C   UNL     1      -1.466   3.862  24.545  0.00  0.00    +0.000 C 
ATOM      8  C   UNL     1      -1.521   3.264  25.973  0.00  0.00    +0.032 C 
ATOM      9  C   UNL     1      -2.618   4.857  24.334  0.00  0.00    +0.012 C 
ATOM     10  C   UNL     1      -3.997   4.200  24.535  0.00  0.00    +0.023 C 
ATOM     12  C   UNL     1      -4.045   3.366  25.799  0.00  0.00    -0.073 C 
ATOM     13  C   UNL     1      -2.929   2.968  26.435  0.00  0.00    -0.022 C 
ATOM     18  C   UNL     1      -5.408   3.037  26.342  0.00  0.00    +0.039 C 
ENDROOT
BRANCH   7  11
ATOM     11  C   UNL     1      -0.127   4.554  24.270  0.00  0.00    -0.013 C 
ATOM     16  C   UNL     1       0.173   4.558  22.774  0.00  0.00    +0.007 C 
ATOM     17  C   UNL     1      -0.140   5.976  24.822  0.00  0.00    +0.007 C 
ENDBRANCH   7  11
BRANCH   8  14
ATOM     14  C   UNL     1      -0.672   1.991  26.072  0.00  0.00    +0.113 C 
BRANCH  14   3
ATOM      2  O   UNL     1       0.173   0.249  23.933  0.00  0.00    -0.253 OA
ATOM      3  N   UNL     1       0.513   2.109  25.283  0.00  0.00    -0.299 N 
ATOM      5  N   UNL     1       2.061   1.569  23.652  0.00  0.00    -0.300 N 
ATOM     20  C   UNL     1       0.856   1.220  24.257  0.00  0.00    +0.300 C 
ATOM     31  H   UNL     1       1.112   2.918  25.425  0.00  0.00    +0.150 HD
ATOM     33  H   UNL     1       2.563   2.380  23.998  0.00  0.00    +0.150 HD
BRANCH   5  23
ATOM     23  C   UNL     1       2.639   0.812  22.566  0.00  0.00    +0.102 C 
ATOM     26  C   UNL     1       4.117   0.569  22.783  0.00  0.00    +0.024 C 
ENDBRANCH   5  23
ENDBRANCH  14   3
ENDBRANCH   8  14
BRANCH  10  15
ATOM     15  C   UNL     1      -4.396   3.366  23.313  0.00  0.00    +0.103 C 
BRANCH  15  19
ATOM      1  O   UNL     1      -3.240   1.241  23.259  0.00  0.00    -0.276 OA
ATOM      4  N   UNL     1      -5.374   1.360  24.171  0.00  0.00    -0.311 N 
ATOM     19  C   UNL     1      -4.242   1.883  23.563  0.00  0.00    +0.214 C 
ATOM     32  H   UNL     1      -6.154   1.974  24.387  0.00  0.00    +0.149 HD
BRANCH   4  21
ATOM     21  C   UNL     1      -5.507  -0.034  24.526  0.00  0.00    +0.139 C 
BRANCH  21  22
ATOM     22  C   UNL     1      -4.175  -0.684  24.759  0.00  0.00    -0.030 A 
ATOM     24  C   UNL     1      -3.718  -1.673  23.887  0.00  0.00    +0.006 A 
ATOM     25  C   UNL     1      -3.392  -0.301  25.848  0.00  0.00    +0.006 A 
ATOM     27  C   UNL     1      -2.480  -2.277  24.103  0.00  0.00    +0.019 A 
ATOM     28  C   UNL     1      -2.153  -0.905  26.064  0.00  0.00    +0.019 A 
ATOM     29  C   UNL     1      -1.698  -1.893  25.192  0.00  0.00    +0.052 A 
BRANCH  29  30
ATOM      6  N   UNL     1       0.602  -3.016  25.592  0.00  0.00    -0.191 NA
ATOM     30  C   UNL     1      -0.429  -2.512  25.413  0.00  0.00    +0.099 C 
ENDBRANCH  29  30
ENDBRANCH  21  22
ENDBRANCH   4  21
ENDBRANCH  15  19
ENDBRANCH  10  15
TORSDOF 9
ENDMDL
