MODEL 1
REMARK VINA RESULT:      -1.9      0.000      0.000
REMARK  Name = 26743082
REMARK  7 active torsions:
REMARK  status: ('A' for Active; 'I' for Inactive)
REMARK    1  A    between atoms: S_1  and  C_20
REMARK    2  A    between atoms: S_1  and  C_24
REMARK    3  A    between atoms: C_9  and  C_15
REMARK    4  A    between atoms: C_10  and  C_14
REMARK    5  A    between atoms: C_14  and  C_16
REMARK    6  A    between atoms: C_15  and  C_17
REMARK    7  A    between atoms: C_19  and  C_20
REMARK                            x       y       z     vdW  Elec       q    Type
REMARK                         _______ _______ _______ _____ _____    ______ ____
ROOT
ATOM      5  N   UNL     1      -2.226  -3.260  25.362  0.00  0.00    -0.316 NA
ATOM      9  C   UNL     1      -1.288  -0.606  24.478  0.00  0.00    +0.004 C 
ATOM     10  C   UNL     1      -2.772  -1.037  24.402  0.00  0.00    +0.012 C 
ATOM     11  C   UNL     1      -0.582  -1.428  25.570  0.00  0.00    +0.019 C 
ATOM     12  C   UNL     1      -2.914  -2.563  24.276  0.00  0.00    +0.085 C 
ATOM     13  C   UNL     1      -0.802  -2.930  25.403  0.00  0.00    +0.081 C 
ATOM     30  H   UNL     1      -2.336  -4.266  25.240  0.00  0.00    +0.122 HD
ENDROOT
BRANCH  10  14
ATOM     14  C   UNL     1      -3.544  -0.332  23.286  0.00  0.00    +0.064 C 
BRANCH  14  16
ATOM      3  O   UNL     1      -3.900   3.246  23.471  0.00  0.00    -0.359 OA
ATOM      6  N   UNL     1      -3.455   2.085  22.851  0.00  0.00    -0.083 NA
ATOM     16  C   UNL     1      -3.854   1.092  23.650  0.00  0.00    +0.084 A 
ATOM     18  C   UNL     1      -4.547   1.561  24.780  0.00  0.00    +0.071 A 
ATOM     19  C   UNL     1      -4.548   2.921  24.619  0.00  0.00    +0.148 A 
BRANCH  19  20
ATOM     20  C   UNL     1      -5.085   4.037  25.406  0.00  0.00    +0.151 C 
BRANCH  20   1
ATOM      1  S   UNL     1      -3.979   4.560  26.764  0.00  0.00    -0.117 S 
BRANCH   1  24
ATOM     24  C   UNL     1      -2.377   4.229  26.046  0.00  0.00    +0.008 A 
ATOM     25  C   UNL     1      -1.717   3.033  26.334  0.00  0.00    +0.015 A 
ATOM     26  C   UNL     1      -1.785   5.164  25.198  0.00  0.00    +0.015 A 
ATOM     27  C   UNL     1      -0.465   2.774  25.774  0.00  0.00    +0.001 A 
ATOM     28  C   UNL     1      -0.534   4.906  24.637  0.00  0.00    +0.001 A 
ATOM     29  C   UNL     1       0.126   3.711  24.926  0.00  0.00    +0.000 A 
ENDBRANCH   1  24
ENDBRANCH  20   1
ENDBRANCH  19  20
ENDBRANCH  14  16
ENDBRANCH  10  14
BRANCH   9  15
ATOM     15  C   UNL     1      -0.538  -0.712  23.145  0.00  0.00    +0.100 C 
BRANCH  15  17
ATOM      2  S   UNL     1       4.350  -1.480  23.618  0.00  0.00    -0.061 S 
ATOM      4  O   UNL     1       0.682   1.355  22.943  0.00  0.00    -0.275 OA
ATOM      7  N   UNL     1       1.843  -0.654  23.314  0.00  0.00    -0.265 N 
ATOM      8  N   UNL     1       3.666   0.980  23.218  0.00  0.00    -0.233 NA
ATOM     17  C   UNL     1       0.717   0.141  23.118  0.00  0.00    +0.219 C 
ATOM     21  C   UNL     1       3.195  -0.238  23.355  0.00  0.00    +0.164 A 
ATOM     22  C   UNL     1       5.596  -0.303  23.543  0.00  0.00    +0.068 A 
ATOM     23  C   UNL     1       5.043   0.942  23.326  0.00  0.00    +0.120 A 
ATOM     31  H   UNL     1       1.722  -1.655  23.441  0.00  0.00    +0.157 HD
ENDBRANCH  15  17
ENDBRANCH   9  15
TORSDOF 7
ENDMDL
MODEL 2
REMARK VINA RESULT:      -0.8      1.778      3.172
REMARK  Name = 26743082
REMARK  7 active torsions:
REMARK  status: ('A' for Active; 'I' for Inactive)
REMARK    1  A    between atoms: S_1  and  C_20
REMARK    2  A    between atoms: S_1  and  C_24
REMARK    3  A    between atoms: C_9  and  C_15
REMARK    4  A    between atoms: C_10  and  C_14
REMARK    5  A    between atoms: C_14  and  C_16
REMARK    6  A    between atoms: C_15  and  C_17
REMARK    7  A    between atoms: C_19  and  C_20
REMARK                            x       y       z     vdW  Elec       q    Type
REMARK                         _______ _______ _______ _____ _____    ______ ____
ROOT
ATOM      5  N   UNL     1      -4.308  -0.730  24.813  0.00  0.00    -0.316 NA
ATOM      9  C   UNL     1      -1.638  -1.976  24.959  0.00  0.00    +0.004 C 
ATOM     10  C   UNL     1      -2.088  -0.847  25.918  0.00  0.00    +0.012 C 
ATOM     11  C   UNL     1      -2.881  -2.710  24.429  0.00  0.00    +0.019 C 
ATOM     12  C   UNL     1      -3.160   0.049  25.275  0.00  0.00    +0.085 C 
ATOM     13  C   UNL     1      -3.918  -1.752  23.844  0.00  0.00    +0.081 C 
ATOM     30  H   UNL     1      -4.991  -0.105  24.388  0.00  0.00    +0.122 HD
ENDROOT
BRANCH  10  14
ATOM     14  C   UNL     1      -0.924  -0.003  26.438  0.00  0.00    +0.064 C 
BRANCH  14  16
ATOM      3  O   UNL     1      -0.433   2.569  23.969  0.00  0.00    -0.359 OA
ATOM      6  N   UNL     1      -0.476   1.239  24.366  0.00  0.00    -0.083 NA
ATOM     16  C   UNL     1      -0.786   1.276  25.665  0.00  0.00    +0.084 A 
ATOM     18  C   UNL     1      -0.949   2.590  26.138  0.00  0.00    +0.071 A 
ATOM     19  C   UNL     1      -0.715   3.364  25.033  0.00  0.00    +0.148 A 
BRANCH  19  20
ATOM     20  C   UNL     1      -0.712   4.812  24.788  0.00  0.00    +0.151 C 
BRANCH  20   1
ATOM      1  S   UNL     1      -2.247   5.639  25.336  0.00  0.00    -0.117 S 
BRANCH   1  24
ATOM     24  C   UNL     1      -3.451   4.351  25.048  0.00  0.00    +0.008 A 
ATOM     25  C   UNL     1      -4.303   3.949  26.077  0.00  0.00    +0.015 A 
ATOM     26  C   UNL     1      -3.542   3.749  23.793  0.00  0.00    +0.015 A 
ATOM     27  C   UNL     1      -5.244   2.943  25.853  0.00  0.00    +0.001 A 
ATOM     28  C   UNL     1      -4.482   2.744  23.567  0.00  0.00    +0.001 A 
ATOM     29  C   UNL     1      -5.333   2.341  24.598  0.00  0.00    +0.000 A 
ENDBRANCH   1  24
ENDBRANCH  20   1
ENDBRANCH  19  20
ENDBRANCH  14  16
ENDBRANCH  10  14
BRANCH   9  15
ATOM     15  C   UNL     1      -0.752  -1.497  23.804  0.00  0.00    +0.100 C 
BRANCH  15  17
ATOM      2  S   UNL     1       3.463   0.688  22.332  0.00  0.00    -0.061 S 
ATOM      4  O   UNL     1       1.154  -2.470  24.909  0.00  0.00    -0.275 OA
ATOM      7  N   UNL     1       1.464  -0.724  23.369  0.00  0.00    -0.265 N 
ATOM      8  N   UNL     1       3.763  -1.199  24.072  0.00  0.00    -0.233 NA
ATOM     17  C   UNL     1       0.728  -1.642  24.110  0.00  0.00    +0.219 C 
ATOM     21  C   UNL     1       2.868  -0.541  23.372  0.00  0.00    +0.164 A 
ATOM     22  C   UNL     1       5.056   0.323  22.853  0.00  0.00    +0.068 A 
ATOM     23  C   UNL     1       5.018  -0.703  23.775  0.00  0.00    +0.120 A 
ATOM     31  H   UNL     1       0.974  -0.088  22.745  0.00  0.00    +0.157 HD
ENDBRANCH  15  17
ENDBRANCH   9  15
TORSDOF 7
ENDMDL
MODEL 3
REMARK VINA RESULT:      -0.7     14.747     17.823
REMARK  Name = 26743082
REMARK  7 active torsions:
REMARK  status: ('A' for Active; 'I' for Inactive)
REMARK    1  A    between atoms: S_1  and  C_20
REMARK    2  A    between atoms: S_1  and  C_24
REMARK    3  A    between atoms: C_9  and  C_15
REMARK    4  A    between atoms: C_10  and  C_14
REMARK    5  A    between atoms: C_14  and  C_16
REMARK    6  A    between atoms: C_15  and  C_17
REMARK    7  A    between atoms: C_19  and  C_20
REMARK                            x       y       z     vdW  Elec       q    Type
REMARK                         _______ _______ _______ _____ _____    ______ ____
ROOT
ATOM      5  N   UNL     1      -1.535 -10.019  15.491  0.00  0.00    -0.316 NA
ATOM      9  C   UNL     1      -4.202 -10.588  16.615  0.00  0.00    +0.004 C 
ATOM     10  C   UNL     1      -3.868 -10.781  15.117  0.00  0.00    +0.012 C 
ATOM     11  C   UNL     1      -2.906 -10.683  17.436  0.00  0.00    +0.019 C 
ATOM     12  C   UNL     1      -2.730  -9.850  14.665  0.00  0.00    +0.085 C 
ATOM     13  C   UNL     1      -1.809  -9.762  16.903  0.00  0.00    +0.081 C 
ATOM     30  H   UNL     1      -0.808  -9.382  15.166  0.00  0.00    +0.122 HD
ENDROOT
BRANCH  10  14
ATOM     14  C   UNL     1      -5.085 -10.623  14.205  0.00  0.00    +0.064 C 
BRANCH  14  16
ATOM      3  O   UNL     1      -3.392 -10.724  11.030  0.00  0.00    -0.359 OA
ATOM      6  N   UNL     1      -3.402 -10.732  12.419  0.00  0.00    -0.083 NA
ATOM     16  C   UNL     1      -4.691 -10.640  12.757  0.00  0.00    +0.084 A 
ATOM     18  C   UNL     1      -5.533 -10.572  11.633  0.00  0.00    +0.071 A 
ATOM     19  C   UNL     1      -4.668 -10.628  10.574  0.00  0.00    +0.148 A 
BRANCH  19  20
ATOM     20  C   UNL     1      -4.842 -10.605   9.116  0.00  0.00    +0.151 C 
BRANCH  20   1
ATOM      1  S   UNL     1      -5.182  -8.935   8.457  0.00  0.00    -0.117 S 
BRANCH   1  24
ATOM     24  C   UNL     1      -6.964  -8.877   8.572  0.00  0.00    +0.008 A 
ATOM     25  C   UNL     1      -7.706 -10.057   8.511  0.00  0.00    +0.015 A 
ATOM     26  C   UNL     1      -7.614  -7.652   8.724  0.00  0.00    +0.015 A 
ATOM     27  C   UNL     1      -9.097 -10.012   8.601  0.00  0.00    +0.001 A 
ATOM     28  C   UNL     1      -9.004  -7.606   8.814  0.00  0.00    +0.001 A 
ATOM     29  C   UNL     1      -9.747  -8.787   8.752  0.00  0.00    +0.000 A 
ENDBRANCH   1  24
ENDBRANCH  20   1
ENDBRANCH  19  20
ENDBRANCH  14  16
ENDBRANCH  10  14
BRANCH   9  15
ATOM     15  C   UNL     1      -4.950  -9.286  16.924  0.00  0.00    +0.100 C 
BRANCH  15  17
ATOM      2  S   UNL     1      -9.098  -9.086  14.193  0.00  0.00    -0.061 S 
ATOM      4  O   UNL     1      -6.883  -9.830  18.254  0.00  0.00    -0.275 OA
ATOM      7  N   UNL     1      -7.142  -9.302  15.979  0.00  0.00    -0.265 N 
ATOM      8  N   UNL     1      -9.453  -9.734  16.670  0.00  0.00    -0.233 NA
ATOM     17  C   UNL     1      -6.433  -9.511  17.158  0.00  0.00    +0.219 C 
ATOM     21  C   UNL     1      -8.539  -9.413  15.782  0.00  0.00    +0.164 A 
ATOM     22  C   UNL     1     -10.701  -9.398  14.719  0.00  0.00    +0.068 A 
ATOM     23  C   UNL     1     -10.692  -9.726  16.059  0.00  0.00    +0.120 A 
ATOM     31  H   UNL     1      -6.634  -9.045  15.137  0.00  0.00    +0.157 HD
ENDBRANCH  15  17
ENDBRANCH   9  15
TORSDOF 7
ENDMDL
MODEL 4
REMARK VINA RESULT:      -0.6     15.341     18.085
REMARK  Name = 26743082
REMARK  7 active torsions:
REMARK  status: ('A' for Active; 'I' for Inactive)
REMARK    1  A    between atoms: S_1  and  C_20
REMARK    2  A    between atoms: S_1  and  C_24
REMARK    3  A    between atoms: C_9  and  C_15
REMARK    4  A    between atoms: C_10  and  C_14
REMARK    5  A    between atoms: C_14  and  C_16
REMARK    6  A    between atoms: C_15  and  C_17
REMARK    7  A    between atoms: C_19  and  C_20
REMARK                            x       y       z     vdW  Elec       q    Type
REMARK                         _______ _______ _______ _____ _____    ______ ____
ROOT
ATOM      5  N   UNL     1      -9.018 -10.443   8.125  0.00  0.00    -0.316 NA
ATOM      9  C   UNL     1      -9.166  -9.418  10.887  0.00  0.00    +0.004 C 
ATOM     10  C   UNL     1      -7.824  -9.653  10.153  0.00  0.00    +0.012 C 
ATOM     11  C   UNL     1     -10.276  -9.196   9.847  0.00  0.00    +0.019 C 
ATOM     12  C   UNL     1      -7.949 -10.744   9.077  0.00  0.00    +0.085 C 
ATOM     13  C   UNL     1     -10.312 -10.297   8.788  0.00  0.00    +0.081 C 
ATOM     30  H   UNL     1      -9.075 -11.190   7.434  0.00  0.00    +0.122 HD
ENDROOT
BRANCH  10  14
ATOM     14  C   UNL     1      -6.667  -9.965  11.103  0.00  0.00    +0.064 C 
BRANCH  14  16
ATOM      3  O   UNL     1      -3.973  -8.639   9.117  0.00  0.00    -0.359 OA
ATOM      6  N   UNL     1      -5.316  -8.919   9.337  0.00  0.00    -0.083 NA
ATOM     16  C   UNL     1      -5.353  -9.517  10.531  0.00  0.00    +0.084 A 
ATOM     18  C   UNL     1      -4.076  -9.642  11.106  0.00  0.00    +0.071 A 
ATOM     19  C   UNL     1      -3.245  -9.075  10.178  0.00  0.00    +0.148 A 
BRANCH  19  20
ATOM     20  C   UNL     1      -1.794  -8.858  10.110  0.00  0.00    +0.151 C 
BRANCH  20   1
ATOM      1  S   UNL     1      -0.896  -9.538  11.548  0.00  0.00    -0.117 S 
BRANCH   1  24
ATOM     24  C   UNL     1       0.346  -8.280  11.803  0.00  0.00    +0.008 A 
ATOM     25  C   UNL     1       1.597  -8.401  11.195  0.00  0.00    +0.015 A 
ATOM     26  C   UNL     1       0.067  -7.175  12.607  0.00  0.00    +0.015 A 
ATOM     27  C   UNL     1       2.568  -7.418  11.394  0.00  0.00    +0.001 A 
ATOM     28  C   UNL     1       1.036  -6.193  12.806  0.00  0.00    +0.001 A 
ATOM     29  C   UNL     1       2.287  -6.315  12.199  0.00  0.00    +0.000 A 
ENDBRANCH   1  24
ENDBRANCH  20   1
ENDBRANCH  19  20
ENDBRANCH  14  16
ENDBRANCH  10  14
BRANCH   9  15
ATOM     15  C   UNL     1      -9.548 -10.539  11.862  0.00  0.00    +0.100 C 
BRANCH  15  17
ATOM      2  S   UNL     1      -6.651 -10.350  15.897  0.00  0.00    -0.061 S 
ATOM      4  O   UNL     1     -10.714  -9.529  13.712  0.00  0.00    -0.275 OA
ATOM      7  N   UNL     1      -8.499 -10.262  13.988  0.00  0.00    -0.265 N 
ATOM      8  N   UNL     1      -9.024  -9.373  16.210  0.00  0.00    -0.233 NA
ATOM     17  C   UNL     1      -9.682 -10.043  13.290  0.00  0.00    +0.219 C 
ATOM     21  C   UNL     1      -8.222  -9.942  15.339  0.00  0.00    +0.164 A 
ATOM     22  C   UNL     1      -7.060  -9.716  17.437  0.00  0.00    +0.068 A 
ATOM     23  C   UNL     1      -8.357  -9.243  17.413  0.00  0.00    +0.120 A 
ATOM     31  H   UNL     1      -7.715 -10.696  13.506  0.00  0.00    +0.157 HD
ENDBRANCH  15  17
ENDBRANCH   9  15
TORSDOF 7
ENDMDL
MODEL 5
REMARK VINA RESULT:       1.0      2.785      6.041
REMARK  Name = 26743082
REMARK  7 active torsions:
REMARK  status: ('A' for Active; 'I' for Inactive)
REMARK    1  A    between atoms: S_1  and  C_20
REMARK    2  A    between atoms: S_1  and  C_24
REMARK    3  A    between atoms: C_9  and  C_15
REMARK    4  A    between atoms: C_10  and  C_14
REMARK    5  A    between atoms: C_14  and  C_16
REMARK    6  A    between atoms: C_15  and  C_17
REMARK    7  A    between atoms: C_19  and  C_20
REMARK                            x       y       z     vdW  Elec       q    Type
REMARK                         _______ _______ _______ _____ _____    ______ ____
ROOT
ATOM      5  N   UNL     1      -5.046   4.028  25.164  0.00  0.00    -0.316 NA
ATOM      9  C   UNL     1      -2.680   2.339  24.659  0.00  0.00    +0.004 C 
ATOM     10  C   UNL     1      -4.123   1.866  24.363  0.00  0.00    +0.012 C 
ATOM     11  C   UNL     1      -2.639   3.876  24.629  0.00  0.00    +0.019 C 
ATOM     12  C   UNL     1      -5.148   2.572  25.267  0.00  0.00    +0.085 C 
ATOM     13  C   UNL     1      -3.711   4.505  25.517  0.00  0.00    +0.081 C 
ATOM     30  H   UNL     1      -5.733   4.459  25.781  0.00  0.00    +0.122 HD
ENDROOT
BRANCH  10  14
ATOM     14  C   UNL     1      -4.287   0.348  24.449  0.00  0.00    +0.064 C 
BRANCH  14  16
ATOM      3  O   UNL     1      -1.468  -1.766  25.185  0.00  0.00    -0.359 OA
ATOM      6  N   UNL     1      -2.787  -1.370  25.364  0.00  0.00    -0.083 NA
ATOM     16  C   UNL     1      -2.956  -0.342  24.528  0.00  0.00    +0.084 A 
ATOM     18  C   UNL     1      -1.788  -0.046  23.803  0.00  0.00    +0.071 A 
ATOM     19  C   UNL     1      -0.883  -0.970  24.254  0.00  0.00    +0.148 A 
BRANCH  19  20
ATOM     20  C   UNL     1       0.524  -1.251  23.942  0.00  0.00    +0.151 C 
BRANCH  20   1
ATOM      1  S   UNL     1       1.191  -0.195  22.608  0.00  0.00    -0.117 S 
BRANCH   1  24
ATOM     24  C   UNL     1       2.928  -0.169  23.028  0.00  0.00    +0.008 A 
ATOM     25  C   UNL     1       3.689   0.973  22.777  0.00  0.00    +0.015 A 
ATOM     26  C   UNL     1       3.522  -1.289  23.607  0.00  0.00    +0.015 A 
ATOM     27  C   UNL     1       5.045   0.994  23.105  0.00  0.00    +0.001 A 
ATOM     28  C   UNL     1       4.877  -1.269  23.936  0.00  0.00    +0.001 A 
ATOM     29  C   UNL     1       5.639  -0.128  23.684  0.00  0.00    +0.000 A 
ENDBRANCH   1  24
ENDBRANCH  20   1
ENDBRANCH  19  20
ENDBRANCH  14  16
ENDBRANCH  10  14
BRANCH   9  15
ATOM     15  C   UNL     1      -2.105   1.803  25.975  0.00  0.00    +0.100 C 
BRANCH  15  17
ATOM      2  S   UNL     1       0.959   2.308  29.856  0.00  0.00    -0.061 S 
ATOM      4  O   UNL     1       0.070   2.553  25.263  0.00  0.00    -0.275 OA
ATOM      7  N   UNL     1      -0.343   2.168  27.543  0.00  0.00    -0.265 N 
ATOM      8  N   UNL     1       2.000   2.887  27.562  0.00  0.00    -0.233 NA
ATOM     17  C   UNL     1      -0.662   2.223  26.190  0.00  0.00    +0.219 C 
ATOM     21  C   UNL     1       0.898   2.481  28.150  0.00  0.00    +0.164 A 
ATOM     22  C   UNL     1       2.598   2.815  29.823  0.00  0.00    +0.068 A 
ATOM     23  C   UNL     1       2.975   3.078  28.523  0.00  0.00    +0.120 A 
ATOM     31  H   UNL     1      -1.053   1.868  28.206  0.00  0.00    +0.157 HD
ENDBRANCH  15  17
ENDBRANCH   9  15
TORSDOF 7
ENDMDL
MODEL 6
REMARK VINA RESULT:       1.4     14.538     17.432
REMARK  Name = 26743082
REMARK  7 active torsions:
REMARK  status: ('A' for Active; 'I' for Inactive)
REMARK    1  A    between atoms: S_1  and  C_20
REMARK    2  A    between atoms: S_1  and  C_24
REMARK    3  A    between atoms: C_9  and  C_15
REMARK    4  A    between atoms: C_10  and  C_14
REMARK    5  A    between atoms: C_14  and  C_16
REMARK    6  A    between atoms: C_15  and  C_17
REMARK    7  A    between atoms: C_19  and  C_20
REMARK                            x       y       z     vdW  Elec       q    Type
REMARK                         _______ _______ _______ _____ _____    ______ ____
ROOT
ATOM      5  N   UNL     1      -6.488  -9.192   8.240  0.00  0.00    -0.316 NA
ATOM      9  C   UNL     1      -5.722  -9.184  11.089  0.00  0.00    +0.004 C 
ATOM     10  C   UNL     1      -4.787  -9.708   9.973  0.00  0.00    +0.012 C 
ATOM     11  C   UNL     1      -6.715  -8.179  10.482  0.00  0.00    +0.019 C 
ATOM     12  C   UNL     1      -5.582 -10.216   8.759  0.00  0.00    +0.085 C 
ATOM     13  C   UNL     1      -7.435  -8.739   9.257  0.00  0.00    +0.081 C 
ATOM     30  H   UNL     1      -7.001  -9.567   7.444  0.00  0.00    +0.122 HD
ENDROOT
BRANCH  10  14
ATOM     14  C   UNL     1      -3.811 -10.779  10.462  0.00  0.00    +0.064 C 
BRANCH  14  16
ATOM      3  O   UNL     1      -1.089  -9.904  12.651  0.00  0.00    -0.359 OA
ATOM      6  N   UNL     1      -2.170 -10.699  12.290  0.00  0.00    -0.083 NA
ATOM     16  C   UNL     1      -2.627 -10.166  11.154  0.00  0.00    +0.084 A 
ATOM     18  C   UNL     1      -1.883  -9.042  10.754  0.00  0.00    +0.071 A 
ATOM     19  C   UNL     1      -0.929  -8.921  11.729  0.00  0.00    +0.148 A 
BRANCH  19  20
ATOM     20  C   UNL     1       0.177  -7.982  11.958  0.00  0.00    +0.151 C 
BRANCH  20   1
ATOM      1  S   UNL     1       1.675  -8.384  10.993  0.00  0.00    -0.117 S 
BRANCH   1  24
ATOM     24  C   UNL     1       2.861  -7.261  11.719  0.00  0.00    +0.008 A 
ATOM     25  C   UNL     1       2.478  -5.962  12.052  0.00  0.00    +0.015 A 
ATOM     26  C   UNL     1       4.169  -7.684  11.953  0.00  0.00    +0.015 A 
ATOM     27  C   UNL     1       3.404  -5.085  12.619  0.00  0.00    +0.001 A 
ATOM     28  C   UNL     1       5.095  -6.808  12.520  0.00  0.00    +0.001 A 
ATOM     29  C   UNL     1       4.712  -5.508  12.852  0.00  0.00    +0.000 A 
ENDBRANCH   1  24
ENDBRANCH  20   1
ENDBRANCH  19  20
ENDBRANCH  14  16
ENDBRANCH  10  14
BRANCH   9  15
ATOM     15  C   UNL     1      -6.462 -10.288  11.853  0.00  0.00    +0.100 C 
BRANCH  15  17
ATOM      2  S   UNL     1      -9.479  -9.313  15.681  0.00  0.00    -0.061 S 
ATOM      4  O   UNL     1      -5.242 -10.278  13.930  0.00  0.00    -0.275 OA
ATOM      7  N   UNL     1      -7.554  -9.858  13.932  0.00  0.00    -0.265 N 
ATOM      8  N   UNL     1      -7.002  -9.693  16.314  0.00  0.00    -0.233 NA
ATOM     17  C   UNL     1      -6.319 -10.146  13.358  0.00  0.00    +0.219 C 
ATOM     21  C   UNL     1      -7.840  -9.654  15.303  0.00  0.00    +0.164 A 
ATOM     22  C   UNL     1      -9.050  -9.208  17.338  0.00  0.00    +0.068 A 
ATOM     23  C   UNL     1      -7.697  -9.438  17.481  0.00  0.00    +0.120 A 
ATOM     31  H   UNL     1      -8.371  -9.783  13.332  0.00  0.00    +0.157 HD
ENDBRANCH  15  17
ENDBRANCH   9  15
TORSDOF 7
ENDMDL
