MODEL 1
REMARK VINA RESULT:       8.9      0.000      0.000
REMARK  Name = 45360601
REMARK  13 active torsions:
REMARK  status: ('A' for Active; 'I' for Inactive)
REMARK    1  A    between atoms: O_2  and  C_12
REMARK    2  A    between atoms: O_3  and  C_13
REMARK    3  A    between atoms: O_5  and  C_24
REMARK    4  A    between atoms: O_5  and  C_35
REMARK    5  A    between atoms: N_8  and  C_22
REMARK    6  A    between atoms: N_9  and  C_16
REMARK    7  A    between atoms: N_10  and  C_34
REMARK    8  A    between atoms: N_10  and  C_36
REMARK    9  A    between atoms: N_10  and  C_37
REMARK   10  A    between atoms: C_11  and  C_15
REMARK   11  A    between atoms: C_14  and  C_16
REMARK   12  A    between atoms: C_15  and  C_17
REMARK   13  A    between atoms: C_23  and  C_26
REMARK                            x       y       z     vdW  Elec       q    Type
REMARK                         _______ _______ _______ _____ _____    ______ ____
ROOT
ATOM      1  O   UNL     1      -4.645   0.912  23.802  0.00  0.00    -0.366 OA
ATOM     11  C   UNL     1      -5.363   0.306  24.901  0.00  0.00    +0.159 C 
ATOM     12  C   UNL     1      -6.082   1.441  25.621  0.00  0.00    +0.175 C 
ATOM     13  C   UNL     1      -5.174   2.620  25.340  0.00  0.00    +0.176 C 
ATOM     14  C   UNL     1      -4.752   2.343  23.906  0.00  0.00    +0.167 C 
ENDROOT
BRANCH  12   2
ATOM      2  O   UNL     1      -7.350   1.631  24.994  0.00  0.00    -0.387 OA
ATOM     38  H   UNL     1      -7.991   1.065  25.456  0.00  0.00    +0.210 HD
ENDBRANCH  12   2
BRANCH  13   3
ATOM      3  O   UNL     1      -5.820   3.867  25.470  0.00  0.00    -0.387 OA
ATOM     39  H   UNL     1      -5.366   4.494  24.881  0.00  0.00    +0.210 HD
ENDBRANCH  13   3
BRANCH  11  15
ATOM     15  C   UNL     1      -4.349  -0.411  25.782  0.00  0.00    +0.130 C 
BRANCH  15  17
ATOM      4  O   UNL     1      -4.167  -2.439  24.560  0.00  0.00    -0.276 OA
ATOM      7  N   UNL     1      -2.243  -1.147  24.730  0.00  0.00    -0.298 N 
ATOM      8  N   UNL     1       0.495  -0.558  23.995  0.00  0.00    -0.324 N 
ATOM     17  C   UNL     1      -3.588  -1.429  24.967  0.00  0.00    +0.218 C 
ATOM     18  C   UNL     1      -1.558   0.054  25.214  0.00  0.00    +0.126 C 
ATOM     19  C   UNL     1      -1.439  -2.081  23.944  0.00  0.00    +0.126 C 
ATOM     20  C   UNL     1      -0.040  -0.119  25.286  0.00  0.00    +0.124 C 
ATOM     21  C   UNL     1      -0.368  -1.364  23.125  0.00  0.00    +0.124 C 
BRANCH   8  22
ATOM     22  C   UNL     1       1.799  -0.251  23.615  0.00  0.00    +0.072 A 
ATOM     24  C   UNL     1       2.168   1.066  23.343  0.00  0.00    +0.141 A 
ATOM     25  C   UNL     1       2.740  -1.275  23.509  0.00  0.00    +0.027 A 
ATOM     27  C   UNL     1       3.479   1.359  22.965  0.00  0.00    +0.047 A 
ATOM     28  C   UNL     1       4.050  -0.983  23.131  0.00  0.00    +0.002 A 
ATOM     29  C   UNL     1       4.420   0.334  22.858  0.00  0.00    +0.004 A 
BRANCH  24   5
ATOM      5  O   UNL     1       1.265   2.082  23.440  0.00  0.00    -0.493 OA
ATOM     35  C   UNL     1       0.016   1.903  22.776  0.00  0.00    +0.277 C 
ENDBRANCH  24   5
ENDBRANCH   8  22
ENDBRANCH  15  17
ENDBRANCH  11  15
BRANCH  14  16
ATOM     16  C   UNL     1      -3.426   2.984  23.534  0.00  0.00    +0.138 C 
BRANCH  16   9
ATOM      6  O   UNL     1      -2.130   5.006  25.108  0.00  0.00    -0.270 OA
ATOM      9  N   UNL     1      -2.445   2.774  24.559  0.00  0.00    -0.309 N 
ATOM     23  C   UNL     1      -1.866   3.818  25.275  0.00  0.00    +0.244 C 
ATOM     40  H   UNL     1      -2.221   1.811  24.786  0.00  0.00    +0.149 HD
BRANCH  23  26
ATOM     26  C   UNL     1      -0.847   3.436  26.285  0.00  0.00    +0.037 A 
ATOM     30  C   UNL     1      -1.243   3.061  27.569  0.00  0.00    +0.015 A 
ATOM     31  C   UNL     1       0.507   3.452  25.951  0.00  0.00    +0.015 A 
ATOM     32  C   UNL     1      -0.286   2.705  28.519  0.00  0.00    +0.024 A 
ATOM     33  C   UNL     1       1.465   3.095  26.900  0.00  0.00    +0.024 A 
ATOM     34  C   UNL     1       1.068   2.721  28.184  0.00  0.00    +0.029 A 
BRANCH  34  10
ATOM     10  N   UNL     1       2.037   2.359  29.142  0.00  0.00    -0.336 N 
ATOM     36  C   UNL     1       1.636   1.938  30.470  0.00  0.00    +0.129 C 
ATOM     37  C   UNL     1       3.449   2.411  28.815  0.00  0.00    +0.129 C 
ENDBRANCH  34  10
ENDBRANCH  23  26
ENDBRANCH  16   9
ENDBRANCH  14  16
TORSDOF 10
ENDMDL
MODEL 2
REMARK VINA RESULT:       9.1      2.591      5.739
REMARK  Name = 45360601
REMARK  13 active torsions:
REMARK  status: ('A' for Active; 'I' for Inactive)
REMARK    1  A    between atoms: O_2  and  C_12
REMARK    2  A    between atoms: O_3  and  C_13
REMARK    3  A    between atoms: O_5  and  C_24
REMARK    4  A    between atoms: O_5  and  C_35
REMARK    5  A    between atoms: N_8  and  C_22
REMARK    6  A    between atoms: N_9  and  C_16
REMARK    7  A    between atoms: N_10  and  C_34
REMARK    8  A    between atoms: N_10  and  C_36
REMARK    9  A    between atoms: N_10  and  C_37
REMARK   10  A    between atoms: C_11  and  C_15
REMARK   11  A    between atoms: C_14  and  C_16
REMARK   12  A    between atoms: C_15  and  C_17
REMARK   13  A    between atoms: C_23  and  C_26
REMARK                            x       y       z     vdW  Elec       q    Type
REMARK                         _______ _______ _______ _____ _____    ______ ____
ROOT
ATOM      1  O   UNL     1      -3.208   4.017  24.126  0.00  0.00    -0.366 OA
ATOM     11  C   UNL     1      -3.279   4.991  25.191  0.00  0.00    +0.159 C 
ATOM     12  C   UNL     1      -1.842   5.390  25.505  0.00  0.00    +0.175 C 
ATOM     13  C   UNL     1      -1.077   4.137  25.128  0.00  0.00    +0.176 C 
ATOM     14  C   UNL     1      -1.830   3.684  23.887  0.00  0.00    +0.167 C 
ENDROOT
BRANCH  12   2
ATOM      2  O   UNL     1      -1.482   6.468  24.641  0.00  0.00    -0.387 OA
ATOM     38  H   UNL     1      -1.485   6.125  23.732  0.00  0.00    +0.210 HD
ENDBRANCH  12   2
BRANCH  13   3
ATOM      3  O   UNL     1       0.288   4.374  24.862  0.00  0.00    -0.387 OA
ATOM     39  H   UNL     1       0.372   4.558  23.911  0.00  0.00    +0.210 HD
ENDBRANCH  13   3
BRANCH  11  15
ATOM     15  C   UNL     1      -3.989   4.341  26.372  0.00  0.00    +0.130 C 
BRANCH  15  17
ATOM      4  O   UNL     1      -6.227   3.833  25.765  0.00  0.00    -0.276 OA
ATOM      7  N   UNL     1      -4.678   2.112  25.572  0.00  0.00    -0.298 N 
ATOM      8  N   UNL     1      -3.929  -0.548  24.709  0.00  0.00    -0.324 N 
ATOM     17  C   UNL     1      -5.072   3.415  25.875  0.00  0.00    +0.218 C 
ATOM     18  C   UNL     1      -3.305   1.618  25.704  0.00  0.00    +0.126 C 
ATOM     19  C   UNL     1      -5.667   1.157  25.080  0.00  0.00    +0.126 C 
ATOM     20  C   UNL     1      -3.232   0.096  25.825  0.00  0.00    +0.124 C 
ATOM     21  C   UNL     1      -5.058   0.159  24.097  0.00  0.00    +0.124 C 
BRANCH   8  22
ATOM     22  C   UNL     1      -3.556  -1.813  24.262  0.00  0.00    +0.072 A 
ATOM     24  C   UNL     1      -2.215  -2.196  24.252  0.00  0.00    +0.141 A 
ATOM     25  C   UNL     1      -4.538  -2.701  23.824  0.00  0.00    +0.027 A 
ATOM     27  C   UNL     1      -1.856  -3.467  23.803  0.00  0.00    +0.047 A 
ATOM     28  C   UNL     1      -4.180  -3.972  23.375  0.00  0.00    +0.002 A 
ATOM     29  C   UNL     1      -2.838  -4.355  23.364  0.00  0.00    +0.004 A 
BRANCH  24   5
ATOM      5  O   UNL     1      -1.239  -1.343  24.676  0.00  0.00    -0.493 OA
ATOM     35  C   UNL     1      -0.345  -1.828  25.674  0.00  0.00    +0.277 C 
ENDBRANCH  24   5
ENDBRANCH   8  22
ENDBRANCH  15  17
ENDBRANCH  11  15
BRANCH  14  16
ATOM     16  C   UNL     1      -1.702   2.196  23.616  0.00  0.00    +0.138 C 
BRANCH  16   9
ATOM      6  O   UNL     1      -0.519   0.051  22.117  0.00  0.00    -0.270 OA
ATOM      9  N   UNL     1      -0.330   1.779  23.654  0.00  0.00    -0.309 N 
ATOM     23  C   UNL     1       0.159   0.723  22.889  0.00  0.00    +0.244 C 
ATOM     40  H   UNL     1       0.298   2.328  24.231  0.00  0.00    +0.149 HD
BRANCH  23  26
ATOM     26  C   UNL     1       1.598   0.400  23.061  0.00  0.00    +0.037 A 
ATOM     30  C   UNL     1       2.561   1.398  22.912  0.00  0.00    +0.015 A 
ATOM     31  C   UNL     1       1.988  -0.904  23.370  0.00  0.00    +0.015 A 
ATOM     32  C   UNL     1       3.913   1.094  23.071  0.00  0.00    +0.024 A 
ATOM     33  C   UNL     1       3.340  -1.208  23.531  0.00  0.00    +0.024 A 
ATOM     34  C   UNL     1       4.303  -0.209  23.381  0.00  0.00    +0.029 A 
BRANCH  34  10
ATOM     10  N   UNL     1       5.669  -0.518  23.543  0.00  0.00    -0.336 N 
ATOM     36  C   UNL     1       6.171  -0.977  24.823  0.00  0.00    +0.129 C 
ATOM     37  C   UNL     1       6.591  -0.374  22.434  0.00  0.00    +0.129 C 
ENDBRANCH  34  10
ENDBRANCH  23  26
ENDBRANCH  16   9
ENDBRANCH  14  16
TORSDOF 10
ENDMDL
MODEL 3
REMARK VINA RESULT:      11.1      2.628      4.845
REMARK  Name = 45360601
REMARK  13 active torsions:
REMARK  status: ('A' for Active; 'I' for Inactive)
REMARK    1  A    between atoms: O_2  and  C_12
REMARK    2  A    between atoms: O_3  and  C_13
REMARK    3  A    between atoms: O_5  and  C_24
REMARK    4  A    between atoms: O_5  and  C_35
REMARK    5  A    between atoms: N_8  and  C_22
REMARK    6  A    between atoms: N_9  and  C_16
REMARK    7  A    between atoms: N_10  and  C_34
REMARK    8  A    between atoms: N_10  and  C_36
REMARK    9  A    between atoms: N_10  and  C_37
REMARK   10  A    between atoms: C_11  and  C_15
REMARK   11  A    between atoms: C_14  and  C_16
REMARK   12  A    between atoms: C_15  and  C_17
REMARK   13  A    between atoms: C_23  and  C_26
REMARK                            x       y       z     vdW  Elec       q    Type
REMARK                         _______ _______ _______ _____ _____    ______ ____
ROOT
ATOM      1  O   UNL     1      -5.008   4.073  24.405  0.00  0.00    -0.366 OA
ATOM     11  C   UNL     1      -5.333   4.251  25.802  0.00  0.00    +0.159 C 
ATOM     12  C   UNL     1      -4.005   4.334  26.545  0.00  0.00    +0.175 C 
ATOM     13  C   UNL     1      -3.098   3.500  25.663  0.00  0.00    +0.176 C 
ATOM     14  C   UNL     1      -3.589   3.882  24.276  0.00  0.00    +0.167 C 
ENDROOT
BRANCH  12   2
ATOM      2  O   UNL     1      -3.580   5.696  26.545  0.00  0.00    -0.387 OA
ATOM     38  H   UNL     1      -3.800   6.070  27.415  0.00  0.00    +0.210 HD
ENDBRANCH  12   2
BRANCH  13   3
ATOM      3  O   UNL     1      -1.728   3.790  25.838  0.00  0.00    -0.387 OA
ATOM     39  H   UNL     1      -1.225   3.013  25.538  0.00  0.00    +0.210 HD
ENDBRANCH  13   3
BRANCH  11  15
ATOM     15  C   UNL     1      -6.188   3.068  26.238  0.00  0.00    +0.130 C 
BRANCH  15  17
ATOM      4  O   UNL     1      -7.079   2.008  24.310  0.00  0.00    -0.276 OA
ATOM      7  N   UNL     1      -5.151   1.078  25.213  0.00  0.00    -0.298 N 
ATOM      8  N   UNL     1      -2.927  -0.772  25.098  0.00  0.00    -0.324 N 
ATOM     17  C   UNL     1      -6.188   2.010  25.162  0.00  0.00    +0.218 C 
ATOM     18  C   UNL     1      -4.093   1.082  26.227  0.00  0.00    +0.126 C 
ATOM     19  C   UNL     1      -5.078   0.025  24.204  0.00  0.00    +0.126 C 
ATOM     20  C   UNL     1      -3.421  -0.281  26.387  0.00  0.00    +0.124 C 
ATOM     21  C   UNL     1      -3.636  -0.360  23.882  0.00  0.00    +0.124 C 
BRANCH   8  22
ATOM     22  C   UNL     1      -1.836  -1.635  25.027  0.00  0.00    +0.072 A 
ATOM     24  C   UNL     1      -1.915  -2.819  24.293  0.00  0.00    +0.141 A 
ATOM     25  C   UNL     1      -0.658  -1.306  25.695  0.00  0.00    +0.027 A 
ATOM     27  C   UNL     1      -0.813  -3.674  24.228  0.00  0.00    +0.047 A 
ATOM     28  C   UNL     1       0.442  -2.160  25.632  0.00  0.00    +0.002 A 
ATOM     29  C   UNL     1       0.365  -3.344  24.898  0.00  0.00    +0.004 A 
BRANCH  24   5
ATOM      5  O   UNL     1      -3.057  -3.160  23.632  0.00  0.00    -0.493 OA
ATOM     35  C   UNL     1      -4.141  -3.645  24.420  0.00  0.00    +0.277 C 
ENDBRANCH  24   5
ENDBRANCH   8  22
ENDBRANCH  15  17
ENDBRANCH  11  15
BRANCH  14  16
ATOM     16  C   UNL     1      -3.308   2.822  23.226  0.00  0.00    +0.138 C 
BRANCH  16   9
ATOM      6  O   UNL     1      -2.052   0.879  21.525  0.00  0.00    -0.270 OA
ATOM      9  N   UNL     1      -1.965   2.331  23.332  0.00  0.00    -0.309 N 
ATOM     23  C   UNL     1      -1.436   1.384  22.460  0.00  0.00    +0.244 C 
ATOM     40  H   UNL     1      -1.382   2.748  24.051  0.00  0.00    +0.149 HD
BRANCH  23  26
ATOM     26  C   UNL     1      -0.037   0.960  22.720  0.00  0.00    +0.037 A 
ATOM     30  C   UNL     1       0.480  -0.169  22.084  0.00  0.00    +0.015 A 
ATOM     31  C   UNL     1       0.761   1.689  23.602  0.00  0.00    +0.015 A 
ATOM     32  C   UNL     1       1.793  -0.569  22.329  0.00  0.00    +0.024 A 
ATOM     33  C   UNL     1       2.075   1.290  23.847  0.00  0.00    +0.024 A 
ATOM     34  C   UNL     1       2.591   0.161  23.211  0.00  0.00    +0.029 A 
BRANCH  34  10
ATOM     10  N   UNL     1       3.920  -0.241  23.460  0.00  0.00    -0.336 N 
ATOM     36  C   UNL     1       5.012   0.700  23.313  0.00  0.00    +0.129 C 
ATOM     37  C   UNL     1       4.211  -1.604  23.858  0.00  0.00    +0.129 C 
ENDBRANCH  34  10
ENDBRANCH  23  26
ENDBRANCH  16   9
ENDBRANCH  14  16
TORSDOF 10
ENDMDL
MODEL 4
REMARK VINA RESULT:      12.3      1.669      5.228
REMARK  Name = 45360601
REMARK  13 active torsions:
REMARK  status: ('A' for Active; 'I' for Inactive)
REMARK    1  A    between atoms: O_2  and  C_12
REMARK    2  A    between atoms: O_3  and  C_13
REMARK    3  A    between atoms: O_5  and  C_24
REMARK    4  A    between atoms: O_5  and  C_35
REMARK    5  A    between atoms: N_8  and  C_22
REMARK    6  A    between atoms: N_9  and  C_16
REMARK    7  A    between atoms: N_10  and  C_34
REMARK    8  A    between atoms: N_10  and  C_36
REMARK    9  A    between atoms: N_10  and  C_37
REMARK   10  A    between atoms: C_11  and  C_15
REMARK   11  A    between atoms: C_14  and  C_16
REMARK   12  A    between atoms: C_15  and  C_17
REMARK   13  A    between atoms: C_23  and  C_26
REMARK                            x       y       z     vdW  Elec       q    Type
REMARK                         _______ _______ _______ _____ _____    ______ ____
ROOT
ATOM      1  O   UNL     1      -3.904   1.929  25.511  0.00  0.00    -0.366 OA
ATOM     11  C   UNL     1      -4.347   3.297  25.358  0.00  0.00    +0.159 C 
ATOM     12  C   UNL     1      -5.862   3.244  25.204  0.00  0.00    +0.175 C 
ATOM     13  C   UNL     1      -6.068   1.881  24.573  0.00  0.00    +0.176 C 
ATOM     14  C   UNL     1      -5.023   1.050  25.300  0.00  0.00    +0.167 C 
ENDROOT
BRANCH  12   2
ATOM      2  O   UNL     1      -6.442   3.278  26.508  0.00  0.00    -0.387 OA
ATOM     38  H   UNL     1      -7.402   3.386  26.396  0.00  0.00    +0.210 HD
ENDBRANCH  12   2
BRANCH  13   3
ATOM      3  O   UNL     1      -7.371   1.371  24.756  0.00  0.00    -0.387 OA
ATOM     39  H   UNL     1      -7.892   1.616  23.973  0.00  0.00    +0.210 HD
ENDBRANCH  13   3
BRANCH  11  15
ATOM     15  C   UNL     1      -3.644   3.882  24.140  0.00  0.00    +0.130 C 
BRANCH  15  17
ATOM      4  O   UNL     1      -2.254   2.609  22.695  0.00  0.00    -0.276 OA
ATOM      7  N   UNL     1      -1.495   2.914  24.869  0.00  0.00    -0.298 N 
ATOM      8  N   UNL     1       0.559   2.696  26.898  0.00  0.00    -0.324 N 
ATOM     17  C   UNL     1      -2.405   3.078  23.826  0.00  0.00    +0.218 C 
ATOM     18  C   UNL     1      -1.677   3.472  26.212  0.00  0.00    +0.126 C 
ATOM     19  C   UNL     1      -0.269   2.153  24.643  0.00  0.00    +0.126 C 
ATOM     20  C   UNL     1      -0.856   2.740  27.274  0.00  0.00    +0.124 C 
ATOM     21  C   UNL     1       0.897   2.690  25.471  0.00  0.00    +0.124 C 
BRANCH   8  22
ATOM     22  C   UNL     1       1.559   2.626  27.865  0.00  0.00    +0.072 A 
ATOM     24  C   UNL     1       1.234   2.606  29.221  0.00  0.00    +0.141 A 
ATOM     25  C   UNL     1       2.894   2.573  27.467  0.00  0.00    +0.027 A 
ATOM     27  C   UNL     1       2.246   2.534  30.180  0.00  0.00    +0.047 A 
ATOM     28  C   UNL     1       3.905   2.501  28.424  0.00  0.00    +0.002 A 
ATOM     29  C   UNL     1       3.581   2.482  29.781  0.00  0.00    +0.004 A 
BRANCH  24   5
ATOM      5  O   UNL     1      -0.065   2.657  29.632  0.00  0.00    -0.493 OA
ATOM     35  C   UNL     1      -0.302   3.053  30.981  0.00  0.00    +0.277 C 
ENDBRANCH  24   5
ENDBRANCH   8  22
ENDBRANCH  15  17
ENDBRANCH  11  15
BRANCH  14  16
ATOM     16  C   UNL     1      -4.574  -0.171  24.516  0.00  0.00    +0.138 C 
BRANCH  16   9
ATOM      6  O   UNL     1      -2.805  -2.419  24.265  0.00  0.00    -0.270 OA
ATOM      9  N   UNL     1      -3.165  -0.127  24.252  0.00  0.00    -0.309 N 
ATOM     23  C   UNL     1      -2.382  -1.272  24.145  0.00  0.00    +0.244 C 
ATOM     40  H   UNL     1      -2.760   0.789  24.088  0.00  0.00    +0.149 HD
BRANCH  23  26
ATOM     26  C   UNL     1      -0.934  -1.057  23.894  0.00  0.00    +0.037 A 
ATOM     30  C   UNL     1       0.014  -1.609  24.756  0.00  0.00    +0.015 A 
ATOM     31  C   UNL     1      -0.521  -0.302  22.796  0.00  0.00    +0.015 A 
ATOM     32  C   UNL     1       1.374  -1.405  24.522  0.00  0.00    +0.024 A 
ATOM     33  C   UNL     1       0.839  -0.098  22.560  0.00  0.00    +0.024 A 
ATOM     34  C   UNL     1       1.786  -0.650  23.424  0.00  0.00    +0.029 A 
BRANCH  34  10
ATOM     10  N   UNL     1       3.161  -0.443  23.184  0.00  0.00    -0.336 N 
ATOM     36  C   UNL     1       4.146  -1.355  23.730  0.00  0.00    +0.129 C 
ATOM     37  C   UNL     1       3.606   0.688  22.394  0.00  0.00    +0.129 C 
ENDBRANCH  34  10
ENDBRANCH  23  26
ENDBRANCH  16   9
ENDBRANCH  14  16
TORSDOF 10
ENDMDL
