MODEL 1
REMARK VINA RESULT:       2.3      0.000      0.000
REMARK  Name = 11879569
REMARK  9 active torsions:
REMARK  status: ('A' for Active; 'I' for Inactive)
REMARK    1  A    between atoms: O_6  and  C_21
REMARK    2  A    between atoms: O_6  and  C_24
REMARK    3  A    between atoms: N_8  and  C_17
REMARK    4  A    between atoms: N_9  and  C_18
REMARK    5  A    between atoms: N_13  and  C_23
REMARK    6  A    between atoms: N_14  and  C_29
REMARK    7  A    between atoms: N_14  and  C_36
REMARK    8  A    between atoms: N_14  and  C_37
REMARK    9  A    between atoms: C_30  and  C_35
REMARK                            x       y       z     vdW  Elec       q    Type
REMARK                         _______ _______ _______ _____ _____    ______ ____
ROOT
ATOM      4  O   UNL     1      -2.627   4.111  26.921  0.00  0.00    -0.370 OA
ATOM      5  O   UNL     1      -3.159   5.027  23.959  0.00  0.00    -0.370 OA
ATOM     15  C   UNL     1      -3.455   3.830  24.703  0.00  0.00    +0.176 C 
ATOM     16  C   UNL     1      -2.283   3.579  25.632  0.00  0.00    +0.172 C 
ATOM     17  C   UNL     1      -4.633   4.075  25.627  0.00  0.00    +0.171 C 
ATOM     18  C   UNL     1      -1.148   4.370  25.023  0.00  0.00    +0.131 C 
ATOM     19  C   UNL     1      -3.971   4.610  26.892  0.00  0.00    +0.190 C 
ATOM     20  C   UNL     1      -1.876   5.525  24.362  0.00  0.00    +0.185 C 
ENDROOT
BRANCH  18   9
ATOM      7  O   UNL     1       0.597   2.163  25.563  0.00  0.00    -0.252 OA
ATOM      9  N   UNL     1      -0.424   3.585  24.053  0.00  0.00    -0.292 N 
ATOM     13  N   UNL     1       0.976   1.947  23.256  0.00  0.00    -0.269 N 
ATOM     22  C   UNL     1       0.411   2.517  24.402  0.00  0.00    +0.304 C 
ATOM     38  H   UNL     1      -0.578   3.773  23.066  0.00  0.00    +0.151 HD
ATOM     39  H   UNL     1       0.718   2.363  22.365  0.00  0.00    +0.156 HD
BRANCH  13  23
ATOM     23  C   UNL     1       1.869   0.854  23.182  0.00  0.00    +0.035 A 
ATOM     26  C   UNL     1       3.219   1.033  23.487  0.00  0.00    +0.035 A 
ATOM     27  C   UNL     1       1.401  -0.405  22.806  0.00  0.00    +0.023 A 
ATOM     30  C   UNL     1       4.100  -0.047  23.414  0.00  0.00    +0.057 A 
ATOM     32  C   UNL     1       2.282  -1.484  22.733  0.00  0.00    +0.002 A 
ATOM     34  C   UNL     1       3.631  -1.305  23.037  0.00  0.00    +0.012 A 
BRANCH  30  35
ATOM      1  F   UNL     1       6.385  -0.246  22.738  0.00  0.00    -0.166 F 
ATOM      2  F   UNL     1       5.877   1.444  23.999  0.00  0.00    -0.166 F 
ATOM      3  F   UNL     1       5.931  -0.560  24.841  0.00  0.00    -0.166 F 
ATOM     35  C   UNL     1       5.542   0.145  23.739  0.00  0.00    +0.417 C 
ENDBRANCH  30  35
ENDBRANCH  13  23
ENDBRANCH  18   9
BRANCH  17   8
ATOM      8  N   UNL     1      -5.458   2.879  25.816  0.00  0.00    -0.187 N 
ATOM     10  N   UNL     1      -6.500   2.883  26.660  0.00  0.00    -0.041 NA
ATOM     11  N   UNL     1      -6.295   0.882  25.696  0.00  0.00    -0.071 NA
ATOM     12  N   UNL     1      -7.008   1.659  26.581  0.00  0.00    -0.020 NA
ATOM     21  C   UNL     1      -5.341   1.658  25.233  0.00  0.00    +0.342 A 
BRANCH  21   6
ATOM      6  O   UNL     1      -4.414   1.329  24.354  0.00  0.00    -0.423 OA
BRANCH   6  24
ATOM     24  C   UNL     1      -3.783   0.093  24.360  0.00  0.00    +0.134 A 
ATOM     25  C   UNL     1      -2.598  -0.083  25.072  0.00  0.00    +0.069 A 
ATOM     28  C   UNL     1      -4.337  -0.975  23.652  0.00  0.00    +0.046 A 
ATOM     29  C   UNL     1      -1.964  -1.326  25.076  0.00  0.00    +0.033 A 
ATOM     31  C   UNL     1      -3.704  -2.218  23.657  0.00  0.00    +0.005 A 
ATOM     33  C   UNL     1      -2.517  -2.393  24.369  0.00  0.00    +0.023 A 
BRANCH  29  14
ATOM     14  N   UNL     1      -0.764  -1.504  25.796  0.00  0.00    -0.336 N 
ATOM     36  C   UNL     1      -0.466  -0.671  26.944  0.00  0.00    +0.129 C 
ATOM     37  C   UNL     1       0.180  -2.533  25.406  0.00  0.00    +0.129 C 
ENDBRANCH  29  14
ENDBRANCH   6  24
ENDBRANCH  21   6
ENDBRANCH  17   8
TORSDOF 7
ENDMDL
MODEL 2
REMARK VINA RESULT:       5.6      2.172      4.332
REMARK  Name = 11879569
REMARK  9 active torsions:
REMARK  status: ('A' for Active; 'I' for Inactive)
REMARK    1  A    between atoms: O_6  and  C_21
REMARK    2  A    between atoms: O_6  and  C_24
REMARK    3  A    between atoms: N_8  and  C_17
REMARK    4  A    between atoms: N_9  and  C_18
REMARK    5  A    between atoms: N_13  and  C_23
REMARK    6  A    between atoms: N_14  and  C_29
REMARK    7  A    between atoms: N_14  and  C_36
REMARK    8  A    between atoms: N_14  and  C_37
REMARK    9  A    between atoms: C_30  and  C_35
REMARK                            x       y       z     vdW  Elec       q    Type
REMARK                         _______ _______ _______ _____ _____    ______ ____
ROOT
ATOM      4  O   UNL     1      -4.517  -0.634  23.721  0.00  0.00    -0.370 OA
ATOM      5  O   UNL     1      -3.088  -0.570  26.523  0.00  0.00    -0.370 OA
ATOM     15  C   UNL     1      -3.113   0.323  25.394  0.00  0.00    +0.176 C 
ATOM     16  C   UNL     1      -3.148  -0.535  24.144  0.00  0.00    +0.172 C 
ATOM     17  C   UNL     1      -4.422   1.089  25.371  0.00  0.00    +0.171 C 
ATOM     18  C   UNL     1      -2.642  -1.884  24.603  0.00  0.00    +0.131 C 
ATOM     19  C   UNL     1      -5.342   0.172  24.573  0.00  0.00    +0.190 C 
ATOM     20  C   UNL     1      -3.096  -1.925  26.051  0.00  0.00    +0.185 C 
ENDROOT
BRANCH  18   9
ATOM      7  O   UNL     1      -0.922  -0.108  23.155  0.00  0.00    -0.252 OA
ATOM      9  N   UNL     1      -1.205  -1.965  24.504  0.00  0.00    -0.292 N 
ATOM     13  N   UNL     1       0.921  -1.382  23.858  0.00  0.00    -0.269 N 
ATOM     22  C   UNL     1      -0.436  -1.052  23.772  0.00  0.00    +0.304 C 
ATOM     38  H   UNL     1      -0.722  -2.679  25.042  0.00  0.00    +0.151 HD
ATOM     39  H   UNL     1       1.158  -2.201  24.412  0.00  0.00    +0.156 HD
BRANCH  13  23
ATOM     23  C   UNL     1       2.015  -0.711  23.264  0.00  0.00    +0.035 A 
ATOM     26  C   UNL     1       3.260  -0.711  23.894  0.00  0.00    +0.035 A 
ATOM     27  C   UNL     1       1.851  -0.052  22.046  0.00  0.00    +0.023 A 
ATOM     30  C   UNL     1       4.339  -0.049  23.308  0.00  0.00    +0.057 A 
ATOM     32  C   UNL     1       2.930   0.609  21.459  0.00  0.00    +0.002 A 
ATOM     34  C   UNL     1       4.174   0.610  22.090  0.00  0.00    +0.012 A 
BRANCH  30  35
ATOM      1  F   UNL     1       5.793  -1.007  24.947  0.00  0.00    -0.166 F 
ATOM      2  F   UNL     1       6.714  -0.263  23.130  0.00  0.00    -0.166 F 
ATOM      3  F   UNL     1       5.941   1.136  24.604  0.00  0.00    -0.166 F 
ATOM     35  C   UNL     1       5.668  -0.048  23.982  0.00  0.00    +0.417 C 
ENDBRANCH  30  35
ENDBRANCH  13  23
ENDBRANCH  18   9
BRANCH  17   8
ATOM      8  N   UNL     1      -4.272   2.442  24.831  0.00  0.00    -0.187 N 
ATOM     10  N   UNL     1      -4.926   2.822  23.723  0.00  0.00    -0.041 NA
ATOM     11  N   UNL     1      -3.684   4.503  24.501  0.00  0.00    -0.071 NA
ATOM     12  N   UNL     1      -4.562   4.084  23.527  0.00  0.00    -0.020 NA
ATOM     21  C   UNL     1      -3.519   3.472  25.297  0.00  0.00    +0.342 A 
BRANCH  21   6
ATOM      6  O   UNL     1      -2.757   3.420  26.372  0.00  0.00    -0.423 OA
BRANCH   6  24
ATOM     24  C   UNL     1      -1.422   3.041  26.324  0.00  0.00    +0.134 A 
ATOM     25  C   UNL     1      -0.655   3.037  27.488  0.00  0.00    +0.069 A 
ATOM     28  C   UNL     1      -0.848   2.665  25.109  0.00  0.00    +0.046 A 
ATOM     29  C   UNL     1       0.687   2.656  27.439  0.00  0.00    +0.033 A 
ATOM     31  C   UNL     1       0.493   2.283  25.060  0.00  0.00    +0.005 A 
ATOM     33  C   UNL     1       1.260   2.279  26.225  0.00  0.00    +0.023 A 
BRANCH  29  14
ATOM     14  N   UNL     1       1.463   2.652  28.616  0.00  0.00    -0.336 N 
ATOM     36  C   UNL     1       2.875   2.974  28.566  0.00  0.00    +0.129 C 
ATOM     37  C   UNL     1       0.855   2.339  29.895  0.00  0.00    +0.129 C 
ENDBRANCH  29  14
ENDBRANCH   6  24
ENDBRANCH  21   6
ENDBRANCH  17   8
TORSDOF 7
ENDMDL
MODEL 3
REMARK VINA RESULT:       5.9      1.889      4.090
REMARK  Name = 11879569
REMARK  9 active torsions:
REMARK  status: ('A' for Active; 'I' for Inactive)
REMARK    1  A    between atoms: O_6  and  C_21
REMARK    2  A    between atoms: O_6  and  C_24
REMARK    3  A    between atoms: N_8  and  C_17
REMARK    4  A    between atoms: N_9  and  C_18
REMARK    5  A    between atoms: N_13  and  C_23
REMARK    6  A    between atoms: N_14  and  C_29
REMARK    7  A    between atoms: N_14  and  C_36
REMARK    8  A    between atoms: N_14  and  C_37
REMARK    9  A    between atoms: C_30  and  C_35
REMARK                            x       y       z     vdW  Elec       q    Type
REMARK                         _______ _______ _______ _____ _____    ______ ____
ROOT
ATOM      4  O   UNL     1      -4.542  -0.567  23.507  0.00  0.00    -0.370 OA
ATOM      5  O   UNL     1      -3.563  -1.267  26.413  0.00  0.00    -0.370 OA
ATOM     15  C   UNL     1      -3.564  -0.064  25.622  0.00  0.00    +0.176 C 
ATOM     16  C   UNL     1      -3.281  -0.471  24.188  0.00  0.00    +0.172 C 
ATOM     17  C   UNL     1      -4.958   0.530  25.586  0.00  0.00    +0.171 C 
ATOM     18  C   UNL     1      -2.643  -1.836  24.306  0.00  0.00    +0.131 C 
ATOM     19  C   UNL     1      -5.598  -0.169  24.391  0.00  0.00    +0.190 C 
ATOM     20  C   UNL     1      -3.290  -2.389  25.563  0.00  0.00    +0.185 C 
ENDROOT
BRANCH  18   9
ATOM      7  O   UNL     1      -0.823  -0.512  22.533  0.00  0.00    -0.252 OA
ATOM      9  N   UNL     1      -1.211  -1.732  24.458  0.00  0.00    -0.292 N 
ATOM     13  N   UNL     1       0.946  -1.128  23.949  0.00  0.00    -0.269 N 
ATOM     22  C   UNL     1      -0.391  -1.064  23.542  0.00  0.00    +0.304 C 
ATOM     38  H   UNL     1      -0.786  -2.105  25.302  0.00  0.00    +0.151 HD
ATOM     39  H   UNL     1       1.135  -1.628  24.814  0.00  0.00    +0.156 HD
BRANCH  13  23
ATOM     23  C   UNL     1       2.077  -0.580  23.301  0.00  0.00    +0.035 A 
ATOM     26  C   UNL     1       3.312  -0.561  23.950  0.00  0.00    +0.035 A 
ATOM     27  C   UNL     1       1.959  -0.060  22.013  0.00  0.00    +0.023 A 
ATOM     30  C   UNL     1       4.428  -0.020  23.311  0.00  0.00    +0.057 A 
ATOM     32  C   UNL     1       3.075   0.480  21.373  0.00  0.00    +0.002 A 
ATOM     34  C   UNL     1       4.309   0.500  22.022  0.00  0.00    +0.012 A 
BRANCH  30  35
ATOM      1  F   UNL     1       6.027   1.192  24.612  0.00  0.00    -0.166 F 
ATOM      2  F   UNL     1       5.862  -0.937  24.992  0.00  0.00    -0.166 F 
ATOM      3  F   UNL     1       6.791  -0.232  23.157  0.00  0.00    -0.166 F 
ATOM     35  C   UNL     1       5.747   0.001  24.005  0.00  0.00    +0.417 C 
ENDBRANCH  30  35
ENDBRANCH  13  23
ENDBRANCH  18   9
BRANCH  17   8
ATOM      8  N   UNL     1      -4.946   1.993  25.516  0.00  0.00    -0.187 N 
ATOM     10  N   UNL     1      -5.817   2.728  26.223  0.00  0.00    -0.041 NA
ATOM     11  N   UNL     1      -4.475   4.054  25.034  0.00  0.00    -0.071 NA
ATOM     12  N   UNL     1      -5.524   3.987  25.923  0.00  0.00    -0.020 NA
ATOM     21  C   UNL     1      -4.133   2.808  24.796  0.00  0.00    +0.342 A 
BRANCH  21   6
ATOM      6  O   UNL     1      -3.168   2.395  23.997  0.00  0.00    -0.423 OA
BRANCH   6  24
ATOM     24  C   UNL     1      -1.826   2.467  24.346  0.00  0.00    +0.134 A 
ATOM     25  C   UNL     1      -1.455   2.527  25.688  0.00  0.00    +0.069 A 
ATOM     28  C   UNL     1      -0.848   2.478  23.350  0.00  0.00    +0.046 A 
ATOM     29  C   UNL     1      -0.106   2.600  26.036  0.00  0.00    +0.033 A 
ATOM     31  C   UNL     1       0.501   2.549  23.699  0.00  0.00    +0.005 A 
ATOM     33  C   UNL     1       0.872   2.611  25.042  0.00  0.00    +0.023 A 
BRANCH  29  14
ATOM     14  N   UNL     1       0.270   2.661  27.395  0.00  0.00    -0.336 N 
ATOM     36  C   UNL     1       1.670   2.692  27.769  0.00  0.00    +0.129 C 
ATOM     37  C   UNL     1      -0.740   2.709  28.434  0.00  0.00    +0.129 C 
ENDBRANCH  29  14
ENDBRANCH   6  24
ENDBRANCH  21   6
ENDBRANCH  17   8
TORSDOF 7
ENDMDL
