MODEL 1
REMARK VINA RESULT:       1.2      0.000      0.000
REMARK  Name = 51137783
REMARK  7 active torsions:
REMARK  status: ('A' for Active; 'I' for Inactive)
REMARK    1  A    between atoms: S_1  and  N_5
REMARK    2  A    between atoms: S_1  and  C_14
REMARK    3  A    between atoms: N_8  and  C_24
REMARK    4  A    between atoms: N_8  and  C_27
REMARK    5  A    between atoms: N_8  and  C_28
REMARK    6  A    between atoms: C_9  and  C_13
REMARK    7  A    between atoms: C_15  and  C_18
REMARK                            x       y       z     vdW  Elec       q    Type
REMARK                         _______ _______ _______ _____ _____    ______ ____
ROOT
ATOM      5  N   UNL     1      -4.702   3.544  25.616  0.00  0.00    -0.176 NA
ATOM      9  C   UNL     1      -4.869   1.762  23.990  0.00  0.00    +0.094 C 
ATOM     10  C   UNL     1      -5.997   1.661  25.018  0.00  0.00    +0.031 C 
ATOM     11  C   UNL     1      -4.320   3.180  24.220  0.00  0.00    +0.122 C 
ATOM     12  C   UNL     1      -5.463   2.425  26.221  0.00  0.00    +0.110 C 
ENDROOT
BRANCH   9  13
ATOM      2  O   UNL     1      -2.581   0.888  23.833  0.00  0.00    -0.420 OA
ATOM      6  N   UNL     1      -4.092  -0.630  24.477  0.00  0.00    -0.112 NA
ATOM      7  N   UNL     1      -2.858  -1.251  24.432  0.00  0.00    -0.107 NA
ATOM     13  C   UNL     1      -3.883   0.615  24.122  0.00  0.00    +0.222 A 
ATOM     15  C   UNL     1      -2.007  -0.327  24.051  0.00  0.00    +0.248 A 
BRANCH  15  18
ATOM     18  C   UNL     1      -0.591  -0.399  23.833  0.00  0.00    +0.039 A 
ATOM     22  C   UNL     1       0.003   0.383  22.842  0.00  0.00    +0.015 A 
ATOM     23  C   UNL     1       0.193  -1.249  24.613  0.00  0.00    +0.015 A 
ATOM     24  C   UNL     1       2.163  -0.538  23.410  0.00  0.00    +0.029 A 
ATOM     25  C   UNL     1       1.381   0.313  22.630  0.00  0.00    +0.024 A 
ATOM     26  C   UNL     1       1.569  -1.319  24.402  0.00  0.00    +0.024 A 
BRANCH  24   8
ATOM      8  N   UNL     1       3.556  -0.609  23.195  0.00  0.00    -0.336 N 
ATOM     27  C   UNL     1       4.335  -1.683  23.779  0.00  0.00    +0.129 C 
ATOM     28  C   UNL     1       4.227   0.396  22.395  0.00  0.00    +0.129 C 
ENDBRANCH  24   8
ENDBRANCH  15  18
ENDBRANCH   9  13
BRANCH   5   1
ATOM      1  S   UNL     1      -3.587   4.381  26.580  0.00  0.00    +0.061 S 
ATOM      3  O   UNL     1      -3.674   3.906  27.949  0.00  0.00    -0.153 OA
ATOM      4  O   UNL     1      -3.665   5.801  26.289  0.00  0.00    -0.153 OA
BRANCH   1  14
ATOM     14  C   UNL     1      -2.065   3.782  25.905  0.00  0.00    +0.105 A 
ATOM     16  C   UNL     1      -1.396   2.726  26.523  0.00  0.00    +0.028 A 
ATOM     17  C   UNL     1      -1.536   4.366  24.755  0.00  0.00    +0.028 A 
ATOM     19  C   UNL     1      -0.197   2.253  25.991  0.00  0.00    +0.002 A 
ATOM     20  C   UNL     1      -0.336   3.893  24.223  0.00  0.00    +0.002 A 
ATOM     21  C   UNL     1       0.334   2.837  24.841  0.00  0.00    +0.000 A 
ENDBRANCH   1  14
ENDBRANCH   5   1
TORSDOF 5
ENDMDL
MODEL 2
REMARK VINA RESULT:       1.2      0.048      1.292
REMARK  Name = 51137783
REMARK  7 active torsions:
REMARK  status: ('A' for Active; 'I' for Inactive)
REMARK    1  A    between atoms: S_1  and  N_5
REMARK    2  A    between atoms: S_1  and  C_14
REMARK    3  A    between atoms: N_8  and  C_24
REMARK    4  A    between atoms: N_8  and  C_27
REMARK    5  A    between atoms: N_8  and  C_28
REMARK    6  A    between atoms: C_9  and  C_13
REMARK    7  A    between atoms: C_15  and  C_18
REMARK                            x       y       z     vdW  Elec       q    Type
REMARK                         _______ _______ _______ _____ _____    ______ ____
ROOT
ATOM      5  N   UNL     1      -4.715   3.514  25.597  0.00  0.00    -0.176 NA
ATOM      9  C   UNL     1      -4.875   1.717  23.986  0.00  0.00    +0.094 C 
ATOM     10  C   UNL     1      -6.002   1.619  25.017  0.00  0.00    +0.031 C 
ATOM     11  C   UNL     1      -4.333   3.140  24.204  0.00  0.00    +0.122 C 
ATOM     12  C   UNL     1      -5.470   2.396  26.212  0.00  0.00    +0.110 C 
ENDROOT
BRANCH   9  13
ATOM      2  O   UNL     1      -2.582   0.852  23.837  0.00  0.00    -0.420 OA
ATOM      6  N   UNL     1      -4.087  -0.668  24.494  0.00  0.00    -0.112 NA
ATOM      7  N   UNL     1      -2.849  -1.283  24.453  0.00  0.00    -0.107 NA
ATOM     13  C   UNL     1      -3.883   0.576  24.128  0.00  0.00    +0.222 A 
ATOM     15  C   UNL     1      -2.002  -0.358  24.064  0.00  0.00    +0.248 A 
BRANCH  15  18
ATOM     18  C   UNL     1      -0.586  -0.425  23.846  0.00  0.00    +0.039 A 
ATOM     22  C   UNL     1       0.200  -1.275  24.624  0.00  0.00    +0.015 A 
ATOM     23  C   UNL     1       0.005   0.360  22.856  0.00  0.00    +0.015 A 
ATOM     24  C   UNL     1       2.168  -0.556  23.423  0.00  0.00    +0.029 A 
ATOM     25  C   UNL     1       1.578  -1.340  24.412  0.00  0.00    +0.024 A 
ATOM     26  C   UNL     1       1.382   0.295  22.645  0.00  0.00    +0.024 A 
BRANCH  24   8
ATOM      8  N   UNL     1       3.561  -0.621  23.210  0.00  0.00    -0.336 N 
ATOM     27  C   UNL     1       4.342  -1.698  23.787  0.00  0.00    +0.129 C 
ATOM     28  C   UNL     1       4.231   0.391  22.418  0.00  0.00    +0.129 C 
ENDBRANCH  24   8
ENDBRANCH  15  18
ENDBRANCH   9  13
BRANCH   5   1
ATOM      1  S   UNL     1      -3.603   4.364  26.553  0.00  0.00    +0.061 S 
ATOM      3  O   UNL     1      -3.667   3.880  27.920  0.00  0.00    -0.153 OA
ATOM      4  O   UNL     1      -3.709   5.784  26.272  0.00  0.00    -0.153 OA
BRANCH   1  14
ATOM     14  C   UNL     1      -2.080   3.795  25.858  0.00  0.00    +0.105 A 
ATOM     16  C   UNL     1      -1.571   4.395  24.707  0.00  0.00    +0.028 A 
ATOM     17  C   UNL     1      -1.387   2.746  26.462  0.00  0.00    +0.028 A 
ATOM     19  C   UNL     1      -0.369   3.947  24.158  0.00  0.00    +0.002 A 
ATOM     20  C   UNL     1      -0.186   2.298  25.914  0.00  0.00    +0.002 A 
ATOM     21  C   UNL     1       0.324   2.898  24.762  0.00  0.00    +0.000 A 
ENDBRANCH   1  14
ENDBRANCH   5   1
TORSDOF 5
ENDMDL
MODEL 3
REMARK VINA RESULT:       1.7      2.223      3.666
REMARK  Name = 51137783
REMARK  7 active torsions:
REMARK  status: ('A' for Active; 'I' for Inactive)
REMARK    1  A    between atoms: S_1  and  N_5
REMARK    2  A    between atoms: S_1  and  C_14
REMARK    3  A    between atoms: N_8  and  C_24
REMARK    4  A    between atoms: N_8  and  C_27
REMARK    5  A    between atoms: N_8  and  C_28
REMARK    6  A    between atoms: C_9  and  C_13
REMARK    7  A    between atoms: C_15  and  C_18
REMARK                            x       y       z     vdW  Elec       q    Type
REMARK                         _______ _______ _______ _____ _____    ______ ____
ROOT
ATOM      5  N   UNL     1      -4.789   2.991  25.355  0.00  0.00    -0.176 NA
ATOM      9  C   UNL     1      -2.478   3.482  24.837  0.00  0.00    +0.094 C 
ATOM     10  C   UNL     1      -3.414   4.398  24.046  0.00  0.00    +0.031 C 
ATOM     11  C   UNL     1      -3.406   2.882  25.907  0.00  0.00    +0.122 C 
ATOM     12  C   UNL     1      -4.732   3.638  24.022  0.00  0.00    +0.110 C 
ENDROOT
BRANCH   9  13
ATOM      2  O   UNL     1      -0.467   2.196  24.260  0.00  0.00    -0.420 OA
ATOM      6  N   UNL     1      -2.179   1.887  22.853  0.00  0.00    -0.112 NA
ATOM      7  N   UNL     1      -1.122   1.112  22.415  0.00  0.00    -0.107 NA
ATOM     13  C   UNL     1      -1.753   2.502  23.932  0.00  0.00    +0.222 A 
ATOM     15  C   UNL     1      -0.145   1.324  23.267  0.00  0.00    +0.248 A 
BRANCH  15  18
ATOM     18  C   UNL     1       1.185   0.788  23.310  0.00  0.00    +0.039 A 
ATOM     22  C   UNL     1       1.380  -0.577  23.522  0.00  0.00    +0.015 A 
ATOM     23  C   UNL     1       2.283   1.631  23.139  0.00  0.00    +0.015 A 
ATOM     24  C   UNL     1       3.771  -0.255  23.394  0.00  0.00    +0.029 A 
ATOM     25  C   UNL     1       2.674  -1.098  23.565  0.00  0.00    +0.024 A 
ATOM     26  C   UNL     1       3.576   1.110  23.182  0.00  0.00    +0.024 A 
BRANCH  24   8
ATOM      8  N   UNL     1       5.079  -0.782  23.438  0.00  0.00    -0.336 N 
ATOM     27  C   UNL     1       5.302  -2.157  23.841  0.00  0.00    +0.129 C 
ATOM     28  C   UNL     1       6.216   0.045  23.089  0.00  0.00    +0.129 C 
ENDBRANCH  24   8
ENDBRANCH  15  18
ENDBRANCH   9  13
BRANCH   5   1
ATOM      1  S   UNL     1      -5.868   1.705  25.586  0.00  0.00    +0.061 S 
ATOM      3  O   UNL     1      -6.891   1.737  24.557  0.00  0.00    -0.153 OA
ATOM      4  O   UNL     1      -6.240   1.631  26.988  0.00  0.00    -0.153 OA
BRANCH   1  14
ATOM     14  C   UNL     1      -4.810   0.331  25.242  0.00  0.00    +0.105 A 
ATOM     16  C   UNL     1      -4.707  -0.162  23.942  0.00  0.00    +0.028 A 
ATOM     17  C   UNL     1      -4.079  -0.261  26.272  0.00  0.00    +0.028 A 
ATOM     19  C   UNL     1      -3.872  -1.245  23.670  0.00  0.00    +0.002 A 
ATOM     20  C   UNL     1      -3.244  -1.344  26.001  0.00  0.00    +0.002 A 
ATOM     21  C   UNL     1      -3.140  -1.837  24.699  0.00  0.00    +0.000 A 
ENDBRANCH   1  14
ENDBRANCH   5   1
TORSDOF 5
ENDMDL
MODEL 4
REMARK VINA RESULT:       4.3      2.168      3.834
REMARK  Name = 51137783
REMARK  7 active torsions:
REMARK  status: ('A' for Active; 'I' for Inactive)
REMARK    1  A    between atoms: S_1  and  N_5
REMARK    2  A    between atoms: S_1  and  C_14
REMARK    3  A    between atoms: N_8  and  C_24
REMARK    4  A    between atoms: N_8  and  C_27
REMARK    5  A    between atoms: N_8  and  C_28
REMARK    6  A    between atoms: C_9  and  C_13
REMARK    7  A    between atoms: C_15  and  C_18
REMARK                            x       y       z     vdW  Elec       q    Type
REMARK                         _______ _______ _______ _____ _____    ______ ____
ROOT
ATOM      5  N   UNL     1      -5.530   2.875  24.635  0.00  0.00    -0.176 NA
ATOM      9  C   UNL     1      -3.631   4.335  24.971  0.00  0.00    +0.094 C 
ATOM     10  C   UNL     1      -3.871   4.096  23.479  0.00  0.00    +0.031 C 
ATOM     11  C   UNL     1      -4.935   3.833  25.613  0.00  0.00    +0.122 C 
ATOM     12  C   UNL     1      -4.657   2.794  23.440  0.00  0.00    +0.110 C 
ENDROOT
BRANCH   9  13
ATOM      2  O   UNL     1      -1.597   3.041  24.504  0.00  0.00    -0.420 OA
ATOM      6  N   UNL     1      -1.816   3.649  26.646  0.00  0.00    -0.112 NA
ATOM      7  N   UNL     1      -0.639   2.934  26.524  0.00  0.00    -0.107 NA
ATOM     13  C   UNL     1      -2.341   3.687  25.443  0.00  0.00    +0.222 A 
ATOM     15  C   UNL     1      -0.554   2.599  25.257  0.00  0.00    +0.248 A 
BRANCH  15  18
ATOM     18  C   UNL     1       0.453   1.854  24.558  0.00  0.00    +0.039 A 
ATOM     22  C   UNL     1       0.271   0.492  24.316  0.00  0.00    +0.015 A 
ATOM     23  C   UNL     1       1.613   2.491  24.118  0.00  0.00    +0.015 A 
ATOM     24  C   UNL     1       2.410   0.405  23.197  0.00  0.00    +0.029 A 
ATOM     25  C   UNL     1       1.250  -0.233  23.635  0.00  0.00    +0.024 A 
ATOM     26  C   UNL     1       2.592   1.766  23.438  0.00  0.00    +0.024 A 
BRANCH  24   8
ATOM      8  N   UNL     1       3.400  -0.329  22.510  0.00  0.00    -0.336 N 
ATOM     27  C   UNL     1       3.707  -0.029  21.125  0.00  0.00    +0.129 C 
ATOM     28  C   UNL     1       4.117  -1.397  23.176  0.00  0.00    +0.129 C 
ENDBRANCH  24   8
ENDBRANCH  15  18
ENDBRANCH   9  13
BRANCH   5   1
ATOM      1  S   UNL     1      -6.248   1.453  25.213  0.00  0.00    +0.061 S 
ATOM      3  O   UNL     1      -7.322   1.054  24.322  0.00  0.00    -0.153 OA
ATOM      4  O   UNL     1      -6.486   1.575  26.640  0.00  0.00    -0.153 OA
BRANCH   1  14
ATOM     14  C   UNL     1      -4.919   0.308  24.990  0.00  0.00    +0.105 A 
ATOM     16  C   UNL     1      -3.748   0.444  25.736  0.00  0.00    +0.028 A 
ATOM     17  C   UNL     1      -5.042  -0.731  24.068  0.00  0.00    +0.028 A 
ATOM     19  C   UNL     1      -2.700  -0.459  25.561  0.00  0.00    +0.002 A 
ATOM     20  C   UNL     1      -3.994  -1.635  23.892  0.00  0.00    +0.002 A 
ATOM     21  C   UNL     1      -2.822  -1.499  24.639  0.00  0.00    +0.000 A 
ENDBRANCH   1  14
ENDBRANCH   5   1
TORSDOF 5
ENDMDL
