MODEL 1
REMARK VINA RESULT:       4.0      0.000      0.000
REMARK  Name = 7674709
REMARK  4 active torsions:
REMARK  status: ('A' for Active; 'I' for Inactive)
REMARK    1  A    between atoms: O_7  and  C_31
REMARK    2  A    between atoms: O_7  and  C_32
REMARK    3  A    between atoms: C_19  and  C_22
REMARK    4  A    between atoms: C_20  and  C_23
REMARK                            x       y       z     vdW  Elec       q    Type
REMARK                         _______ _______ _______ _____ _____    ______ ____
ROOT
ATOM      5  O   UNL     1      12.660 -10.605  30.724  0.00  0.00    -0.267 OA
ATOM      6  O   UNL     1      16.892  -8.601  32.758  0.00  0.00    -0.269 OA
ATOM      8  N   UNL     1      16.900  -8.021  30.492  0.00  0.00    -0.296 N 
ATOM      9  N   UNL     1      14.129  -9.217  29.561  0.00  0.00    -0.311 N 
ATOM     10  C   UNL     1      16.512  -9.934  28.951  0.00  0.00    +0.027 C 
ATOM     11  C   UNL     1      15.712  -7.688  28.337  0.00  0.00    +0.054 C 
ATOM     12  C   UNL     1      16.357  -8.959  27.788  0.00  0.00    +0.018 C 
ATOM     13  C   UNL     1      17.401  -9.323  30.049  0.00  0.00    +0.113 C 
ATOM     14  C   UNL     1      15.117 -10.302  29.474  0.00  0.00    +0.130 C 
ATOM     15  C   UNL     1      16.630  -7.063  29.408  0.00  0.00    +0.117 C 
ATOM     16  C   UNL     1      14.354  -7.983  28.945  0.00  0.00    +0.027 A 
ATOM     17  C   UNL     1      13.389  -7.049  28.930  0.00  0.00    +0.022 A 
ATOM     18  C   UNL     1      12.911  -9.518  30.200  0.00  0.00    +0.259 A 
ATOM     19  C   UNL     1      16.668  -7.801  31.851  0.00  0.00    +0.253 C 
ATOM     20  C   UNL     1      11.866  -8.436  30.209  0.00  0.00    +0.047 A 
ATOM     21  C   UNL     1      12.129  -7.281  29.577  0.00  0.00    +0.015 A 
ENDROOT
BRANCH  20  23
ATOM     23  C   UNL     1      10.582  -8.619  30.906  0.00  0.00    -0.012 A 
ATOM     25  C   UNL     1       9.831  -9.776  30.695  0.00  0.00    +0.012 A 
ATOM     26  C   UNL     1      10.116  -7.635  31.778  0.00  0.00    +0.012 A 
ATOM     29  C   UNL     1       8.616  -9.949  31.357  0.00  0.00    +0.046 A 
ATOM     30  C   UNL     1       8.899  -7.808  32.440  0.00  0.00    +0.046 A 
ATOM     31  C   UNL     1       8.150  -8.965  32.228  0.00  0.00    +0.130 A 
BRANCH  31   7
ATOM      7  O   UNL     1       6.963  -9.134  32.873  0.00  0.00    -0.406 OA
BRANCH   7  32
ATOM      2  F   UNL     1       4.682  -9.086  32.702  0.00  0.00    -0.133 F 
ATOM      3  F   UNL     1       5.900  -8.379  31.030  0.00  0.00    -0.133 F 
ATOM      4  F   UNL     1       5.782  -7.175  32.849  0.00  0.00    -0.133 F 
ATOM     32  C   UNL     1       5.822  -8.439  32.378  0.00  0.00    +0.575 C 
ENDBRANCH   7  32
ENDBRANCH  31   7
ENDBRANCH  20  23
BRANCH  19  22
ATOM      1  S   UNL     1      17.108  -5.164  32.440  0.00  0.00    -0.092 S 
ATOM     22  C   UNL     1      16.082  -6.517  32.251  0.00  0.00    +0.074 A 
ATOM     24  C   UNL     1      14.766  -6.219  32.511  0.00  0.00    +0.021 A 
ATOM     27  C   UNL     1      14.594  -4.851  32.873  0.00  0.00    +0.008 A 
ATOM     28  C   UNL     1      15.787  -4.163  32.873  0.00  0.00    +0.046 A 
ENDBRANCH  19  22
TORSDOF 4
ENDMDL
MODEL 2
REMARK VINA RESULT:       4.2     15.443     19.459
REMARK  Name = 7674709
REMARK  4 active torsions:
REMARK  status: ('A' for Active; 'I' for Inactive)
REMARK    1  A    between atoms: O_7  and  C_31
REMARK    2  A    between atoms: O_7  and  C_32
REMARK    3  A    between atoms: C_19  and  C_22
REMARK    4  A    between atoms: C_20  and  C_23
REMARK                            x       y       z     vdW  Elec       q    Type
REMARK                         _______ _______ _______ _____ _____    ______ ____
ROOT
ATOM      5  O   UNL     1      -0.018   2.432  25.481  0.00  0.00    -0.267 OA
ATOM      6  O   UNL     1      -3.893  -0.444  27.144  0.00  0.00    -0.269 OA
ATOM      8  N   UNL     1      -4.799   1.081  25.619  0.00  0.00    -0.296 N 
ATOM      9  N   UNL     1      -2.189   2.569  24.643  0.00  0.00    -0.311 N 
ATOM     10  C   UNL     1      -4.152   3.445  26.038  0.00  0.00    +0.027 C 
ATOM     11  C   UNL     1      -4.535   2.673  23.731  0.00  0.00    +0.054 C 
ATOM     12  C   UNL     1      -4.749   3.842  24.692  0.00  0.00    +0.018 C 
ATOM     13  C   UNL     1      -4.845   2.183  26.581  0.00  0.00    +0.113 C 
ATOM     14  C   UNL     1      -2.640   3.247  25.867  0.00  0.00    +0.130 C 
ATOM     15  C   UNL     1      -5.266   1.424  24.266  0.00  0.00    +0.117 C 
ATOM     16  C   UNL     1      -3.059   2.364  23.568  0.00  0.00    +0.027 A 
ATOM     17  C   UNL     1      -2.598   1.855  22.414  0.00  0.00    +0.022 A 
ATOM     18  C   UNL     1      -0.823   2.236  24.569  0.00  0.00    +0.259 A 
ATOM     19  C   UNL     1      -4.285  -0.156  26.014  0.00  0.00    +0.253 C 
ATOM     20  C   UNL     1      -0.345   1.624  23.280  0.00  0.00    +0.047 A 
ATOM     21  C   UNL     1      -1.220   1.476  22.274  0.00  0.00    +0.015 A 
ENDROOT
BRANCH  20  23
ATOM     23  C   UNL     1       1.048   1.176  23.118  0.00  0.00    -0.012 A 
ATOM     25  C   UNL     1       2.090   2.102  23.169  0.00  0.00    +0.012 A 
ATOM     26  C   UNL     1       1.326  -0.176  22.914  0.00  0.00    +0.012 A 
ATOM     29  C   UNL     1       3.409   1.677  23.015  0.00  0.00    +0.046 A 
ATOM     30  C   UNL     1       2.647  -0.601  22.760  0.00  0.00    +0.046 A 
ATOM     31  C   UNL     1       3.687   0.326  22.811  0.00  0.00    +0.130 A 
BRANCH  31   7
ATOM      7  O   UNL     1       4.975  -0.088  22.660  0.00  0.00    -0.406 OA
BRANCH   7  32
ATOM      2  F   UNL     1       5.412  -1.392  24.488  0.00  0.00    -0.133 F 
ATOM      3  F   UNL     1       5.565   0.782  24.658  0.00  0.00    -0.133 F 
ATOM      4  F   UNL     1       7.081  -0.310  23.525  0.00  0.00    -0.133 F 
ATOM     32  C   UNL     1       5.767  -0.268  23.830  0.00  0.00    +0.575 C 
ENDBRANCH   7  32
ENDBRANCH  31   7
ENDBRANCH  20  23
BRANCH  19  22
ATOM      1  S   UNL     1      -3.209  -2.582  25.341  0.00  0.00    -0.092 S 
ATOM     22  C   UNL     1      -4.171  -1.210  25.001  0.00  0.00    +0.074 A 
ATOM     24  C   UNL     1      -4.746  -1.269  23.755  0.00  0.00    +0.021 A 
ATOM     27  C   UNL     1      -4.392  -2.464  23.063  0.00  0.00    +0.008 A 
ATOM     28  C   UNL     1      -3.561  -3.267  23.812  0.00  0.00    +0.046 A 
ENDBRANCH  19  22
TORSDOF 4
ENDMDL
