MODEL 1
REMARK VINA RESULT:      -0.8      0.000      0.000
REMARK  Name = 40777601
REMARK  9 active torsions:
REMARK  status: ('A' for Active; 'I' for Inactive)
REMARK    1  A    between atoms: N_2  and  C_8
REMARK    2  A    between atoms: N_3  and  C_15
REMARK    3  A    between atoms: N_5  and  C_19
REMARK    4  A    between atoms: C_6  and  C_9
REMARK    5  A    between atoms: C_12  and  C_14
REMARK    6  A    between atoms: C_13  and  C_16
REMARK    7  A    between atoms: C_15  and  C_18
REMARK    8  A    between atoms: C_19  and  C_22
REMARK    9  A    between atoms: C_19  and  C_23
REMARK                            x       y       z     vdW  Elec       q    Type
REMARK                         _______ _______ _______ _____ _____    ______ ____
ROOT
ATOM      6  C   UNL     1      -2.157   0.312  24.889  0.00  0.00    +0.047 C 
ATOM      7  C   UNL     1      -3.386   0.420  23.963  0.00  0.00    +0.039 C 
ATOM      8  C   UNL     1      -4.574  -0.100  24.781  0.00  0.00    +0.098 C 
ATOM     10  C   UNL     1      -2.596  -0.715  25.890  0.00  0.00    -0.021 C 
ATOM     11  C   UNL     1      -3.914  -0.934  25.830  0.00  0.00    -0.009 C 
ENDROOT
BRANCH   6   9
ATOM      3  N   UNL     1       1.006   0.067  23.057  0.00  0.00    -0.264 N 
ATOM      4  N   UNL     1       0.788  -1.253  23.189  0.00  0.00    -0.176 NA
ATOM      9  C   UNL     1      -0.882  -0.028  24.152  0.00  0.00    +0.003 A 
ATOM     12  C   UNL     1       0.034   0.844  23.616  0.00  0.00    +0.041 A 
ATOM     13  C   UNL     1      -0.366  -1.304  23.859  0.00  0.00    +0.064 A 
ATOM     14  C   UNL     1       0.074   2.319  23.587  0.00  0.00    +0.065 C 
ATOM     16  C   UNL     1      -0.947  -2.614  24.201  0.00  0.00    +0.068 C 
BRANCH   3  15
ATOM     15  C   UNL     1       2.192   0.521  22.368  0.00  0.00    +0.178 C 
BRANCH  15  18
ATOM     18  C   UNL     1       3.474   0.057  23.017  0.00  0.00    -0.026 A 
ATOM     20  C   UNL     1       3.590  -1.256  23.470  0.00  0.00    +0.005 A 
ATOM     21  C   UNL     1       4.540   0.943  23.162  0.00  0.00    +0.005 A 
ATOM     24  C   UNL     1       4.775  -1.684  24.069  0.00  0.00    +0.000 A 
ATOM     25  C   UNL     1       5.725   0.515  23.761  0.00  0.00    +0.000 A 
ATOM     26  C   UNL     1       5.842  -0.799  24.215  0.00  0.00    +0.000 A 
ENDBRANCH  15  18
ENDBRANCH   3  15
ENDBRANCH   6   9
BRANCH   8   2
ATOM      1  O   UNL     1      -3.892   2.703  24.863  0.00  0.00    -0.253 OA
ATOM      2  N   UNL     1      -5.318   0.956  25.416  0.00  0.00    -0.293 N 
ATOM      5  N   UNL     1      -5.815   3.101  26.098  0.00  0.00    -0.297 N 
ATOM     17  C   UNL     1      -4.914   2.292  25.409  0.00  0.00    +0.300 C 
ATOM     27  H   UNL     1      -6.155   0.717  25.941  0.00  0.00    +0.151 HD
ATOM     28  H   UNL     1      -6.671   2.680  26.449  0.00  0.00    +0.150 HD
BRANCH   5  19
ATOM     19  C   UNL     1      -5.636   4.526  26.241  0.00  0.00    +0.068 C 
ATOM     22  C   UNL     1      -6.333   5.264  25.106  0.00  0.00    +0.027 C 
ATOM     23  C   UNL     1      -4.154   4.876  26.300  0.00  0.00    +0.027 C 
ENDBRANCH   5  19
ENDBRANCH   8   2
TORSDOF 5
ENDMDL
MODEL 2
REMARK VINA RESULT:      -0.1      2.201      8.363
REMARK  Name = 40777601
REMARK  9 active torsions:
REMARK  status: ('A' for Active; 'I' for Inactive)
REMARK    1  A    between atoms: N_2  and  C_8
REMARK    2  A    between atoms: N_3  and  C_15
REMARK    3  A    between atoms: N_5  and  C_19
REMARK    4  A    between atoms: C_6  and  C_9
REMARK    5  A    between atoms: C_12  and  C_14
REMARK    6  A    between atoms: C_13  and  C_16
REMARK    7  A    between atoms: C_15  and  C_18
REMARK    8  A    between atoms: C_19  and  C_22
REMARK    9  A    between atoms: C_19  and  C_23
REMARK                            x       y       z     vdW  Elec       q    Type
REMARK                         _______ _______ _______ _____ _____    ______ ____
ROOT
ATOM      6  C   UNL     1      -0.474  -0.424  24.530  0.00  0.00    +0.047 C 
ATOM      7  C   UNL     1       0.014  -0.915  23.152  0.00  0.00    +0.039 C 
ATOM      8  C   UNL     1       1.249  -0.068  22.820  0.00  0.00    +0.098 C 
ATOM     10  C   UNL     1       0.128   0.948  24.617  0.00  0.00    -0.021 C 
ATOM     11  C   UNL     1       1.069   1.136  23.685  0.00  0.00    -0.009 C 
ENDROOT
BRANCH   6   9
ATOM      3  N   UNL     1      -4.074   0.044  25.024  0.00  0.00    -0.264 N 
ATOM      4  N   UNL     1      -4.117  -1.264  24.719  0.00  0.00    -0.176 NA
ATOM      9  C   UNL     1      -1.977  -0.465  24.680  0.00  0.00    +0.003 A 
ATOM     12  C   UNL     1      -2.815   0.570  25.015  0.00  0.00    +0.041 A 
ATOM     13  C   UNL     1      -2.834  -1.569  24.510  0.00  0.00    +0.064 A 
ATOM     14  C   UNL     1      -2.538   1.987  25.321  0.00  0.00    +0.065 C 
ATOM     16  C   UNL     1      -2.468  -2.949  24.144  0.00  0.00    +0.068 C 
BRANCH   3  15
ATOM     15  C   UNL     1      -5.304   0.741  25.320  0.00  0.00    +0.178 C 
BRANCH  15  18
ATOM     18  C   UNL     1      -5.222   2.228  25.074  0.00  0.00    -0.026 A 
ATOM     20  C   UNL     1      -5.828   3.115  25.962  0.00  0.00    +0.005 A 
ATOM     21  C   UNL     1      -4.540   2.714  23.960  0.00  0.00    +0.005 A 
ATOM     24  C   UNL     1      -5.752   4.490  25.736  0.00  0.00    +0.000 A 
ATOM     25  C   UNL     1      -4.464   4.088  23.733  0.00  0.00    +0.000 A 
ATOM     26  C   UNL     1      -5.071   4.976  24.621  0.00  0.00    +0.000 A 
ENDBRANCH  15  18
ENDBRANCH   3  15
ENDBRANCH   6   9
BRANCH   8   2
ATOM      1  O   UNL     1       3.837   1.166  23.152  0.00  0.00    -0.253 OA
ATOM      2  N   UNL     1       2.483  -0.721  23.171  0.00  0.00    -0.293 N 
ATOM      5  N   UNL     1       4.729  -0.916  23.653  0.00  0.00    -0.297 N 
ATOM     17  C   UNL     1       3.697  -0.045  23.311  0.00  0.00    +0.300 C 
ATOM     27  H   UNL     1       2.489  -1.732  23.275  0.00  0.00    +0.151 HD
ATOM     28  H   UNL     1       4.499  -1.889  23.837  0.00  0.00    +0.150 HD
BRANCH   5  19
ATOM     19  C   UNL     1       6.088  -0.476  23.860  0.00  0.00    +0.068 C 
ATOM     22  C   UNL     1       6.112   0.983  24.294  0.00  0.00    +0.027 C 
ATOM     23  C   UNL     1       6.917  -0.691  22.599  0.00  0.00    +0.027 C 
ENDBRANCH   5  19
ENDBRANCH   8   2
TORSDOF 5
ENDMDL
MODEL 3
REMARK VINA RESULT:       0.1      0.712      1.745
REMARK  Name = 40777601
REMARK  9 active torsions:
REMARK  status: ('A' for Active; 'I' for Inactive)
REMARK    1  A    between atoms: N_2  and  C_8
REMARK    2  A    between atoms: N_3  and  C_15
REMARK    3  A    between atoms: N_5  and  C_19
REMARK    4  A    between atoms: C_6  and  C_9
REMARK    5  A    between atoms: C_12  and  C_14
REMARK    6  A    between atoms: C_13  and  C_16
REMARK    7  A    between atoms: C_15  and  C_18
REMARK    8  A    between atoms: C_19  and  C_22
REMARK    9  A    between atoms: C_19  and  C_23
REMARK                            x       y       z     vdW  Elec       q    Type
REMARK                         _______ _______ _______ _____ _____    ______ ____
ROOT
ATOM      6  C   UNL     1      -2.078   0.913  24.784  0.00  0.00    +0.047 C 
ATOM      7  C   UNL     1      -3.198   0.948  23.725  0.00  0.00    +0.039 C 
ATOM      8  C   UNL     1      -4.400   0.241  24.363  0.00  0.00    +0.098 C 
ATOM     10  C   UNL     1      -2.502  -0.225  25.665  0.00  0.00    -0.021 C 
ATOM     11  C   UNL     1      -3.769  -0.586  25.435  0.00  0.00    -0.009 C 
ENDROOT
BRANCH   6   9
ATOM      3  N   UNL     1       1.128   0.008  23.259  0.00  0.00    -0.264 N 
ATOM      4  N   UNL     1       1.403   1.307  23.467  0.00  0.00    -0.176 NA
ATOM      9  C   UNL     1      -0.697   0.771  24.188  0.00  0.00    +0.003 A 
ATOM     12  C   UNL     1      -0.118  -0.363  23.674  0.00  0.00    +0.041 A 
ATOM     13  C   UNL     1       0.286   1.768  24.034  0.00  0.00    +0.064 A 
ATOM     14  C   UNL     1      -0.627  -1.742  23.540  0.00  0.00    +0.065 C 
ATOM     16  C   UNL     1       0.201   3.187  24.419  0.00  0.00    +0.068 C 
BRANCH   3  15
ATOM     15  C   UNL     1       2.126  -0.836  22.645  0.00  0.00    +0.178 C 
BRANCH  15  18
ATOM     18  C   UNL     1       3.526  -0.560  23.137  0.00  0.00    -0.026 A 
ATOM     20  C   UNL     1       4.234  -1.551  23.816  0.00  0.00    +0.005 A 
ATOM     21  C   UNL     1       4.111   0.685  22.911  0.00  0.00    +0.005 A 
ATOM     24  C   UNL     1       5.528  -1.296  24.270  0.00  0.00    +0.000 A 
ATOM     25  C   UNL     1       5.406   0.939  23.365  0.00  0.00    +0.000 A 
ATOM     26  C   UNL     1       6.114  -0.051  24.045  0.00  0.00    +0.000 A 
ENDBRANCH  15  18
ENDBRANCH   3  15
ENDBRANCH   6   9
BRANCH   8   2
ATOM      1  O   UNL     1      -3.964   3.036  24.939  0.00  0.00    -0.253 OA
ATOM      2  N   UNL     1      -5.332   1.159  24.963  0.00  0.00    -0.293 N 
ATOM      5  N   UNL     1      -6.116   3.160  25.797  0.00  0.00    -0.297 N 
ATOM     17  C   UNL     1      -5.038   2.502  25.209  0.00  0.00    +0.300 C 
ATOM     27  H   UNL     1      -6.235   0.808  25.272  0.00  0.00    +0.151 HD
ATOM     28  H   UNL     1      -6.988   2.652  25.910  0.00  0.00    +0.150 HD
BRANCH   5  19
ATOM     19  C   UNL     1      -6.078   4.558  26.154  0.00  0.00    +0.068 C 
ATOM     22  C   UNL     1      -6.636   5.410  25.022  0.00  0.00    +0.027 C 
ATOM     23  C   UNL     1      -4.658   4.980  26.515  0.00  0.00    +0.027 C 
ENDBRANCH   5  19
ENDBRANCH   8   2
TORSDOF 5
ENDMDL
MODEL 4
REMARK VINA RESULT:       2.5      1.602      2.666
REMARK  Name = 40777601
REMARK  9 active torsions:
REMARK  status: ('A' for Active; 'I' for Inactive)
REMARK    1  A    between atoms: N_2  and  C_8
REMARK    2  A    between atoms: N_3  and  C_15
REMARK    3  A    between atoms: N_5  and  C_19
REMARK    4  A    between atoms: C_6  and  C_9
REMARK    5  A    between atoms: C_12  and  C_14
REMARK    6  A    between atoms: C_13  and  C_16
REMARK    7  A    between atoms: C_15  and  C_18
REMARK    8  A    between atoms: C_19  and  C_22
REMARK    9  A    between atoms: C_19  and  C_23
REMARK                            x       y       z     vdW  Elec       q    Type
REMARK                         _______ _______ _______ _____ _____    ______ ____
ROOT
ATOM      6  C   UNL     1      -1.225   1.907  24.331  0.00  0.00    +0.047 C 
ATOM      7  C   UNL     1      -1.228   1.943  25.873  0.00  0.00    +0.039 C 
ATOM      8  C   UNL     1      -1.500   3.403  26.257  0.00  0.00    +0.098 C 
ATOM     10  C   UNL     1      -0.946   3.338  23.975  0.00  0.00    -0.021 C 
ATOM     11  C   UNL     1      -1.101   4.150  25.027  0.00  0.00    -0.009 C 
ENDROOT
BRANCH   6   9
ATOM      3  N   UNL     1       1.467  -0.040  22.788  0.00  0.00    -0.264 N 
ATOM      4  N   UNL     1       0.708  -1.081  23.170  0.00  0.00    -0.176 NA
ATOM      9  C   UNL     1      -0.243   0.911  23.759  0.00  0.00    +0.003 A 
ATOM     12  C   UNL     1       0.941   1.176  23.117  0.00  0.00    +0.041 A 
ATOM     13  C   UNL     1      -0.335  -0.494  23.763  0.00  0.00    +0.064 A 
ATOM     14  C   UNL     1       1.610   2.450  22.793  0.00  0.00    +0.065 C 
ATOM     16  C   UNL     1      -1.412  -1.327  24.326  0.00  0.00    +0.068 C 
BRANCH   3  15
ATOM     15  C   UNL     1       2.711  -0.289  22.097  0.00  0.00    +0.178 C 
BRANCH  15  18
ATOM     18  C   UNL     1       3.910  -0.305  23.014  0.00  0.00    -0.026 A 
ATOM     20  C   UNL     1       4.671   0.850  23.186  0.00  0.00    +0.005 A 
ATOM     21  C   UNL     1       4.257  -1.476  23.688  0.00  0.00    +0.005 A 
ATOM     24  C   UNL     1       5.780   0.835  24.033  0.00  0.00    +0.000 A 
ATOM     25  C   UNL     1       5.365  -1.491  24.535  0.00  0.00    +0.000 A 
ATOM     26  C   UNL     1       6.127  -0.335  24.707  0.00  0.00    +0.000 A 
ENDBRANCH  15  18
ENDBRANCH   3  15
ENDBRANCH   6   9
BRANCH   8   2
ATOM      1  O   UNL     1      -3.762   1.833  25.391  0.00  0.00    -0.253 OA
ATOM      2  N   UNL     1      -2.889   3.657  26.534  0.00  0.00    -0.293 N 
ATOM      5  N   UNL     1      -5.169   3.319  26.484  0.00  0.00    -0.297 N 
ATOM     17  C   UNL     1      -3.925   2.843  26.073  0.00  0.00    +0.300 C 
ATOM     27  H   UNL     1      -3.140   4.497  27.049  0.00  0.00    +0.151 HD
ATOM     28  H   UNL     1      -5.197   4.119  27.110  0.00  0.00    +0.150 HD
BRANCH   5  19
ATOM     19  C   UNL     1      -6.409   2.663  26.144  0.00  0.00    +0.068 C 
ATOM     22  C   UNL     1      -6.710   1.551  27.141  0.00  0.00    +0.027 C 
ATOM     23  C   UNL     1      -6.358   2.128  24.718  0.00  0.00    +0.027 C 
ENDBRANCH   5  19
ENDBRANCH   8   2
TORSDOF 5
ENDMDL
MODEL 5
REMARK VINA RESULT:       2.7      2.607      8.621
REMARK  Name = 40777601
REMARK  9 active torsions:
REMARK  status: ('A' for Active; 'I' for Inactive)
REMARK    1  A    between atoms: N_2  and  C_8
REMARK    2  A    between atoms: N_3  and  C_15
REMARK    3  A    between atoms: N_5  and  C_19
REMARK    4  A    between atoms: C_6  and  C_9
REMARK    5  A    between atoms: C_12  and  C_14
REMARK    6  A    between atoms: C_13  and  C_16
REMARK    7  A    between atoms: C_15  and  C_18
REMARK    8  A    between atoms: C_19  and  C_22
REMARK    9  A    between atoms: C_19  and  C_23
REMARK                            x       y       z     vdW  Elec       q    Type
REMARK                         _______ _______ _______ _____ _____    ______ ____
ROOT
ATOM      6  C   UNL     1       0.742   1.248  24.203  0.00  0.00    +0.047 C 
ATOM      7  C   UNL     1       0.459  -0.258  24.372  0.00  0.00    +0.039 C 
ATOM      8  C   UNL     1       1.166  -0.951  23.200  0.00  0.00    +0.098 C 
ATOM     10  C   UNL     1       1.081   1.352  22.745  0.00  0.00    -0.021 C 
ATOM     11  C   UNL     1       1.315   0.151  22.204  0.00  0.00    -0.009 C 
ENDROOT
BRANCH   6   9
ATOM      3  N   UNL     1      -2.280   3.240  24.769  0.00  0.00    -0.264 N 
ATOM      4  N   UNL     1      -1.679   3.514  25.939  0.00  0.00    -0.176 NA
ATOM      9  C   UNL     1      -0.406   2.125  24.649  0.00  0.00    +0.003 A 
ATOM     12  C   UNL     1      -1.558   2.412  23.960  0.00  0.00    +0.041 A 
ATOM     13  C   UNL     1      -0.535   2.831  25.860  0.00  0.00    +0.064 A 
ATOM     14  C   UNL     1      -2.031   1.981  22.630  0.00  0.00    +0.065 C 
ATOM     16  C   UNL     1       0.419   2.882  26.982  0.00  0.00    +0.068 C 
BRANCH   3  15
ATOM     15  C   UNL     1      -3.574   3.818  24.487  0.00  0.00    +0.178 C 
BRANCH  15  18
ATOM     18  C   UNL     1      -4.723   2.997  25.019  0.00  0.00    -0.026 A 
ATOM     20  C   UNL     1      -5.293   3.312  26.252  0.00  0.00    +0.005 A 
ATOM     21  C   UNL     1      -5.215   1.924  24.276  0.00  0.00    +0.005 A 
ATOM     24  C   UNL     1      -6.356   2.553  26.743  0.00  0.00    +0.000 A 
ATOM     25  C   UNL     1      -6.278   1.165  24.768  0.00  0.00    +0.000 A 
ATOM     26  C   UNL     1      -6.848   1.480  26.001  0.00  0.00    +0.000 A 
ENDBRANCH  15  18
ENDBRANCH   3  15
ENDBRANCH   6   9
BRANCH   8   2
ATOM      1  O   UNL     1       3.650   0.519  23.190  0.00  0.00    -0.253 OA
ATOM      2  N   UNL     1       2.470  -1.449  23.552  0.00  0.00    -0.293 N 
ATOM      5  N   UNL     1       4.747  -1.396  23.904  0.00  0.00    -0.297 N 
ATOM     17  C   UNL     1       3.625  -0.665  23.518  0.00  0.00    +0.300 C 
ATOM     27  H   UNL     1       2.571  -2.431  23.790  0.00  0.00    +0.151 HD
ATOM     28  H   UNL     1       4.614  -2.348  24.232  0.00  0.00    +0.150 HD
BRANCH   5  19
ATOM     19  C   UNL     1       6.072  -0.825  23.958  0.00  0.00    +0.068 C 
ATOM     22  C   UNL     1       6.009   0.615  24.451  0.00  0.00    +0.027 C 
ATOM     23  C   UNL     1       6.748  -0.913  22.595  0.00  0.00    +0.027 C 
ENDBRANCH   5  19
ENDBRANCH   8   2
TORSDOF 5
ENDMDL
