MODEL 1
REMARK VINA RESULT:      -3.8      0.000      0.000
REMARK  Name = 45783455
REMARK  10 active torsions:
REMARK  status: ('A' for Active; 'I' for Inactive)
REMARK    1  A    between atoms: O_2  and  C_24
REMARK    2  A    between atoms: O_2  and  C_27
REMARK    3  A    between atoms: O_3  and  C_28
REMARK    4  A    between atoms: O_3  and  C_29
REMARK    5  A    between atoms: N_4  and  C_12
REMARK    6  A    between atoms: C_8  and  C_13
REMARK    7  A    between atoms: C_12  and  C_14
REMARK    8  A    between atoms: C_17  and  C_21
REMARK    9  A    between atoms: C_20  and  C_22
REMARK   10  A    between atoms: C_27  and  C_28
REMARK                            x       y       z     vdW  Elec       q    Type
REMARK                         _______ _______ _______ _____ _____    ______ ____
ROOT
ATOM      1  O   UNL     1      -2.144   2.847  25.460  0.00  0.00    -0.336 OA
ATOM      5  N   UNL     1      -2.164   1.723  23.523  0.00  0.00    -0.189 NA
ATOM      6  N   UNL     1      -0.836   2.386  25.263  0.00  0.00    -0.054 NA
ATOM     13  C   UNL     1      -2.861   2.414  24.391  0.00  0.00    +0.245 A 
ATOM     17  C   UNL     1      -0.929   1.734  24.101  0.00  0.00    +0.221 A 
ENDROOT
BRANCH  17  21
ATOM      7  N   UNL     1      -0.093  -0.037  22.784  0.00  0.00    -0.252 NA
ATOM     21  C   UNL     1       0.193   1.080  23.492  0.00  0.00    +0.115 A 
ATOM     23  C   UNL     1       1.470   1.594  23.646  0.00  0.00    +0.077 A 
ATOM     24  C   UNL     1       2.521   0.919  23.035  0.00  0.00    +0.124 A 
ATOM     25  C   UNL     1       0.954  -0.665  22.204  0.00  0.00    +0.115 A 
ATOM     26  C   UNL     1       2.267  -0.231  22.298  0.00  0.00    +0.065 A 
BRANCH  24   2
ATOM      2  O   UNL     1       3.794   1.385  23.156  0.00  0.00    -0.490 OA
BRANCH   2  27
ATOM     27  C   UNL     1       4.849   0.504  22.771  0.00  0.00    +0.257 C 
BRANCH  27  28
ATOM     28  C   UNL     1       5.832   0.379  23.919  0.00  0.00    +0.200 C 
BRANCH  28   3
ATOM      3  O   UNL     1       5.492  -0.762  24.698  0.00  0.00    -0.380 OA
ATOM     29  C   UNL     1       4.856  -1.759  23.910  0.00  0.00    +0.194 C 
ENDBRANCH  28   3
ENDBRANCH  27  28
ENDBRANCH   2  27
ENDBRANCH  24   2
ENDBRANCH  17  21
BRANCH  13   8
ATOM      4  N   UNL     1      -5.101   2.122  25.432  0.00  0.00    -0.287 NA
ATOM      8  C   UNL     1      -4.328   2.788  24.365  0.00  0.00    +0.146 C 
ATOM      9  C   UNL     1      -4.563   4.292  24.593  0.00  0.00    +0.030 C 
ATOM     10  C   UNL     1      -5.527   4.372  25.767  0.00  0.00    +0.017 C 
ATOM     11  C   UNL     1      -6.210   3.020  25.760  0.00  0.00    +0.085 C 
BRANCH   4  12
ATOM     12  C   UNL     1      -5.566   0.791  25.061  0.00  0.00    +0.120 C 
BRANCH  12  14
ATOM     14  C   UNL     1      -4.431  -0.196  24.981  0.00  0.00    -0.033 A 
ATOM     15  C   UNL     1      -3.492  -0.263  26.012  0.00  0.00    +0.005 A 
ATOM     16  C   UNL     1      -4.316  -1.039  23.877  0.00  0.00    +0.005 A 
ATOM     18  C   UNL     1      -2.439  -1.175  25.936  0.00  0.00    +0.003 A 
ATOM     19  C   UNL     1      -3.263  -1.950  23.801  0.00  0.00    +0.003 A 
ATOM     20  C   UNL     1      -2.324  -2.018  24.831  0.00  0.00    -0.050 A 
ATOM     22  C   UNL     1      -1.197  -2.991  24.751  0.00  0.00    +0.044 C 
ENDBRANCH  12  14
ENDBRANCH   4  12
ENDBRANCH  13   8
TORSDOF 8
ENDMDL
MODEL 2
REMARK VINA RESULT:      -3.3     14.974     16.920
REMARK  Name = 45783455
REMARK  10 active torsions:
REMARK  status: ('A' for Active; 'I' for Inactive)
REMARK    1  A    between atoms: O_2  and  C_24
REMARK    2  A    between atoms: O_2  and  C_27
REMARK    3  A    between atoms: O_3  and  C_28
REMARK    4  A    between atoms: O_3  and  C_29
REMARK    5  A    between atoms: N_4  and  C_12
REMARK    6  A    between atoms: C_8  and  C_13
REMARK    7  A    between atoms: C_12  and  C_14
REMARK    8  A    between atoms: C_17  and  C_21
REMARK    9  A    between atoms: C_20  and  C_22
REMARK   10  A    between atoms: C_27  and  C_28
REMARK                            x       y       z     vdW  Elec       q    Type
REMARK                         _______ _______ _______ _____ _____    ______ ____
ROOT
ATOM      1  O   UNL     1      -7.113  -8.600  11.473  0.00  0.00    -0.336 OA
ATOM      5  N   UNL     1      -5.861 -10.263  10.647  0.00  0.00    -0.189 NA
ATOM      6  N   UNL     1      -5.843  -8.453  12.044  0.00  0.00    -0.054 NA
ATOM     13  C   UNL     1      -7.038  -9.689  10.664  0.00  0.00    +0.245 A 
ATOM     17  C   UNL     1      -5.162  -9.469  11.508  0.00  0.00    +0.221 A 
ENDROOT
BRANCH  17  21
ATOM      7  N   UNL     1      -2.912  -9.522  10.798  0.00  0.00    -0.252 NA
ATOM     21  C   UNL     1      -3.783  -9.720  11.813  0.00  0.00    +0.115 A 
ATOM     23  C   UNL     1      -3.413 -10.138  13.081  0.00  0.00    +0.077 A 
ATOM     24  C   UNL     1      -2.063 -10.368  13.323  0.00  0.00    +0.124 A 
ATOM     25  C   UNL     1      -1.609  -9.755  11.070  0.00  0.00    +0.115 A 
ATOM     26  C   UNL     1      -1.138 -10.174  12.304  0.00  0.00    +0.065 A 
BRANCH  24   2
ATOM      2  O   UNL     1      -1.649 -10.779  14.552  0.00  0.00    -0.490 OA
BRANCH   2  27
ATOM     27  C   UNL     1      -2.306 -10.207  15.683  0.00  0.00    +0.257 C 
BRANCH  27  28
ATOM     28  C   UNL     1      -3.706 -10.781  15.784  0.00  0.00    +0.200 C 
BRANCH  28   3
ATOM      3  O   UNL     1      -4.534  -9.862  16.487  0.00  0.00    -0.380 OA
ATOM     29  C   UNL     1      -5.509 -10.535  17.271  0.00  0.00    +0.194 C 
ENDBRANCH  28   3
ENDBRANCH  27  28
ENDBRANCH   2  27
ENDBRANCH  24   2
ENDBRANCH  17  21
BRANCH  13   8
ATOM      4  N   UNL     1      -9.523  -9.604  10.606  0.00  0.00    -0.287 NA
ATOM      8  C   UNL     1      -8.301 -10.066   9.918  0.00  0.00    +0.146 C 
ATOM      9  C   UNL     1      -8.377  -9.433   8.517  0.00  0.00    +0.030 C 
ATOM     10  C   UNL     1      -9.702  -8.685   8.489  0.00  0.00    +0.017 C 
ATOM     11  C   UNL     1     -10.522  -9.373   9.561  0.00  0.00    +0.085 C 
BRANCH   4  12
ATOM     12  C   UNL     1      -9.998 -10.534  11.622  0.00  0.00    +0.120 C 
BRANCH  12  14
ATOM     14  C   UNL     1      -9.705 -10.039  13.014  0.00  0.00    -0.033 A 
ATOM     15  C   UNL     1      -8.568 -10.487  13.687  0.00  0.00    +0.005 A 
ATOM     16  C   UNL     1     -10.571  -9.137  13.630  0.00  0.00    +0.005 A 
ATOM     18  C   UNL     1      -8.298 -10.031  14.978  0.00  0.00    +0.003 A 
ATOM     19  C   UNL     1     -10.302  -8.681  14.921  0.00  0.00    +0.003 A 
ATOM     20  C   UNL     1      -9.164  -9.128  15.595  0.00  0.00    -0.050 A 
ATOM     22  C   UNL     1      -8.875  -8.643  16.975  0.00  0.00    +0.044 C 
ENDBRANCH  12  14
ENDBRANCH   4  12
ENDBRANCH  13   8
TORSDOF 8
ENDMDL
MODEL 3
REMARK VINA RESULT:      -3.1     15.767     19.399
REMARK  Name = 45783455
REMARK  10 active torsions:
REMARK  status: ('A' for Active; 'I' for Inactive)
REMARK    1  A    between atoms: O_2  and  C_24
REMARK    2  A    between atoms: O_2  and  C_27
REMARK    3  A    between atoms: O_3  and  C_28
REMARK    4  A    between atoms: O_3  and  C_29
REMARK    5  A    between atoms: N_4  and  C_12
REMARK    6  A    between atoms: C_8  and  C_13
REMARK    7  A    between atoms: C_12  and  C_14
REMARK    8  A    between atoms: C_17  and  C_21
REMARK    9  A    between atoms: C_20  and  C_22
REMARK   10  A    between atoms: C_27  and  C_28
REMARK                            x       y       z     vdW  Elec       q    Type
REMARK                         _______ _______ _______ _____ _____    ______ ____
ROOT
ATOM      1  O   UNL     1      14.430  -5.620  29.507  0.00  0.00    -0.336 OA
ATOM      5  N   UNL     1      15.128  -6.795  31.282  0.00  0.00    -0.189 NA
ATOM      6  N   UNL     1      13.507  -6.660  29.673  0.00  0.00    -0.054 NA
ATOM     13  C   UNL     1      15.351  -5.772  30.495  0.00  0.00    +0.245 A 
ATOM     17  C   UNL     1      13.986  -7.308  30.739  0.00  0.00    +0.221 A 
ENDROOT
BRANCH  17  21
ATOM      7  N   UNL     1      14.073  -9.614  31.232  0.00  0.00    -0.252 NA
ATOM     21  C   UNL     1      13.350  -8.472  31.285  0.00  0.00    +0.115 A 
ATOM     23  C   UNL     1      12.076  -8.386  31.820  0.00  0.00    +0.077 A 
ATOM     24  C   UNL     1      11.506  -9.545  32.335  0.00  0.00    +0.124 A 
ATOM     25  C   UNL     1      13.487 -10.720  31.741  0.00  0.00    +0.115 A 
ATOM     26  C   UNL     1      12.219 -10.738  32.299  0.00  0.00    +0.065 A 
BRANCH  24   2
ATOM      2  O   UNL     1      10.257  -9.512  32.873  0.00  0.00    -0.490 OA
BRANCH   2  27
ATOM     27  C   UNL     1       9.208 -10.119  32.118  0.00  0.00    +0.257 C 
BRANCH  27  28
ATOM     28  C   UNL     1       8.160  -9.070  31.797  0.00  0.00    +0.200 C 
BRANCH  28   3
ATOM      3  O   UNL     1       6.922  -9.718  31.534  0.00  0.00    -0.380 OA
ATOM     29  C   UNL     1       6.925 -10.347  30.259  0.00  0.00    +0.194 C 
ENDBRANCH  28   3
ENDBRANCH  27  28
ENDBRANCH   2  27
ENDBRANCH  24   2
ENDBRANCH  17  21
BRANCH  13   8
ATOM      4  N   UNL     1      16.591  -3.993  29.276  0.00  0.00    -0.287 NA
ATOM      8  C   UNL     1      16.473  -4.756  30.534  0.00  0.00    +0.146 C 
ATOM      9  C   UNL     1      16.270  -3.687  31.623  0.00  0.00    +0.030 C 
ATOM     10  C   UNL     1      16.349  -2.355  30.892  0.00  0.00    +0.017 C 
ATOM     11  C   UNL     1      17.132  -2.682  29.638  0.00  0.00    +0.085 C 
BRANCH   4  12
ATOM     12  C   UNL     1      17.405  -4.663  28.270  0.00  0.00    +0.120 C 
BRANCH  12  14
ATOM     14  C   UNL     1      17.286  -4.002  26.923  0.00  0.00    -0.033 A 
ATOM     15  C   UNL     1      17.062  -4.777  25.784  0.00  0.00    +0.005 A 
ATOM     16  C   UNL     1      17.403  -2.617  26.812  0.00  0.00    +0.005 A 
ATOM     18  C   UNL     1      16.954  -4.165  24.535  0.00  0.00    +0.003 A 
ATOM     19  C   UNL     1      17.297  -2.006  25.563  0.00  0.00    +0.003 A 
ATOM     20  C   UNL     1      17.072  -2.780  24.424  0.00  0.00    -0.050 A 
ATOM     22  C   UNL     1      16.959  -2.127  23.088  0.00  0.00    +0.044 C 
ENDBRANCH  12  14
ENDBRANCH   4  12
ENDBRANCH  13   8
TORSDOF 8
ENDMDL
MODEL 4
REMARK VINA RESULT:      -1.3      1.516      3.666
REMARK  Name = 45783455
REMARK  10 active torsions:
REMARK  status: ('A' for Active; 'I' for Inactive)
REMARK    1  A    between atoms: O_2  and  C_24
REMARK    2  A    between atoms: O_2  and  C_27
REMARK    3  A    between atoms: O_3  and  C_28
REMARK    4  A    between atoms: O_3  and  C_29
REMARK    5  A    between atoms: N_4  and  C_12
REMARK    6  A    between atoms: C_8  and  C_13
REMARK    7  A    between atoms: C_12  and  C_14
REMARK    8  A    between atoms: C_17  and  C_21
REMARK    9  A    between atoms: C_20  and  C_22
REMARK   10  A    between atoms: C_27  and  C_28
REMARK                            x       y       z     vdW  Elec       q    Type
REMARK                         _______ _______ _______ _____ _____    ______ ____
ROOT
ATOM      1  O   UNL     1      -1.376   0.674  25.765  0.00  0.00    -0.336 OA
ATOM      5  N   UNL     1      -1.125  -0.500  23.875  0.00  0.00    -0.189 NA
ATOM      6  N   UNL     1      -0.109   1.002  25.268  0.00  0.00    -0.054 NA
ATOM     13  C   UNL     1      -1.907  -0.216  24.886  0.00  0.00    +0.245 A 
ATOM     17  C   UNL     1      -0.035   0.271  24.152  0.00  0.00    +0.221 A 
ENDROOT
BRANCH  17  21
ATOM      7  N   UNL     1       0.971  -0.353  22.111  0.00  0.00    -0.252 NA
ATOM     21  C   UNL     1       1.114   0.286  23.294  0.00  0.00    +0.115 A 
ATOM     23  C   UNL     1       2.276   0.925  23.694  0.00  0.00    +0.077 A 
ATOM     24  C   UNL     1       3.361   0.909  22.824  0.00  0.00    +0.124 A 
ATOM     25  C   UNL     1       2.046  -0.348  21.291  0.00  0.00    +0.115 A 
ATOM     26  C   UNL     1       3.251   0.263  21.598  0.00  0.00    +0.065 A 
BRANCH  24   2
ATOM      2  O   UNL     1       4.524   1.523  23.171  0.00  0.00    -0.490 OA
BRANCH   2  27
ATOM     27  C   UNL     1       5.676   0.695  23.325  0.00  0.00    +0.257 C 
BRANCH  27  28
ATOM     28  C   UNL     1       5.511  -0.154  24.571  0.00  0.00    +0.200 C 
BRANCH  28   3
ATOM      3  O   UNL     1       5.554  -1.528  24.205  0.00  0.00    -0.380 OA
ATOM     29  C   UNL     1       4.254  -2.036  23.937  0.00  0.00    +0.194 C 
ENDBRANCH  28   3
ENDBRANCH  27  28
ENDBRANCH   2  27
ENDBRANCH  24   2
ENDBRANCH  17  21
BRANCH  13   8
ATOM      4  N   UNL     1      -4.343  -0.067  24.405  0.00  0.00    -0.287 NA
ATOM      8  C   UNL     1      -3.295  -0.732  25.203  0.00  0.00    +0.146 C 
ATOM      9  C   UNL     1      -3.458  -2.231  24.891  0.00  0.00    +0.030 C 
ATOM     10  C   UNL     1      -4.658  -2.315  23.959  0.00  0.00    +0.017 C 
ATOM     11  C   UNL     1      -5.424  -1.041  24.248  0.00  0.00    +0.085 C 
BRANCH   4  12
ATOM     12  C   UNL     1      -4.812   1.181  24.997  0.00  0.00    +0.120 C 
BRANCH  12  14
ATOM     14  C   UNL     1      -3.769   2.264  24.916  0.00  0.00    -0.033 A 
ATOM     15  C   UNL     1      -3.069   2.470  23.726  0.00  0.00    +0.005 A 
ATOM     16  C   UNL     1      -3.503   3.060  26.029  0.00  0.00    +0.005 A 
ATOM     18  C   UNL     1      -2.102   3.472  23.652  0.00  0.00    +0.003 A 
ATOM     19  C   UNL     1      -2.534   4.061  25.955  0.00  0.00    +0.003 A 
ATOM     20  C   UNL     1      -1.833   4.268  24.766  0.00  0.00    -0.050 A 
ATOM     22  C   UNL     1      -0.798   5.337  24.686  0.00  0.00    +0.044 C 
ENDBRANCH  12  14
ENDBRANCH   4  12
ENDBRANCH  13   8
TORSDOF 8
ENDMDL
