MODEL 1
REMARK VINA RESULT:      -4.3      0.000      0.000
REMARK  Name = 75536102
REMARK  8 active torsions:
REMARK  status: ('A' for Active; 'I' for Inactive)
REMARK    1  A    between atoms: O_2  and  C_8
REMARK    2  A    between atoms: O_3  and  C_10
REMARK    3  A    between atoms: O_4  and  C_18
REMARK    4  A    between atoms: O_4  and  C_24
REMARK    5  A    between atoms: N_5  and  C_6
REMARK    6  A    between atoms: N_5  and  C_12
REMARK    7  A    between atoms: C_7  and  C_11
REMARK    8  A    between atoms: C_12  and  C_15
REMARK                            x       y       z     vdW  Elec       q    Type
REMARK                         _______ _______ _______ _____ _____    ______ ____
ROOT
ATOM      6  C   UNL     1      -2.694   3.065  24.027  0.00  0.00    +0.092 C 
ATOM      7  C   UNL     1      -1.847   2.232  25.016  0.00  0.00    +0.041 C 
ATOM      8  C   UNL     1      -3.288   4.159  24.915  0.00  0.00    +0.160 C 
ATOM      9  C   UNL     1      -1.471   3.208  26.163  0.00  0.00    +0.043 C 
ATOM     10  C   UNL     1      -2.108   4.550  25.799  0.00  0.00    +0.145 C 
ENDROOT
BRANCH   7  11
ATOM     11  C   UNL     1      -0.661   1.556  24.363  0.00  0.00    -0.042 A 
ATOM     13  C   UNL     1      -0.748   0.222  23.967  0.00  0.00    +0.007 A 
ATOM     14  C   UNL     1       0.520   2.269  24.156  0.00  0.00    +0.007 A 
ATOM     16  C   UNL     1       0.346  -0.400  23.365  0.00  0.00    +0.046 A 
ATOM     17  C   UNL     1       1.614   1.647  23.554  0.00  0.00    +0.046 A 
ATOM     18  C   UNL     1       1.527   0.312  23.158  0.00  0.00    +0.120 A 
BRANCH  18   4
ATOM      4  O   UNL     1       2.593  -0.294  22.569  0.00  0.00    -0.495 OA
ATOM     24  C   UNL     1       3.815   0.443  22.524  0.00  0.00    +0.277 C 
ENDBRANCH  18   4
ENDBRANCH   7  11
BRANCH   8   2
ATOM      2  O   UNL     1      -3.764   5.250  24.150  0.00  0.00    -0.388 OA
ATOM     26  H   UNL     1      -4.597   5.547  24.553  0.00  0.00    +0.210 HD
ENDBRANCH   8   2
BRANCH  10   3
ATOM      3  O   UNL     1      -1.177   5.333  25.058  0.00  0.00    -0.389 OA
ATOM     27  H   UNL     1      -0.678   5.873  25.696  0.00  0.00    +0.210 HD
ENDBRANCH  10   3
BRANCH   6   5
ATOM      5  N   UNL     1      -3.732   2.266  23.386  0.00  0.00    -0.306 NA
ATOM     25  H   UNL     1      -4.298   2.871  22.789  0.00  0.00    +0.123 HD
BRANCH   5  12
ATOM     12  C   UNL     1      -4.602   1.651  24.379  0.00  0.00    +0.116 C 
BRANCH  12  15
ATOM      1 CL   UNL     1      -3.191  -4.120  25.331  0.00  0.00    -0.084 Cl
ATOM     15  C   UNL     1      -4.249   0.207  24.616  0.00  0.00    -0.033 A 
ATOM     19  C   UNL     1      -3.781  -0.200  25.866  0.00  0.00    +0.006 A 
ATOM     20  C   UNL     1      -4.389  -0.724  23.587  0.00  0.00    +0.006 A 
ATOM     21  C   UNL     1      -3.453  -1.537  26.087  0.00  0.00    +0.020 A 
ATOM     22  C   UNL     1      -4.061  -2.062  23.808  0.00  0.00    +0.020 A 
ATOM     23  C   UNL     1      -3.593  -2.469  25.058  0.00  0.00    +0.041 A 
ENDBRANCH  12  15
ENDBRANCH   5  12
ENDBRANCH   6   5
TORSDOF 7
ENDMDL
MODEL 2
REMARK VINA RESULT:      -4.1      2.530      4.591
REMARK  Name = 75536102
REMARK  8 active torsions:
REMARK  status: ('A' for Active; 'I' for Inactive)
REMARK    1  A    between atoms: O_2  and  C_8
REMARK    2  A    between atoms: O_3  and  C_10
REMARK    3  A    between atoms: O_4  and  C_18
REMARK    4  A    between atoms: O_4  and  C_24
REMARK    5  A    between atoms: N_5  and  C_6
REMARK    6  A    between atoms: N_5  and  C_12
REMARK    7  A    between atoms: C_7  and  C_11
REMARK    8  A    between atoms: C_12  and  C_15
REMARK                            x       y       z     vdW  Elec       q    Type
REMARK                         _______ _______ _______ _____ _____    ______ ____
ROOT
ATOM      6  C   UNL     1      -4.570   2.814  25.008  0.00  0.00    +0.092 C 
ATOM      7  C   UNL     1      -5.068   1.473  24.423  0.00  0.00    +0.041 C 
ATOM      8  C   UNL     1      -5.868   3.542  25.361  0.00  0.00    +0.160 C 
ATOM      9  C   UNL     1      -6.463   1.236  25.061  0.00  0.00    +0.043 C 
ATOM     10  C   UNL     1      -6.715   2.434  25.977  0.00  0.00    +0.145 C 
ENDROOT
BRANCH   7  11
ATOM     11  C   UNL     1      -4.091   0.335  24.626  0.00  0.00    -0.042 A 
ATOM     13  C   UNL     1      -4.176  -0.808  23.833  0.00  0.00    +0.007 A 
ATOM     14  C   UNL     1      -3.105   0.430  25.609  0.00  0.00    +0.007 A 
ATOM     16  C   UNL     1      -3.275  -1.857  24.021  0.00  0.00    +0.046 A 
ATOM     17  C   UNL     1      -2.205  -0.618  25.797  0.00  0.00    +0.046 A 
ATOM     18  C   UNL     1      -2.290  -1.762  25.003  0.00  0.00    +0.120 A 
BRANCH  18   4
ATOM      4  O   UNL     1      -1.410  -2.784  25.185  0.00  0.00    -0.495 OA
ATOM     24  C   UNL     1      -0.047  -2.433  25.424  0.00  0.00    +0.277 C 
ENDBRANCH  18   4
ENDBRANCH   7  11
BRANCH   8   2
ATOM      2  O   UNL     1      -5.640   4.605  26.268  0.00  0.00    -0.388 OA
ATOM     26  H   UNL     1      -4.883   4.354  26.825  0.00  0.00    +0.210 HD
ENDBRANCH   8   2
BRANCH  10   3
ATOM      3  O   UNL     1      -6.253   2.135  27.291  0.00  0.00    -0.389 OA
ATOM     27  H   UNL     1      -6.930   1.582  27.718  0.00  0.00    +0.210 HD
ENDBRANCH  10   3
BRANCH   6   5
ATOM      5  N   UNL     1      -3.771   3.569  24.048  0.00  0.00    -0.306 NA
ATOM     25  H   UNL     1      -3.650   3.009  23.203  0.00  0.00    +0.123 HD
BRANCH   5  12
ATOM     12  C   UNL     1      -2.456   3.874  24.595  0.00  0.00    +0.116 C 
BRANCH  12  15
ATOM      1 CL   UNL     1       1.616  -0.292  23.090  0.00  0.00    -0.084 Cl
ATOM     15  C   UNL     1      -1.437   2.832  24.219  0.00  0.00    -0.033 A 
ATOM     19  C   UNL     1      -1.659   2.005  23.118  0.00  0.00    +0.006 A 
ATOM     20  C   UNL     1      -0.271   2.692  24.972  0.00  0.00    +0.006 A 
ATOM     21  C   UNL     1      -0.716   1.039  22.769  0.00  0.00    +0.020 A 
ATOM     22  C   UNL     1       0.672   1.725  24.624  0.00  0.00    +0.020 A 
ATOM     23  C   UNL     1       0.451   0.899  23.522  0.00  0.00    +0.041 A 
ENDBRANCH  12  15
ENDBRANCH   5  12
ENDBRANCH   6   5
TORSDOF 7
ENDMDL
MODEL 3
REMARK VINA RESULT:      -3.3      2.183      4.391
REMARK  Name = 75536102
REMARK  8 active torsions:
REMARK  status: ('A' for Active; 'I' for Inactive)
REMARK    1  A    between atoms: O_2  and  C_8
REMARK    2  A    between atoms: O_3  and  C_10
REMARK    3  A    between atoms: O_4  and  C_18
REMARK    4  A    between atoms: O_4  and  C_24
REMARK    5  A    between atoms: N_5  and  C_6
REMARK    6  A    between atoms: N_5  and  C_12
REMARK    7  A    between atoms: C_7  and  C_11
REMARK    8  A    between atoms: C_12  and  C_15
REMARK                            x       y       z     vdW  Elec       q    Type
REMARK                         _______ _______ _______ _____ _____    ______ ____
ROOT
ATOM      6  C   UNL     1      -2.743   3.201  24.579  0.00  0.00    +0.092 C 
ATOM      7  C   UNL     1      -3.968   2.446  24.016  0.00  0.00    +0.041 C 
ATOM      8  C   UNL     1      -3.308   4.583  24.906  0.00  0.00    +0.160 C 
ATOM      9  C   UNL     1      -5.207   3.137  24.647  0.00  0.00    +0.043 C 
ATOM     10  C   UNL     1      -4.657   4.252  25.537  0.00  0.00    +0.145 C 
ENDROOT
BRANCH   7  11
ATOM     11  C   UNL     1      -3.906   0.951  24.249  0.00  0.00    -0.042 A 
ATOM     13  C   UNL     1      -3.616   0.091  23.192  0.00  0.00    +0.007 A 
ATOM     14  C   UNL     1      -4.139   0.435  25.524  0.00  0.00    +0.007 A 
ATOM     16  C   UNL     1      -3.559  -1.287  23.408  0.00  0.00    +0.046 A 
ATOM     17  C   UNL     1      -4.082  -0.941  25.741  0.00  0.00    +0.046 A 
ATOM     18  C   UNL     1      -3.792  -1.803  24.682  0.00  0.00    +0.120 A 
BRANCH  18   4
ATOM      4  O   UNL     1      -3.734  -3.146  24.893  0.00  0.00    -0.495 OA
ATOM     24  C   UNL     1      -3.697  -3.983  23.738  0.00  0.00    +0.277 C 
ENDBRANCH  18   4
ENDBRANCH   7  11
BRANCH   8   2
ATOM      2  O   UNL     1      -2.466   5.294  25.795  0.00  0.00    -0.388 OA
ATOM     26  H   UNL     1      -1.757   4.689  26.070  0.00  0.00    +0.210 HD
ENDBRANCH   8   2
BRANCH  10   3
ATOM      3  O   UNL     1      -4.473   3.758  26.861  0.00  0.00    -0.389 OA
ATOM     27  H   UNL     1      -5.350   3.519  27.206  0.00  0.00    +0.210 HD
ENDBRANCH  10   3
BRANCH   6   5
ATOM      5  N   UNL     1      -1.654   3.278  23.611  0.00  0.00    -0.306 NA
ATOM     25  H   UNL     1      -1.859   2.655  22.828  0.00  0.00    +0.123 HD
BRANCH   5  12
ATOM     12  C   UNL     1      -0.394   2.865  24.215  0.00  0.00    +0.116 C 
BRANCH  12  15
ATOM      1 CL   UNL     1      -0.319  -3.024  25.443  0.00  0.00    -0.084 Cl
ATOM     15  C   UNL     1      -0.376   1.392  24.523  0.00  0.00    -0.033 A 
ATOM     19  C   UNL     1       0.012   0.479  23.541  0.00  0.00    +0.006 A 
ATOM     20  C   UNL     1      -0.747   0.938  25.789  0.00  0.00    +0.006 A 
ATOM     21  C   UNL     1       0.029  -0.886  23.825  0.00  0.00    +0.020 A 
ATOM     22  C   UNL     1      -0.730  -0.427  26.073  0.00  0.00    +0.020 A 
ATOM     23  C   UNL     1      -0.342  -1.340  25.092  0.00  0.00    +0.041 A 
ENDBRANCH  12  15
ENDBRANCH   5  12
ENDBRANCH   6   5
TORSDOF 7
ENDMDL
MODEL 4
REMARK VINA RESULT:      -3.3      2.683      4.656
REMARK  Name = 75536102
REMARK  8 active torsions:
REMARK  status: ('A' for Active; 'I' for Inactive)
REMARK    1  A    between atoms: O_2  and  C_8
REMARK    2  A    between atoms: O_3  and  C_10
REMARK    3  A    between atoms: O_4  and  C_18
REMARK    4  A    between atoms: O_4  and  C_24
REMARK    5  A    between atoms: N_5  and  C_6
REMARK    6  A    between atoms: N_5  and  C_12
REMARK    7  A    between atoms: C_7  and  C_11
REMARK    8  A    between atoms: C_12  and  C_15
REMARK                            x       y       z     vdW  Elec       q    Type
REMARK                         _______ _______ _______ _____ _____    ______ ____
ROOT
ATOM      6  C   UNL     1      -4.506   2.565  24.402  0.00  0.00    +0.092 C 
ATOM      7  C   UNL     1      -5.151   1.161  24.423  0.00  0.00    +0.041 C 
ATOM      8  C   UNL     1      -5.625   3.469  24.920  0.00  0.00    +0.160 C 
ATOM      9  C   UNL     1      -6.256   1.229  25.513  0.00  0.00    +0.043 C 
ATOM     10  C   UNL     1      -6.209   2.653  26.069  0.00  0.00    +0.145 C 
ENDROOT
BRANCH   7  11
ATOM     11  C   UNL     1      -4.147   0.047  24.629  0.00  0.00    -0.042 A 
ATOM     13  C   UNL     1      -3.300   0.066  25.735  0.00  0.00    +0.007 A 
ATOM     14  C   UNL     1      -4.070  -1.000  23.710  0.00  0.00    +0.007 A 
ATOM     16  C   UNL     1      -2.374  -0.961  25.924  0.00  0.00    +0.046 A 
ATOM     17  C   UNL     1      -3.145  -2.027  23.898  0.00  0.00    +0.046 A 
ATOM     18  C   UNL     1      -2.297  -2.007  25.005  0.00  0.00    +0.120 A 
BRANCH  18   4
ATOM      4  O   UNL     1      -1.396  -3.010  25.190  0.00  0.00    -0.495 OA
ATOM     24  C   UNL     1      -0.029  -2.632  25.356  0.00  0.00    +0.277 C 
ENDBRANCH  18   4
ENDBRANCH   7  11
BRANCH   8   2
ATOM      2  O   UNL     1      -5.126   4.720  25.356  0.00  0.00    -0.388 OA
ATOM     26  H   UNL     1      -4.583   5.083  24.635  0.00  0.00    +0.210 HD
ENDBRANCH   8   2
BRANCH  10   3
ATOM      3  O   UNL     1      -5.337   2.695  27.195  0.00  0.00    -0.389 OA
ATOM     27  H   UNL     1      -4.843   1.858  27.212  0.00  0.00    +0.210 HD
ENDBRANCH  10   3
BRANCH   6   5
ATOM      5  N   UNL     1      -4.077   2.950  23.062  0.00  0.00    -0.306 NA
ATOM     25  H   UNL     1      -4.769   2.628  22.384  0.00  0.00    +0.123 HD
BRANCH   5  12
ATOM     12  C   UNL     1      -2.791   2.348  22.735  0.00  0.00    +0.116 C 
BRANCH  12  15
ATOM      1 CL   UNL     1       1.072   2.692  27.334  0.00  0.00    -0.084 Cl
ATOM     15  C   UNL     1      -1.824   2.434  23.885  0.00  0.00    -0.033 A 
ATOM     19  C   UNL     1      -1.995   3.409  24.868  0.00  0.00    +0.006 A 
ATOM     20  C   UNL     1      -0.758   1.539  23.969  0.00  0.00    +0.006 A 
ATOM     21  C   UNL     1      -1.099   3.490  25.934  0.00  0.00    +0.020 A 
ATOM     22  C   UNL     1       0.139   1.620  25.035  0.00  0.00    +0.020 A 
ATOM     23  C   UNL     1      -0.032   2.595  26.018  0.00  0.00    +0.041 A 
ENDBRANCH  12  15
ENDBRANCH   5  12
ENDBRANCH   6   5
TORSDOF 7
ENDMDL
MODEL 5
REMARK VINA RESULT:      -3.3      2.996      5.302
REMARK  Name = 75536102
REMARK  8 active torsions:
REMARK  status: ('A' for Active; 'I' for Inactive)
REMARK    1  A    between atoms: O_2  and  C_8
REMARK    2  A    between atoms: O_3  and  C_10
REMARK    3  A    between atoms: O_4  and  C_18
REMARK    4  A    between atoms: O_4  and  C_24
REMARK    5  A    between atoms: N_5  and  C_6
REMARK    6  A    between atoms: N_5  and  C_12
REMARK    7  A    between atoms: C_7  and  C_11
REMARK    8  A    between atoms: C_12  and  C_15
REMARK                            x       y       z     vdW  Elec       q    Type
REMARK                         _______ _______ _______ _____ _____    ______ ____
ROOT
ATOM      6  C   UNL     1      -2.219  -0.855  24.440  0.00  0.00    +0.092 C 
ATOM      7  C   UNL     1      -1.008  -0.105  23.841  0.00  0.00    +0.041 C 
ATOM      8  C   UNL     1      -1.711  -2.291  24.564  0.00  0.00    +0.160 C 
ATOM      9  C   UNL     1       0.240  -0.922  24.272  0.00  0.00    +0.043 C 
ATOM     10  C   UNL     1      -0.292  -2.099  25.091  0.00  0.00    +0.145 C 
ENDROOT
BRANCH   7  11
ATOM     11  C   UNL     1      -0.959   1.356  24.235  0.00  0.00    -0.042 A 
ATOM     13  C   UNL     1      -0.772   2.336  23.261  0.00  0.00    +0.007 A 
ATOM     14  C   UNL     1      -1.100   1.723  25.574  0.00  0.00    +0.007 A 
ATOM     16  C   UNL     1      -0.726   3.682  23.624  0.00  0.00    +0.046 A 
ATOM     17  C   UNL     1      -1.054   3.068  25.937  0.00  0.00    +0.046 A 
ATOM     18  C   UNL     1      -0.867   4.048  24.962  0.00  0.00    +0.120 A 
BRANCH  18   4
ATOM      4  O   UNL     1      -0.824   5.361  25.316  0.00  0.00    -0.495 OA
ATOM     24  C   UNL     1      -1.991   6.142  25.058  0.00  0.00    +0.277 C 
ENDBRANCH  18   4
ENDBRANCH   7  11
BRANCH   8   2
ATOM      2  O   UNL     1      -2.509  -3.053  25.452  0.00  0.00    -0.388 OA
ATOM     26  H   UNL     1      -3.417  -3.045  25.105  0.00  0.00    +0.210 HD
ENDBRANCH   8   2
BRANCH  10   3
ATOM      3  O   UNL     1      -0.323  -1.744  26.471  0.00  0.00    -0.389 OA
ATOM     27  H   UNL     1       0.415  -1.132  26.630  0.00  0.00    +0.210 HD
ENDBRANCH  10   3
BRANCH   6   5
ATOM      5  N   UNL     1      -3.396  -0.771  23.582  0.00  0.00    -0.306 NA
ATOM     25  H   UNL     1      -3.301   0.037  22.964  0.00  0.00    +0.123 HD
BRANCH   5  12
ATOM     12  C   UNL     1      -4.607  -0.608  24.375  0.00  0.00    +0.116 C 
BRANCH  12  15
ATOM      1 CL   UNL     1      -5.661   5.167  25.691  0.00  0.00    -0.084 Cl
ATOM     15  C   UNL     1      -4.871   0.836  24.705  0.00  0.00    -0.033 A 
ATOM     19  C   UNL     1      -4.260   1.845  23.960  0.00  0.00    +0.006 A 
ATOM     20  C   UNL     1      -5.726   1.167  25.757  0.00  0.00    +0.006 A 
ATOM     21  C   UNL     1      -4.503   3.183  24.264  0.00  0.00    +0.020 A 
ATOM     22  C   UNL     1      -5.969   2.506  26.062  0.00  0.00    +0.020 A 
ATOM     23  C   UNL     1      -5.359   3.515  25.316  0.00  0.00    +0.041 A 
ENDBRANCH  12  15
ENDBRANCH   5  12
ENDBRANCH   6   5
TORSDOF 7
ENDMDL
MODEL 6
REMARK VINA RESULT:      -2.6      1.915      2.846
REMARK  Name = 75536102
REMARK  8 active torsions:
REMARK  status: ('A' for Active; 'I' for Inactive)
REMARK    1  A    between atoms: O_2  and  C_8
REMARK    2  A    between atoms: O_3  and  C_10
REMARK    3  A    between atoms: O_4  and  C_18
REMARK    4  A    between atoms: O_4  and  C_24
REMARK    5  A    between atoms: N_5  and  C_6
REMARK    6  A    between atoms: N_5  and  C_12
REMARK    7  A    between atoms: C_7  and  C_11
REMARK    8  A    between atoms: C_12  and  C_15
REMARK                            x       y       z     vdW  Elec       q    Type
REMARK                         _______ _______ _______ _____ _____    ______ ____
ROOT
ATOM      6  C   UNL     1      -2.124   3.939  25.194  0.00  0.00    +0.092 C 
ATOM      7  C   UNL     1      -0.948   3.176  25.844  0.00  0.00    +0.041 C 
ATOM      8  C   UNL     1      -1.618   5.381  25.146  0.00  0.00    +0.160 C 
ATOM      9  C   UNL     1       0.320   4.013  25.518  0.00  0.00    +0.043 C 
ATOM     10  C   UNL     1      -0.168   5.212  24.704  0.00  0.00    +0.145 C 
ENDROOT
BRANCH   7  11
ATOM     11  C   UNL     1      -0.864   1.729  25.411  0.00  0.00    -0.042 A 
ATOM     13  C   UNL     1      -0.252   1.396  24.203  0.00  0.00    +0.007 A 
ATOM     14  C   UNL     1      -1.398   0.726  26.221  0.00  0.00    +0.007 A 
ATOM     16  C   UNL     1      -0.175   0.061  23.804  0.00  0.00    +0.046 A 
ATOM     17  C   UNL     1      -1.322  -0.608  25.822  0.00  0.00    +0.046 A 
ATOM     18  C   UNL     1      -0.710  -0.941  24.613  0.00  0.00    +0.120 A 
BRANCH  18   4
ATOM      4  O   UNL     1      -0.633  -2.242  24.224  0.00  0.00    -0.495 OA
ATOM     24  C   UNL     1      -1.707  -3.099  24.610  0.00  0.00    +0.277 C 
ENDBRANCH  18   4
ENDBRANCH   7  11
BRANCH   8   2
ATOM      2  O   UNL     1      -2.364   6.165  24.234  0.00  0.00    -0.388 OA
ATOM     26  H   UNL     1      -2.402   5.677  23.394  0.00  0.00    +0.210 HD
ENDBRANCH   8   2
BRANCH  10   3
ATOM      3  O   UNL     1      -0.110   4.900  23.315  0.00  0.00    -0.389 OA
ATOM     27  H   UNL     1       0.322   4.033  23.229  0.00  0.00    +0.210 HD
ENDBRANCH  10   3
BRANCH   6   5
ATOM      5  N   UNL     1      -3.351   3.823  25.974  0.00  0.00    -0.306 NA
ATOM     25  H   UNL     1      -3.230   3.095  26.680  0.00  0.00    +0.123 HD
BRANCH   5  12
ATOM     12  C   UNL     1      -4.475   3.460  25.122  0.00  0.00    +0.116 C 
BRANCH  12  15
ATOM      1 CL   UNL     1      -4.294  -2.337  23.525  0.00  0.00    -0.084 Cl
ATOM     15  C   UNL     1      -4.431   2.010  24.723  0.00  0.00    -0.033 A 
ATOM     19  C   UNL     1      -3.784   1.630  23.547  0.00  0.00    +0.006 A 
ATOM     20  C   UNL     1      -5.036   1.045  25.529  0.00  0.00    +0.006 A 
ATOM     21  C   UNL     1      -3.742   0.287  23.176  0.00  0.00    +0.020 A 
ATOM     22  C   UNL     1      -4.995  -0.299  25.158  0.00  0.00    +0.020 A 
ATOM     23  C   UNL     1      -4.348  -0.679  23.982  0.00  0.00    +0.041 A 
ENDBRANCH  12  15
ENDBRANCH   5  12
ENDBRANCH   6   5
TORSDOF 7
ENDMDL
MODEL 7
REMARK VINA RESULT:      -2.6      1.503      2.162
REMARK  Name = 75536102
REMARK  8 active torsions:
REMARK  status: ('A' for Active; 'I' for Inactive)
REMARK    1  A    between atoms: O_2  and  C_8
REMARK    2  A    between atoms: O_3  and  C_10
REMARK    3  A    between atoms: O_4  and  C_18
REMARK    4  A    between atoms: O_4  and  C_24
REMARK    5  A    between atoms: N_5  and  C_6
REMARK    6  A    between atoms: N_5  and  C_12
REMARK    7  A    between atoms: C_7  and  C_11
REMARK    8  A    between atoms: C_12  and  C_15
REMARK                            x       y       z     vdW  Elec       q    Type
REMARK                         _______ _______ _______ _____ _____    ______ ____
ROOT
ATOM      6  C   UNL     1      -4.297   2.888  25.468  0.00  0.00    +0.092 C 
ATOM      7  C   UNL     1      -2.799   3.106  25.778  0.00  0.00    +0.041 C 
ATOM      8  C   UNL     1      -4.911   4.263  25.734  0.00  0.00    +0.160 C 
ATOM      9  C   UNL     1      -2.544   4.620  25.545  0.00  0.00    +0.043 C 
ATOM     10  C   UNL     1      -3.888   5.211  25.116  0.00  0.00    +0.145 C 
ENDROOT
BRANCH   7  11
ATOM     11  C   UNL     1      -1.888   2.194  24.986  0.00  0.00    -0.042 A 
ATOM     13  C   UNL     1      -2.151   1.942  23.640  0.00  0.00    +0.007 A 
ATOM     14  C   UNL     1      -0.783   1.606  25.602  0.00  0.00    +0.007 A 
ATOM     16  C   UNL     1      -1.310   1.101  22.910  0.00  0.00    +0.046 A 
ATOM     17  C   UNL     1       0.057   0.765  24.873  0.00  0.00    +0.046 A 
ATOM     18  C   UNL     1      -0.206   0.513  23.526  0.00  0.00    +0.120 A 
BRANCH  18   4
ATOM      4  O   UNL     1       0.615  -0.305  22.814  0.00  0.00    -0.495 OA
ATOM     24  C   UNL     1       1.980   0.091  22.692  0.00  0.00    +0.277 C 
ENDBRANCH  18   4
ENDBRANCH   7  11
BRANCH   8   2
ATOM      2  O   UNL     1      -6.186   4.391  25.133  0.00  0.00    -0.388 OA
ATOM     26  H   UNL     1      -6.132   3.990  24.249  0.00  0.00    +0.210 HD
ENDBRANCH   8   2
BRANCH  10   3
ATOM      3  O   UNL     1      -3.988   5.184  23.695  0.00  0.00    -0.389 OA
ATOM     27  H   UNL     1      -3.142   5.504  23.338  0.00  0.00    +0.210 HD
ENDBRANCH  10   3
BRANCH   6   5
ATOM      5  N   UNL     1      -4.889   1.859  26.316  0.00  0.00    -0.306 NA
ATOM     25  H   UNL     1      -4.159   1.448  26.900  0.00  0.00    +0.123 HD
BRANCH   5  12
ATOM     12  C   UNL     1      -5.488   0.804  25.510  0.00  0.00    +0.116 C 
BRANCH  12  15
ATOM      1 CL   UNL     1      -1.470  -3.405  23.982  0.00  0.00    -0.084 Cl
ATOM     15  C   UNL     1      -4.483  -0.249  25.129  0.00  0.00    -0.033 A 
ATOM     19  C   UNL     1      -4.503  -0.800  23.847  0.00  0.00    +0.006 A 
ATOM     20  C   UNL     1      -3.532  -0.675  26.056  0.00  0.00    +0.006 A 
ATOM     21  C   UNL     1      -3.572  -1.776  23.493  0.00  0.00    +0.020 A 
ATOM     22  C   UNL     1      -2.601  -1.651  25.702  0.00  0.00    +0.020 A 
ATOM     23  C   UNL     1      -2.621  -2.202  24.420  0.00  0.00    +0.041 A 
ENDBRANCH  12  15
ENDBRANCH   5  12
ENDBRANCH   6   5
TORSDOF 7
ENDMDL
MODEL 8
REMARK VINA RESULT:      -2.6     17.496     19.233
REMARK  Name = 75536102
REMARK  8 active torsions:
REMARK  status: ('A' for Active; 'I' for Inactive)
REMARK    1  A    between atoms: O_2  and  C_8
REMARK    2  A    between atoms: O_3  and  C_10
REMARK    3  A    between atoms: O_4  and  C_18
REMARK    4  A    between atoms: O_4  and  C_24
REMARK    5  A    between atoms: N_5  and  C_6
REMARK    6  A    between atoms: N_5  and  C_12
REMARK    7  A    between atoms: C_7  and  C_11
REMARK    8  A    between atoms: C_12  and  C_15
REMARK                            x       y       z     vdW  Elec       q    Type
REMARK                         _______ _______ _______ _____ _____    ______ ____
ROOT
ATOM      6  C   UNL     1      14.884  -6.120  31.106  0.00  0.00    +0.092 C 
ATOM      7  C   UNL     1      16.235  -6.661  30.588  0.00  0.00    +0.041 C 
ATOM      8  C   UNL     1      15.301  -5.012  32.073  0.00  0.00    +0.160 C 
ATOM      9  C   UNL     1      17.235  -5.481  30.730  0.00  0.00    +0.043 C 
ATOM     10  C   UNL     1      16.433  -4.321  31.320  0.00  0.00    +0.145 C 
ENDROOT
BRANCH   7  11
ATOM     11  C   UNL     1      16.151  -7.236  29.190  0.00  0.00    -0.042 A 
ATOM     13  C   UNL     1      16.623  -8.523  28.935  0.00  0.00    +0.007 A 
ATOM     14  C   UNL     1      15.599  -6.478  28.157  0.00  0.00    +0.007 A 
ATOM     16  C   UNL     1      16.544  -9.052  27.646  0.00  0.00    +0.046 A 
ATOM     17  C   UNL     1      15.521  -7.007  26.869  0.00  0.00    +0.046 A 
ATOM     18  C   UNL     1      15.994  -8.295  26.613  0.00  0.00    +0.120 A 
BRANCH  18   4
ATOM      4  O   UNL     1      15.915  -8.812  25.357  0.00  0.00    -0.495 OA
ATOM     24  C   UNL     1      15.889 -10.234  25.241  0.00  0.00    +0.277 C 
ENDBRANCH  18   4
ENDBRANCH   7  11
BRANCH   8   2
ATOM      2  O   UNL     1      14.229  -4.129  32.349  0.00  0.00    -0.388 OA
ATOM     26  H   UNL     1      14.482  -3.597  33.122  0.00  0.00    +0.210 HD
ENDBRANCH   8   2
BRANCH  10   3
ATOM      3  O   UNL     1      15.907  -3.521  30.265  0.00  0.00    -0.389 OA
ATOM     27  H   UNL     1      15.654  -2.664  30.648  0.00  0.00    +0.210 HD
ENDBRANCH  10   3
BRANCH   6   5
ATOM      5  N   UNL     1      14.100  -7.153  31.774  0.00  0.00    -0.306 NA
ATOM     25  H   UNL     1      14.720  -7.720  32.354  0.00  0.00    +0.123 HD
BRANCH   5  12
ATOM     12  C   UNL     1      13.450  -8.022  30.802  0.00  0.00    +0.116 C 
BRANCH  12  15
ATOM      1 CL   UNL     1       8.237 -10.197  32.873  0.00  0.00    -0.084 Cl
ATOM     15  C   UNL     1      12.145  -8.565  31.320  0.00  0.00    -0.033 A 
ATOM     19  C   UNL     1      11.927  -9.943  31.351  0.00  0.00    +0.006 A 
ATOM     20  C   UNL     1      11.155  -7.692  31.769  0.00  0.00    +0.006 A 
ATOM     21  C   UNL     1      10.719 -10.448  31.830  0.00  0.00    +0.020 A 
ATOM     22  C   UNL     1       9.946  -8.197  32.248  0.00  0.00    +0.020 A 
ATOM     23  C   UNL     1       9.727  -9.574  32.279  0.00  0.00    +0.041 A 
ENDBRANCH  12  15
ENDBRANCH   5  12
ENDBRANCH   6   5
TORSDOF 7
ENDMDL
MODEL 9
REMARK VINA RESULT:      -2.4      2.567      4.962
REMARK  Name = 75536102
REMARK  8 active torsions:
REMARK  status: ('A' for Active; 'I' for Inactive)
REMARK    1  A    between atoms: O_2  and  C_8
REMARK    2  A    between atoms: O_3  and  C_10
REMARK    3  A    between atoms: O_4  and  C_18
REMARK    4  A    between atoms: O_4  and  C_24
REMARK    5  A    between atoms: N_5  and  C_6
REMARK    6  A    between atoms: N_5  and  C_12
REMARK    7  A    between atoms: C_7  and  C_11
REMARK    8  A    between atoms: C_12  and  C_15
REMARK                            x       y       z     vdW  Elec       q    Type
REMARK                         _______ _______ _______ _____ _____    ______ ____
ROOT
ATOM      6  C   UNL     1      -3.811   2.783  25.462  0.00  0.00    +0.092 C 
ATOM      7  C   UNL     1      -4.562   1.907  24.434  0.00  0.00    +0.041 C 
ATOM      8  C   UNL     1      -4.791   3.927  25.725  0.00  0.00    +0.160 C 
ATOM      9  C   UNL     1      -6.070   2.188  24.675  0.00  0.00    +0.043 C 
ATOM     10  C   UNL     1      -6.131   3.204  25.816  0.00  0.00    +0.145 C 
ENDROOT
BRANCH   7  11
ATOM     11  C   UNL     1      -4.184   0.443  24.510  0.00  0.00    -0.042 A 
ATOM     13  C   UNL     1      -3.968  -0.159  25.749  0.00  0.00    +0.007 A 
ATOM     14  C   UNL     1      -4.053  -0.305  23.339  0.00  0.00    +0.007 A 
ATOM     16  C   UNL     1      -3.620  -1.509  25.818  0.00  0.00    +0.046 A 
ATOM     17  C   UNL     1      -3.705  -1.653  23.408  0.00  0.00    +0.046 A 
ATOM     18  C   UNL     1      -3.489  -2.256  24.648  0.00  0.00    +0.120 A 
BRANCH  18   4
ATOM      4  O   UNL     1      -3.151  -3.572  24.715  0.00  0.00    -0.495 OA
ATOM     24  C   UNL     1      -2.389  -4.103  23.632  0.00  0.00    +0.277 C 
ENDBRANCH  18   4
ENDBRANCH   7  11
BRANCH   8   2
ATOM      2  O   UNL     1      -4.477   4.617  26.920  0.00  0.00    -0.388 OA
ATOM     26  H   UNL     1      -4.059   3.980  27.524  0.00  0.00    +0.210 HD
ENDBRANCH   8   2
BRANCH  10   3
ATOM      3  O   UNL     1      -6.237   2.517  27.060  0.00  0.00    -0.389 OA
ATOM     27  H   UNL     1      -6.275   1.565  26.864  0.00  0.00    +0.210 HD
ENDBRANCH  10   3
BRANCH   6   5
ATOM      5  N   UNL     1      -2.538   3.271  24.941  0.00  0.00    -0.306 NA
ATOM     25  H   UNL     1      -2.441   2.975  23.968  0.00  0.00    +0.123 HD
BRANCH   5  12
ATOM     12  C   UNL     1      -1.423   2.729  25.704  0.00  0.00    +0.116 C 
BRANCH  12  15
ATOM      1 CL   UNL     1       2.188  -0.663  22.290  0.00  0.00    -0.084 Cl
ATOM     15  C   UNL     1      -0.518   1.881  24.851  0.00  0.00    -0.033 A 
ATOM     19  C   UNL     1      -0.820   0.535  24.639  0.00  0.00    +0.006 A 
ATOM     20  C   UNL     1       0.620   2.440  24.271  0.00  0.00    +0.006 A 
ATOM     21  C   UNL     1       0.017  -0.251  23.848  0.00  0.00    +0.020 A 
ATOM     22  C   UNL     1       1.458   1.653  23.480  0.00  0.00    +0.020 A 
ATOM     23  C   UNL     1       1.157   0.307  23.268  0.00  0.00    +0.041 A 
ENDBRANCH  12  15
ENDBRANCH   5  12
ENDBRANCH   6   5
TORSDOF 7
ENDMDL
MODEL 10
REMARK VINA RESULT:      -1.7      2.641      4.444
REMARK  Name = 75536102
REMARK  8 active torsions:
REMARK  status: ('A' for Active; 'I' for Inactive)
REMARK    1  A    between atoms: O_2  and  C_8
REMARK    2  A    between atoms: O_3  and  C_10
REMARK    3  A    between atoms: O_4  and  C_18
REMARK    4  A    between atoms: O_4  and  C_24
REMARK    5  A    between atoms: N_5  and  C_6
REMARK    6  A    between atoms: N_5  and  C_12
REMARK    7  A    between atoms: C_7  and  C_11
REMARK    8  A    between atoms: C_12  and  C_15
REMARK                            x       y       z     vdW  Elec       q    Type
REMARK                         _______ _______ _______ _____ _____    ______ ____
ROOT
ATOM      6  C   UNL     1      -4.749   3.276  24.640  0.00  0.00    +0.092 C 
ATOM      7  C   UNL     1      -4.780   1.829  24.099  0.00  0.00    +0.041 C 
ATOM      8  C   UNL     1      -6.173   3.485  25.155  0.00  0.00    +0.160 C 
ATOM      9  C   UNL     1      -5.905   1.113  24.895  0.00  0.00    +0.043 C 
ATOM     10  C   UNL     1      -6.474   2.162  25.852  0.00  0.00    +0.145 C 
ENDROOT
BRANCH   7  11
ATOM     11  C   UNL     1      -3.435   1.137  24.168  0.00  0.00    -0.042 A 
ATOM     13  C   UNL     1      -3.163   0.241  25.200  0.00  0.00    +0.007 A 
ATOM     14  C   UNL     1      -2.467   1.398  23.198  0.00  0.00    +0.007 A 
ATOM     16  C   UNL     1      -1.923  -0.396  25.263  0.00  0.00    +0.046 A 
ATOM     17  C   UNL     1      -1.228   0.762  23.260  0.00  0.00    +0.046 A 
ATOM     18  C   UNL     1      -0.956  -0.136  24.294  0.00  0.00    +0.120 A 
BRANCH  18   4
ATOM      4  O   UNL     1       0.253  -0.758  24.354  0.00  0.00    -0.495 OA
ATOM     24  C   UNL     1       1.178  -0.482  23.303  0.00  0.00    +0.277 C 
ENDBRANCH  18   4
ENDBRANCH   7  11
BRANCH   8   2
ATOM      2  O   UNL     1      -6.251   4.584  26.044  0.00  0.00    -0.388 OA
ATOM     26  H   UNL     1      -6.124   5.392  25.519  0.00  0.00    +0.210 HD
ENDBRANCH   8   2
BRANCH  10   3
ATOM      3  O   UNL     1      -5.785   2.093  27.097  0.00  0.00    -0.389 OA
ATOM     27  H   UNL     1      -5.968   1.220  27.484  0.00  0.00    +0.210 HD
ENDBRANCH  10   3
BRANCH   6   5
ATOM      5  N   UNL     1      -4.402   4.242  23.603  0.00  0.00    -0.306 NA
ATOM     25  H   UNL     1      -4.066   3.741  22.780  0.00  0.00    +0.123 HD
BRANCH   5  12
ATOM     12  C   UNL     1      -3.351   5.140  24.061  0.00  0.00    +0.116 C 
BRANCH  12  15
ATOM      1 CL   UNL     1       0.805   2.253  27.315  0.00  0.00    -0.084 Cl
ATOM     15  C   UNL     1      -2.312   4.417  24.876  0.00  0.00    -0.033 A 
ATOM     19  C   UNL     1      -1.025   4.242  24.367  0.00  0.00    +0.006 A 
ATOM     20  C   UNL     1      -2.635   3.922  26.139  0.00  0.00    +0.006 A 
ATOM     21  C   UNL     1      -0.062   3.572  25.120  0.00  0.00    +0.020 A 
ATOM     22  C   UNL     1      -1.671   3.252  26.893  0.00  0.00    +0.020 A 
ATOM     23  C   UNL     1      -0.384   3.077  26.384  0.00  0.00    +0.041 A 
ENDBRANCH  12  15
ENDBRANCH   5  12
ENDBRANCH   6   5
TORSDOF 7
ENDMDL
