MODEL 1
REMARK VINA RESULT:       9.8      0.000      0.000
REMARK  Name = 11867055
REMARK  9 active torsions:
REMARK  status: ('A' for Active; 'I' for Inactive)
REMARK    1  A    between atoms: O_3  and  C_15
REMARK    2  A    between atoms: O_4  and  C_20
REMARK    3  A    between atoms: N_8  and  C_26
REMARK    4  A    between atoms: C_10  and  C_18
REMARK    5  A    between atoms: C_12  and  C_20
REMARK    6  A    between atoms: C_12  and  C_21
REMARK    7  A    between atoms: C_13  and  C_23
REMARK    8  A    between atoms: C_23  and  C_24
REMARK    9  A    between atoms: C_31  and  C_32
REMARK                            x       y       z     vdW  Elec       q    Type
REMARK                         _______ _______ _______ _____ _____    ______ ____
ROOT
ATOM      1  S   UNL     1       0.236   2.109  25.824  0.00  0.00    -0.057 S 
ATOM      6  O   UNL     1       1.745  -0.061  21.992  0.00  0.00    -0.270 OA
ATOM      7  N   UNL     1      -0.457   1.220  23.496  0.00  0.00    -0.229 NA
ATOM      9  N   UNL     1       1.843   0.901  24.141  0.00  0.00    -0.261 N 
ATOM     10  C   UNL     1      -4.097   2.141  24.370  0.00  0.00    -0.019 C 
ATOM     11  C   UNL     1      -3.651   3.361  25.291  0.00  0.00    +0.011 C 
ATOM     12  C   UNL     1      -4.788   4.116  26.079  0.00  0.00    +0.021 C 
ATOM     13  C   UNL     1      -2.902   1.823  23.358  0.00  0.00    +0.054 C 
ATOM     14  C   UNL     1      -5.344   2.549  23.542  0.00  0.00    +0.010 C 
ATOM     15  C   UNL     1      -5.975   4.406  25.117  0.00  0.00    +0.123 C 
ATOM     16  C   UNL     1      -2.419   2.991  26.167  0.00  0.00    +0.049 C 
ATOM     17  C   UNL     1      -6.459   3.168  24.372  0.00  0.00    +0.032 C 
ATOM     18  C   UNL     1      -4.436   0.867  25.183  0.00  0.00    +0.012 C 
ATOM     19  C   UNL     1      -1.580   1.777  24.079  0.00  0.00    +0.058 A 
ATOM     21  C   UNL     1      -4.242   5.488  26.567  0.00  0.00    +0.016 C 
ATOM     22  C   UNL     1      -1.380   2.323  25.331  0.00  0.00    +0.015 A 
ATOM     25  C   UNL     1       0.556   1.331  24.327  0.00  0.00    +0.165 A 
ATOM     31  C   UNL     1       2.355   0.244  23.010  0.00  0.00    +0.250 C 
ATOM     41  H   UNL     1       2.464   1.137  24.909  0.00  0.00    +0.157 HD
ENDROOT
BRANCH  31  32
ATOM      2  F   UNL     1       7.831  -0.987  23.222  0.00  0.00    -0.205 F 
ATOM     32  C   UNL     1       3.805  -0.082  23.066  0.00  0.00    +0.037 A 
ATOM     33  C   UNL     1       4.743   0.822  22.568  0.00  0.00    +0.016 A 
ATOM     34  C   UNL     1       4.227  -1.292  23.617  0.00  0.00    +0.016 A 
ATOM     35  C   UNL     1       6.103   0.517  22.620  0.00  0.00    +0.039 A 
ATOM     36  C   UNL     1       5.587  -1.598  23.669  0.00  0.00    +0.039 A 
ATOM     37  C   UNL     1       6.524  -0.694  23.171  0.00  0.00    +0.123 A 
ENDBRANCH  31  32
BRANCH  15   3
ATOM      3  O   UNL     1      -7.073   4.974  25.829  0.00  0.00    -0.391 OA
ATOM     38  H   UNL     1      -7.369   5.759  25.338  0.00  0.00    +0.210 HD
ENDBRANCH  15   3
BRANCH  12  20
ATOM     20  C   UNL     1      -5.277   3.389  27.352  0.00  0.00    +0.165 C 
BRANCH  20   4
ATOM      4  O   UNL     1      -6.350   2.551  26.985  0.00  0.00    -0.394 OA
ATOM     39  H   UNL     1      -6.773   2.246  27.805  0.00  0.00    +0.209 HD
ENDBRANCH  20   4
ENDBRANCH  12  20
BRANCH  13  23
ATOM     23  C   UNL     1      -3.114   0.574  22.493  0.00  0.00    +0.106 C 
BRANCH  23  24
ATOM      5  O   UNL     1      -4.265  -1.271  23.554  0.00  0.00    -0.276 OA
ATOM      8  N   UNL     1      -1.962  -1.067  23.793  0.00  0.00    -0.312 N 
ATOM     24  C   UNL     1      -3.211  -0.683  23.327  0.00  0.00    +0.214 C 
ATOM     40  H   UNL     1      -1.147  -0.533  23.503  0.00  0.00    +0.149 HD
BRANCH   8  26
ATOM     26  C   UNL     1      -1.753  -2.231  24.618  0.00  0.00    +0.073 C 
ATOM     27  C   UNL     1      -2.961  -2.517  25.501  0.00  0.00    +0.022 C 
ATOM     28  C   UNL     1      -0.638  -2.015  25.634  0.00  0.00    +0.022 C 
ATOM     29  C   UNL     1      -2.798  -1.577  26.692  0.00  0.00    +0.002 C 
ATOM     30  C   UNL     1      -1.301  -1.289  26.802  0.00  0.00    +0.002 C 
ENDBRANCH   8  26
ENDBRANCH  23  24
ENDBRANCH  13  23
TORSDOF 7
ENDMDL
