MODEL 1
REMARK VINA RESULT:       8.5      0.000      0.000
REMARK  Name = 7686467
REMARK  5 active torsions:
REMARK  status: ('A' for Active; 'I' for Inactive)
REMARK    1  A    between atoms: N_3  and  C_13
REMARK    2  A    between atoms: C_13  and  C_17
REMARK    3  A    between atoms: C_14  and  C_19
REMARK    4  A    between atoms: C_22  and  C_26
REMARK    5  A    between atoms: C_23  and  C_29
REMARK                            x       y       z     vdW  Elec       q    Type
REMARK                         _______ _______ _______ _____ _____    ______ ____
ROOT
ATOM      2  O   UNL     1      -4.741   5.458  26.961  0.00  0.00    -0.268 OA
ATOM      3  N   UNL     1      -4.356   0.692  25.471  0.00  0.00    -0.297 NA
ATOM      4  N   UNL     1      -4.107   3.872  25.360  0.00  0.00    -0.311 N 
ATOM      6  C   UNL     1      -5.826   2.317  24.258  0.00  0.00    +0.024 C 
ATOM      7  C   UNL     1      -3.463   2.150  23.650  0.00  0.00    +0.051 C 
ATOM      8  C   UNL     1      -4.867   2.346  23.082  0.00  0.00    +0.017 C 
ATOM      9  C   UNL     1      -5.719   0.973  25.007  0.00  0.00    +0.090 C 
ATOM     10  C   UNL     1      -3.387   0.783  24.370  0.00  0.00    +0.094 C 
ATOM     11  C   UNL     1      -5.519   3.518  25.155  0.00  0.00    +0.130 C 
ATOM     12  C   UNL     1      -3.072   3.281  24.606  0.00  0.00    +0.033 A 
ATOM     14  C   UNL     1      -1.787   3.704  24.755  0.00  0.00    -0.005 A 
ATOM     15  C   UNL     1      -3.874   4.899  26.289  0.00  0.00    +0.252 A 
ATOM     16  C   UNL     1      -1.519   4.768  25.709  0.00  0.00    +0.015 A 
ATOM     18  C   UNL     1      -2.471   5.339  26.445  0.00  0.00    +0.071 A 
ENDROOT
BRANCH  14  19
ATOM     19  C   UNL     1      -0.674   3.117  24.027  0.00  0.00    +0.010 C 
ATOM     22  C   UNL     1      -0.124   1.956  24.374  0.00  0.00    +0.008 C 
BRANCH  22  26
ATOM      1 CL   UNL     1       4.464  -0.592  21.540  0.00  0.00    -0.084 Cl
ATOM     26  C   UNL     1       1.009   1.327  23.674  0.00  0.00    -0.025 A 
ATOM     27  C   UNL     1       2.253   1.935  23.713  0.00  0.00    +0.009 A 
ATOM     28  C   UNL     1       0.809   0.138  22.989  0.00  0.00    +0.009 A 
ATOM     30  C   UNL     1       3.326   1.340  23.049  0.00  0.00    +0.020 A 
ATOM     31  C   UNL     1       1.881  -0.457  22.327  0.00  0.00    +0.020 A 
ATOM     32  C   UNL     1       3.141   0.143  22.357  0.00  0.00    +0.041 A 
ENDBRANCH  22  26
ENDBRANCH  14  19
BRANCH   3  13
ATOM     13  C   UNL     1      -4.284  -0.612  26.127  0.00  0.00    +0.119 C 
BRANCH  13  17
ATOM     17  C   UNL     1      -3.401  -1.571  25.374  0.00  0.00    -0.032 A 
ATOM     20  C   UNL     1      -2.034  -1.577  25.618  0.00  0.00    +0.023 A 
ATOM     21  C   UNL     1      -3.965  -2.436  24.447  0.00  0.00    +0.005 A 
ATOM     23  C   UNL     1      -1.217  -2.466  24.921  0.00  0.00    +0.052 A 
ATOM     24  C   UNL     1      -3.147  -3.325  23.751  0.00  0.00    +0.002 A 
ATOM     25  C   UNL     1      -1.773  -3.341  23.987  0.00  0.00    +0.019 A 
BRANCH  23  29
ATOM      5  N   UNL     1       1.336  -2.496  25.362  0.00  0.00    -0.191 NA
ATOM     29  C   UNL     1       0.191  -2.483  25.165  0.00  0.00    +0.099 C 
ENDBRANCH  23  29
ENDBRANCH  13  17
ENDBRANCH   3  13
TORSDOF 5
ENDMDL
MODEL 2
REMARK VINA RESULT:       9.2      1.435      1.779
REMARK  Name = 7686467
REMARK  5 active torsions:
REMARK  status: ('A' for Active; 'I' for Inactive)
REMARK    1  A    between atoms: N_3  and  C_13
REMARK    2  A    between atoms: C_13  and  C_17
REMARK    3  A    between atoms: C_14  and  C_19
REMARK    4  A    between atoms: C_22  and  C_26
REMARK    5  A    between atoms: C_23  and  C_29
REMARK                            x       y       z     vdW  Elec       q    Type
REMARK                         _______ _______ _______ _____ _____    ______ ____
ROOT
ATOM      2  O   UNL     1      -3.064   6.218  24.869  0.00  0.00    -0.268 OA
ATOM      3  N   UNL     1      -3.852   1.305  24.290  0.00  0.00    -0.297 NA
ATOM      4  N   UNL     1      -2.452   4.154  23.949  0.00  0.00    -0.311 N 
ATOM      6  C   UNL     1      -4.007   2.883  22.351  0.00  0.00    +0.024 C 
ATOM      7  C   UNL     1      -1.837   1.931  22.954  0.00  0.00    +0.051 C 
ATOM      8  C   UNL     1      -2.714   2.340  21.772  0.00  0.00    +0.017 C 
ATOM      9  C   UNL     1      -4.707   1.808  23.208  0.00  0.00    +0.090 C 
ATOM     10  C   UNL     1      -2.558   0.836  23.774  0.00  0.00    +0.094 C 
ATOM     11  C   UNL     1      -3.681   4.151  23.143  0.00  0.00    +0.130 C 
ATOM     12  C   UNL     1      -1.489   3.128  23.846  0.00  0.00    +0.033 A 
ATOM     14  C   UNL     1      -0.319   3.213  24.535  0.00  0.00    -0.005 A 
ATOM     15  C   UNL     1      -2.264   5.289  24.754  0.00  0.00    +0.252 A 
ATOM     16  C   UNL     1      -0.098   4.380  25.374  0.00  0.00    +0.015 A 
ATOM     18  C   UNL     1      -0.992   5.360  25.503  0.00  0.00    +0.071 A 
ENDROOT
BRANCH  14  19
ATOM     19  C   UNL     1       0.700   2.178  24.490  0.00  0.00    +0.010 C 
ATOM     22  C   UNL     1       1.535   2.040  23.462  0.00  0.00    +0.008 C 
BRANCH  22  26
ATOM      1 CL   UNL     1       5.749  -2.164  23.081  0.00  0.00    -0.084 Cl
ATOM     26  C   UNL     1       2.576   1.002  23.367  0.00  0.00    -0.025 A 
ATOM     27  C   UNL     1       3.890   1.376  23.142  0.00  0.00    +0.009 A 
ATOM     28  C   UNL     1       2.220  -0.331  23.506  0.00  0.00    +0.009 A 
ATOM     30  C   UNL     1       4.876   0.394  23.052  0.00  0.00    +0.020 A 
ATOM     31  C   UNL     1       3.205  -1.314  23.418  0.00  0.00    +0.020 A 
ATOM     32  C   UNL     1       4.534  -0.952  23.191  0.00  0.00    +0.041 A 
ENDBRANCH  22  26
ENDBRANCH  14  19
BRANCH   3  13
ATOM     13  C   UNL     1      -4.529   0.253  25.045  0.00  0.00    +0.119 C 
BRANCH  13  17
ATOM     17  C   UNL     1      -3.873  -1.088  24.849  0.00  0.00    -0.032 A 
ATOM     20  C   UNL     1      -2.538  -1.253  25.193  0.00  0.00    +0.023 A 
ATOM     21  C   UNL     1      -4.612  -2.141  24.329  0.00  0.00    +0.005 A 
ATOM     23  C   UNL     1      -1.931  -2.495  25.012  0.00  0.00    +0.052 A 
ATOM     24  C   UNL     1      -4.005  -3.383  24.149  0.00  0.00    +0.002 A 
ATOM     25  C   UNL     1      -2.665  -3.561  24.490  0.00  0.00    +0.019 A 
BRANCH  23  29
ATOM      5  N   UNL     1       0.558  -2.827  25.650  0.00  0.00    -0.191 NA
ATOM     29  C   UNL     1      -0.558  -2.678  25.363  0.00  0.00    +0.099 C 
ENDBRANCH  23  29
ENDBRANCH  13  17
ENDBRANCH   3  13
TORSDOF 5
ENDMDL
MODEL 3
REMARK VINA RESULT:      10.8      0.964      1.659
REMARK  Name = 7686467
REMARK  5 active torsions:
REMARK  status: ('A' for Active; 'I' for Inactive)
REMARK    1  A    between atoms: N_3  and  C_13
REMARK    2  A    between atoms: C_13  and  C_17
REMARK    3  A    between atoms: C_14  and  C_19
REMARK    4  A    between atoms: C_22  and  C_26
REMARK    5  A    between atoms: C_23  and  C_29
REMARK                            x       y       z     vdW  Elec       q    Type
REMARK                         _______ _______ _______ _____ _____    ______ ____
ROOT
ATOM      2  O   UNL     1      -4.756   5.406  26.861  0.00  0.00    -0.268 OA
ATOM      3  N   UNL     1      -4.181   0.663  25.358  0.00  0.00    -0.297 NA
ATOM      4  N   UNL     1      -4.026   3.850  25.271  0.00  0.00    -0.311 N 
ATOM      6  C   UNL     1      -5.664   2.250  24.111  0.00  0.00    +0.024 C 
ATOM      7  C   UNL     1      -3.280   2.159  23.572  0.00  0.00    +0.051 C 
ATOM      8  C   UNL     1      -4.672   2.315  22.963  0.00  0.00    +0.017 C 
ATOM      9  C   UNL     1      -5.538   0.905  24.855  0.00  0.00    +0.090 C 
ATOM     10  C   UNL     1      -3.183   0.790  24.286  0.00  0.00    +0.094 C 
ATOM     11  C   UNL     1      -5.420   3.454  25.022  0.00  0.00    +0.130 C 
ATOM     12  C   UNL     1      -2.952   3.296  24.545  0.00  0.00    +0.033 A 
ATOM     14  C   UNL     1      -1.685   3.756  24.734  0.00  0.00    -0.005 A 
ATOM     15  C   UNL     1      -3.853   4.878  26.212  0.00  0.00    +0.252 A 
ATOM     16  C   UNL     1      -1.479   4.823  25.701  0.00  0.00    +0.015 A 
ATOM     18  C   UNL     1      -2.469   5.359  26.412  0.00  0.00    +0.071 A 
ENDROOT
BRANCH  14  19
ATOM     19  C   UNL     1      -0.535   3.209  24.036  0.00  0.00    +0.010 C 
ATOM     22  C   UNL     1      -0.040   2.003  24.308  0.00  0.00    +0.008 C 
BRANCH  22  26
ATOM      1 CL   UNL     1       4.691  -0.396  21.579  0.00  0.00    -0.084 Cl
ATOM     26  C   UNL     1       1.128   1.410  23.634  0.00  0.00    -0.025 A 
ATOM     27  C   UNL     1       1.027   0.141  23.089  0.00  0.00    +0.009 A 
ATOM     28  C   UNL     1       2.308   2.134  23.558  0.00  0.00    +0.009 A 
ATOM     30  C   UNL     1       2.133  -0.421  22.452  0.00  0.00    +0.020 A 
ATOM     31  C   UNL     1       3.414   1.574  22.920  0.00  0.00    +0.020 A 
ATOM     32  C   UNL     1       3.327   0.296  22.366  0.00  0.00    +0.041 A 
ENDBRANCH  22  26
ENDBRANCH  14  19
BRANCH   3  13
ATOM     13  C   UNL     1      -4.089  -0.643  26.008  0.00  0.00    +0.119 C 
BRANCH  13  17
ATOM     17  C   UNL     1      -2.816  -1.360  25.647  0.00  0.00    -0.032 A 
ATOM     20  C   UNL     1      -2.827  -2.300  24.625  0.00  0.00    +0.023 A 
ATOM     21  C   UNL     1      -1.648  -1.072  26.339  0.00  0.00    +0.005 A 
ATOM     23  C   UNL     1      -1.648  -2.964  24.290  0.00  0.00    +0.052 A 
ATOM     24  C   UNL     1      -0.469  -1.736  26.003  0.00  0.00    +0.002 A 
ATOM     25  C   UNL     1      -0.467  -2.682  24.979  0.00  0.00    +0.019 A 
BRANCH  23  29
ATOM      5  N   UNL     1      -1.645  -4.721  22.385  0.00  0.00    -0.191 NA
ATOM     29  C   UNL     1      -1.646  -3.933  23.239  0.00  0.00    +0.099 C 
ENDBRANCH  23  29
ENDBRANCH  13  17
ENDBRANCH   3  13
TORSDOF 5
ENDMDL
MODEL 4
REMARK VINA RESULT:      10.9      2.531      5.594
REMARK  Name = 7686467
REMARK  5 active torsions:
REMARK  status: ('A' for Active; 'I' for Inactive)
REMARK    1  A    between atoms: N_3  and  C_13
REMARK    2  A    between atoms: C_13  and  C_17
REMARK    3  A    between atoms: C_14  and  C_19
REMARK    4  A    between atoms: C_22  and  C_26
REMARK    5  A    between atoms: C_23  and  C_29
REMARK                            x       y       z     vdW  Elec       q    Type
REMARK                         _______ _______ _______ _____ _____    ______ ____
ROOT
ATOM      2  O   UNL     1      -4.791  -3.860  23.362  0.00  0.00    -0.268 OA
ATOM      3  N   UNL     1      -3.358   0.855  24.257  0.00  0.00    -0.297 NA
ATOM      4  N   UNL     1      -3.380  -2.332  24.437  0.00  0.00    -0.311 N 
ATOM      6  C   UNL     1      -4.297  -0.585  26.078  0.00  0.00    +0.024 C 
ATOM      7  C   UNL     1      -1.901  -0.667  25.597  0.00  0.00    +0.051 C 
ATOM      8  C   UNL     1      -2.929  -0.703  26.726  0.00  0.00    +0.017 C 
ATOM      9  C   UNL     1      -4.403   0.730  25.279  0.00  0.00    +0.090 C 
ATOM     10  C   UNL     1      -2.019   0.674  24.836  0.00  0.00    +0.094 C 
ATOM     11  C   UNL     1      -4.523  -1.824  25.209  0.00  0.00    +0.130 C 
ATOM     12  C   UNL     1      -2.070  -1.847  24.634  0.00  0.00    +0.033 A 
ATOM     14  C   UNL     1      -1.023  -2.409  23.971  0.00  0.00    -0.005 A 
ATOM     15  C   UNL     1      -3.670  -3.390  23.560  0.00  0.00    +0.252 A 
ATOM     16  C   UNL     1      -1.296  -3.508  23.059  0.00  0.00    +0.015 A 
ATOM     18  C   UNL     1      -2.522  -3.981  22.840  0.00  0.00    +0.071 A 
ENDROOT
BRANCH  14  19
ATOM     19  C   UNL     1       0.344  -1.937  24.113  0.00  0.00    +0.010 C 
ATOM     22  C   UNL     1       0.943  -1.189  23.188  0.00  0.00    +0.008 C 
BRANCH  22  26
ATOM      1 CL   UNL     1       6.550   0.807  23.576  0.00  0.00    -0.084 Cl
ATOM     26  C   UNL     1       2.327  -0.696  23.283  0.00  0.00    -0.025 A 
ATOM     27  C   UNL     1       2.625   0.583  22.842  0.00  0.00    +0.009 A 
ATOM     28  C   UNL     1       3.307  -1.521  23.814  0.00  0.00    +0.009 A 
ATOM     30  C   UNL     1       3.936   1.050  22.932  0.00  0.00    +0.020 A 
ATOM     31  C   UNL     1       4.618  -1.055  23.905  0.00  0.00    +0.020 A 
ATOM     32  C   UNL     1       4.933   0.231  23.464  0.00  0.00    +0.041 A 
ENDBRANCH  22  26
ENDBRANCH  14  19
BRANCH   3  13
ATOM     13  C   UNL     1      -3.459   2.135  23.559  0.00  0.00    +0.119 C 
BRANCH  13  17
ATOM     17  C   UNL     1      -2.546   3.173  24.157  0.00  0.00    -0.032 A 
ATOM     20  C   UNL     1      -1.527   2.776  25.012  0.00  0.00    +0.023 A 
ATOM     21  C   UNL     1      -2.735   4.512  23.843  0.00  0.00    +0.005 A 
ATOM     23  C   UNL     1      -0.681   3.737  25.564  0.00  0.00    +0.052 A 
ATOM     24  C   UNL     1      -1.888   5.472  24.396  0.00  0.00    +0.002 A 
ATOM     25  C   UNL     1      -0.861   5.086  25.256  0.00  0.00    +0.019 A 
BRANCH  23  29
ATOM      5  N   UNL     1       1.230   3.019  27.160  0.00  0.00    -0.191 NA
ATOM     29  C   UNL     1       0.373   3.341  26.445  0.00  0.00    +0.099 C 
ENDBRANCH  23  29
ENDBRANCH  13  17
ENDBRANCH   3  13
TORSDOF 5
ENDMDL
MODEL 5
REMARK VINA RESULT:      11.1      3.927      6.501
REMARK  Name = 7686467
REMARK  5 active torsions:
REMARK  status: ('A' for Active; 'I' for Inactive)
REMARK    1  A    between atoms: N_3  and  C_13
REMARK    2  A    between atoms: C_13  and  C_17
REMARK    3  A    between atoms: C_14  and  C_19
REMARK    4  A    between atoms: C_22  and  C_26
REMARK    5  A    between atoms: C_23  and  C_29
REMARK                            x       y       z     vdW  Elec       q    Type
REMARK                         _______ _______ _______ _____ _____    ______ ____
ROOT
ATOM      2  O   UNL     1       0.729  -0.488  21.493  0.00  0.00    -0.268 OA
ATOM      3  N   UNL     1      -3.352  -0.623  24.394  0.00  0.00    -0.297 NA
ATOM      4  N   UNL     1      -0.257  -0.626  23.612  0.00  0.00    -0.311 N 
ATOM      6  C   UNL     1      -1.794  -2.579  24.252  0.00  0.00    +0.024 C 
ATOM      7  C   UNL     1      -1.344  -0.801  25.869  0.00  0.00    +0.051 C 
ATOM      8  C   UNL     1      -1.289  -2.312  25.658  0.00  0.00    +0.017 C 
ATOM      9  C   UNL     1      -3.235  -2.054  24.088  0.00  0.00    +0.090 C 
ATOM     10  C   UNL     1      -2.805  -0.315  25.723  0.00  0.00    +0.094 C 
ATOM     11  C   UNL     1      -0.816  -1.940  23.263  0.00  0.00    +0.130 C 
ATOM     12  C   UNL     1      -0.430  -0.056  24.890  0.00  0.00    +0.033 A 
ATOM     14  C   UNL     1       0.183   1.117  25.207  0.00  0.00    -0.005 A 
ATOM     15  C   UNL     1       0.533  -0.027  22.617  0.00  0.00    +0.252 A 
ATOM     16  C   UNL     1       1.009   1.757  24.196  0.00  0.00    +0.015 A 
ATOM     18  C   UNL     1       1.183   1.251  22.976  0.00  0.00    +0.071 A 
ENDROOT
BRANCH  14  19
ATOM     19  C   UNL     1       0.023   1.767  26.497  0.00  0.00    +0.010 C 
ATOM     22  C   UNL     1       0.879   1.585  27.501  0.00  0.00    +0.008 C 
BRANCH  22  26
ATOM      1 CL   UNL     1       0.369   4.128  32.873  0.00  0.00    -0.084 Cl
ATOM     26  C   UNL     1       0.753   2.214  28.827  0.00  0.00    -0.025 A 
ATOM     27  C   UNL     1      -0.322   3.049  29.084  0.00  0.00    +0.009 A 
ATOM     28  C   UNL     1       1.712   1.957  29.794  0.00  0.00    +0.009 A 
ATOM     30  C   UNL     1      -0.441   3.644  30.339  0.00  0.00    +0.020 A 
ATOM     31  C   UNL     1       1.593   2.551  31.050  0.00  0.00    +0.020 A 
ATOM     32  C   UNL     1       0.516   3.395  31.323  0.00  0.00    +0.041 A 
ENDBRANCH  22  26
ENDBRANCH  14  19
BRANCH   3  13
ATOM     13  C   UNL     1      -4.738  -0.176  24.280  0.00  0.00    +0.119 C 
BRANCH  13  17
ATOM     17  C   UNL     1      -4.908   1.246  24.746  0.00  0.00    -0.032 A 
ATOM     20  C   UNL     1      -3.804   2.086  24.797  0.00  0.00    +0.023 A 
ATOM     21  C   UNL     1      -6.167   1.698  25.116  0.00  0.00    +0.005 A 
ATOM     23  C   UNL     1      -3.962   3.402  25.228  0.00  0.00    +0.052 A 
ATOM     24  C   UNL     1      -6.324   3.015  25.546  0.00  0.00    +0.002 A 
ATOM     25  C   UNL     1      -5.223   3.868  25.602  0.00  0.00    +0.019 A 
BRANCH  23  29
ATOM      5  N   UNL     1      -1.915   4.988  25.329  0.00  0.00    -0.191 NA
ATOM     29  C   UNL     1      -2.832   4.276  25.284  0.00  0.00    +0.099 C 
ENDBRANCH  23  29
ENDBRANCH  13  17
ENDBRANCH   3  13
TORSDOF 5
ENDMDL
MODEL 6
REMARK VINA RESULT:      11.6      2.435      6.213
REMARK  Name = 7686467
REMARK  5 active torsions:
REMARK  status: ('A' for Active; 'I' for Inactive)
REMARK    1  A    between atoms: N_3  and  C_13
REMARK    2  A    between atoms: C_13  and  C_17
REMARK    3  A    between atoms: C_14  and  C_19
REMARK    4  A    between atoms: C_22  and  C_26
REMARK    5  A    between atoms: C_23  and  C_29
REMARK                            x       y       z     vdW  Elec       q    Type
REMARK                         _______ _______ _______ _____ _____    ______ ____
ROOT
ATOM      2  O   UNL     1      -4.472  -3.707  23.609  0.00  0.00    -0.268 OA
ATOM      3  N   UNL     1      -2.630   0.928  24.062  0.00  0.00    -0.297 NA
ATOM      4  N   UNL     1      -2.907  -2.219  24.514  0.00  0.00    -0.311 N 
ATOM      6  C   UNL     1      -3.626  -0.271  26.022  0.00  0.00    +0.024 C 
ATOM      7  C   UNL     1      -1.261  -0.595  25.491  0.00  0.00    +0.051 C 
ATOM      8  C   UNL     1      -2.252  -0.449  26.643  0.00  0.00    +0.017 C 
ATOM      9  C   UNL     1      -3.649   0.978  25.117  0.00  0.00    +0.090 C 
ATOM     10  C   UNL     1      -1.293   0.684  24.622  0.00  0.00    +0.094 C 
ATOM     11  C   UNL     1      -3.980  -1.554  25.268  0.00  0.00    +0.130 C 
ATOM     12  C   UNL     1      -1.557  -1.832  24.637  0.00  0.00    +0.033 A 
ATOM     14  C   UNL     1      -0.580  -2.533  23.999  0.00  0.00    -0.005 A 
ATOM     15  C   UNL     1      -3.311  -3.318  23.739  0.00  0.00    +0.252 A 
ATOM     16  C   UNL     1      -0.971  -3.678  23.191  0.00  0.00    +0.015 A 
ATOM     18  C   UNL     1      -2.238  -4.062  23.044  0.00  0.00    +0.071 A 
ENDROOT
BRANCH  14  19
ATOM     19  C   UNL     1       0.825  -2.168  24.066  0.00  0.00    +0.010 C 
ATOM     22  C   UNL     1       1.341  -1.172  23.349  0.00  0.00    +0.008 C 
BRANCH  22  26
ATOM      1 CL   UNL     1       7.080   0.447  23.463  0.00  0.00    -0.084 Cl
ATOM     26  C   UNL     1       2.758  -0.773  23.376  0.00  0.00    -0.025 A 
ATOM     27  C   UNL     1       3.129   0.452  22.846  0.00  0.00    +0.009 A 
ATOM     28  C   UNL     1       3.695  -1.630  23.933  0.00  0.00    +0.009 A 
ATOM     30  C   UNL     1       4.471   0.831  22.872  0.00  0.00    +0.020 A 
ATOM     31  C   UNL     1       5.036  -1.251  23.961  0.00  0.00    +0.020 A 
ATOM     32  C   UNL     1       5.425  -0.021  23.430  0.00  0.00    +0.041 A 
ENDBRANCH  22  26
ENDBRANCH  14  19
BRANCH   3  13
ATOM     13  C   UNL     1      -2.647   2.150  23.260  0.00  0.00    +0.119 C 
BRANCH  13  17
ATOM     17  C   UNL     1      -2.872   3.374  24.107  0.00  0.00    -0.032 A 
ATOM     20  C   UNL     1      -4.167   3.738  24.452  0.00  0.00    +0.023 A 
ATOM     21  C   UNL     1      -1.782   4.120  24.534  0.00  0.00    +0.005 A 
ATOM     23  C   UNL     1      -4.374   4.871  25.237  0.00  0.00    +0.052 A 
ATOM     24  C   UNL     1      -1.991   5.252  25.320  0.00  0.00    +0.002 A 
ATOM     25  C   UNL     1      -3.286   5.629  25.673  0.00  0.00    +0.019 A 
BRANCH  23  29
ATOM      5  N   UNL     1      -6.782   5.568  25.894  0.00  0.00    -0.191 NA
ATOM     29  C   UNL     1      -5.702   5.256  25.600  0.00  0.00    +0.099 C 
ENDBRANCH  23  29
ENDBRANCH  13  17
ENDBRANCH   3  13
TORSDOF 5
ENDMDL
