MODEL 1
REMARK VINA RESULT:       2.6      0.000      0.000
REMARK  Name = 11885067
REMARK  15 active torsions:
REMARK  status: ('A' for Active; 'I' for Inactive)
REMARK    1  A    between atoms: O_2  and  C_16
REMARK    2  A    between atoms: O_3  and  C_21
REMARK    3  A    between atoms: O_5  and  C_28
REMARK    4  A    between atoms: O_5  and  C_32
REMARK    5  A    between atoms: N_8  and  C_27
REMARK    6  A    between atoms: N_10  and  C_29
REMARK    7  A    between atoms: N_10  and  C_30
REMARK    8  A    between atoms: N_10  and  C_31
REMARK    9  A    between atoms: C_11  and  C_19
REMARK   10  A    between atoms: C_13  and  C_21
REMARK   11  A    between atoms: C_13  and  C_22
REMARK   12  A    between atoms: C_14  and  C_24
REMARK   13  A    between atoms: C_24  and  C_25
REMARK   14  A    between atoms: C_27  and  C_29
REMARK   15  A    between atoms: C_32  and  C_33
REMARK                            x       y       z     vdW  Elec       q    Type
REMARK                         _______ _______ _______ _____ _____    ______ ____
ROOT
ATOM      1  S   UNL     1       0.564   2.029  25.164  0.00  0.00    -0.057 S 
ATOM      6  O   UNL     1       1.556  -0.403  21.316  0.00  0.00    -0.226 OA
ATOM      7  N   UNL     1      -0.449   0.970  23.032  0.00  0.00    -0.229 NA
ATOM      9  N   UNL     1       1.926   0.715  23.350  0.00  0.00    -0.230 N 
ATOM     11  C   UNL     1      -3.936   1.928  24.369  0.00  0.00    -0.019 C 
ATOM     12  C   UNL     1      -3.380   3.215  25.126  0.00  0.00    +0.011 C 
ATOM     13  C   UNL     1      -4.401   4.018  26.020  0.00  0.00    +0.021 C 
ATOM     14  C   UNL     1      -2.898   1.547  23.217  0.00  0.00    +0.054 C 
ATOM     15  C   UNL     1      -5.297   2.268  23.709  0.00  0.00    +0.010 C 
ATOM     16  C   UNL     1      -5.721   4.229  25.226  0.00  0.00    +0.123 C 
ATOM     17  C   UNL     1      -2.025   2.916  25.834  0.00  0.00    +0.049 C 
ATOM     18  C   UNL     1      -6.289   2.938  24.649  0.00  0.00    +0.032 C 
ATOM     19  C   UNL     1      -4.129   0.715  25.311  0.00  0.00    +0.012 C 
ATOM     20  C   UNL     1      -1.482   1.561  23.735  0.00  0.00    +0.058 A 
ATOM     22  C   UNL     1      -3.813   5.424  26.324  0.00  0.00    +0.016 C 
ATOM     23  C   UNL     1      -1.110   2.197  24.902  0.00  0.00    +0.015 A 
ATOM     26  C   UNL     1       0.675   1.148  23.694  0.00  0.00    +0.167 A 
ATOM     28  C   UNL     1       2.290  -0.015  22.216  0.00  0.00    +0.406 C 
ATOM     38  H   UNL     1       2.669   0.957  24.001  0.00  0.00    +0.160 HD
ENDROOT
BRANCH  16   2
ATOM      2  O   UNL     1      -6.712   4.839  26.051  0.00  0.00    -0.391 OA
ATOM     35  H   UNL     1      -6.260   5.463  26.644  0.00  0.00    +0.210 HD
ENDBRANCH  16   2
BRANCH  28   5
ATOM      5  O   UNL     1       3.638  -0.251  22.241  0.00  0.00    -0.446 OA
BRANCH   5  32
ATOM     32  C   UNL     1       4.460   0.831  22.696  0.00  0.00    +0.261 C 
BRANCH  32  33
ATOM     33  C   UNL     1       5.380   0.324  23.755  0.00  0.00    +0.006 C 
ATOM     34  C   UNL     1       5.389  -0.940  24.194  0.00  0.00    +0.007 C 
ENDBRANCH  32  33
ENDBRANCH   5  32
ENDBRANCH  28   5
BRANCH  13  21
ATOM     21  C   UNL     1      -4.684   3.380  27.398  0.00  0.00    +0.165 C 
BRANCH  21   3
ATOM      3  O   UNL     1      -5.846   2.590  27.277  0.00  0.00    -0.394 OA
ATOM     36  H   UNL     1      -6.501   3.111  26.782  0.00  0.00    +0.209 HD
ENDBRANCH  21   3
ENDBRANCH  13  21
BRANCH  14  24
ATOM     24  C   UNL     1      -3.213   0.237  22.482  0.00  0.00    +0.106 C 
BRANCH  24  25
ATOM      4  O   UNL     1      -4.751  -0.921  23.948  0.00  0.00    -0.276 OA
ATOM      8  N   UNL     1      -2.608  -1.764  23.639  0.00  0.00    -0.314 N 
ATOM     25  C   UNL     1      -3.638  -0.859  23.432  0.00  0.00    +0.214 C 
ATOM     37  H   UNL     1      -1.724  -1.628  23.157  0.00  0.00    +0.149 HD
BRANCH   8  27
ATOM     27  C   UNL     1      -2.729  -2.915  24.504  0.00  0.00    +0.119 C 
BRANCH  27  29
ATOM     29  C   UNL     1      -1.651  -2.914  25.577  0.00  0.00    +0.102 C 
BRANCH  29  10
ATOM     10  N   UNL     1      -0.783  -1.754  25.423  0.00  0.00    -0.307 NA
ATOM     30  C   UNL     1       0.621  -2.163  25.365  0.00  0.00    +0.104 C 
ATOM     31  C   UNL     1      -0.989  -0.805  26.520  0.00  0.00    +0.104 C 
ENDBRANCH  29  10
ENDBRANCH  27  29
ENDBRANCH   8  27
ENDBRANCH  24  25
ENDBRANCH  14  24
TORSDOF 11
ENDMDL
MODEL 2
REMARK VINA RESULT:       4.2      2.815      4.142
REMARK  Name = 11885067
REMARK  15 active torsions:
REMARK  status: ('A' for Active; 'I' for Inactive)
REMARK    1  A    between atoms: O_2  and  C_16
REMARK    2  A    between atoms: O_3  and  C_21
REMARK    3  A    between atoms: O_5  and  C_28
REMARK    4  A    between atoms: O_5  and  C_32
REMARK    5  A    between atoms: N_8  and  C_27
REMARK    6  A    between atoms: N_10  and  C_29
REMARK    7  A    between atoms: N_10  and  C_30
REMARK    8  A    between atoms: N_10  and  C_31
REMARK    9  A    between atoms: C_11  and  C_19
REMARK   10  A    between atoms: C_13  and  C_21
REMARK   11  A    between atoms: C_13  and  C_22
REMARK   12  A    between atoms: C_14  and  C_24
REMARK   13  A    between atoms: C_24  and  C_25
REMARK   14  A    between atoms: C_27  and  C_29
REMARK   15  A    between atoms: C_32  and  C_33
REMARK                            x       y       z     vdW  Elec       q    Type
REMARK                         _______ _______ _______ _____ _____    ______ ____
ROOT
ATOM      1  S   UNL     1      -1.085  -1.140  23.516  0.00  0.00    -0.057 S 
ATOM      6  O   UNL     1       2.918   1.243  23.447  0.00  0.00    -0.226 OA
ATOM      7  N   UNL     1      -0.002   1.158  24.004  0.00  0.00    -0.229 NA
ATOM      9  N   UNL     1       1.454  -0.576  23.180  0.00  0.00    -0.230 N 
ATOM     11  C   UNL     1      -3.538   2.528  24.704  0.00  0.00    -0.019 C 
ATOM     12  C   UNL     1      -4.063   1.123  25.238  0.00  0.00    +0.011 C 
ATOM     13  C   UNL     1      -5.596   1.019  25.595  0.00  0.00    +0.021 C 
ATOM     14  C   UNL     1      -1.946   2.540  24.829  0.00  0.00    +0.054 C 
ATOM     15  C   UNL     1      -4.107   3.662  25.596  0.00  0.00    +0.010 C 
ATOM     16  C   UNL     1      -6.008   2.253  26.448  0.00  0.00    +0.123 C 
ATOM     17  C   UNL     1      -3.543  -0.051  24.356  0.00  0.00    +0.049 C 
ATOM     18  C   UNL     1      -5.611   3.581  25.813  0.00  0.00    +0.032 C 
ATOM     19  C   UNL     1      -3.942   2.801  23.234  0.00  0.00    +0.012 C 
ATOM     20  C   UNL     1      -1.350   1.262  24.294  0.00  0.00    +0.058 A 
ATOM     22  C   UNL     1      -5.829  -0.246  26.469  0.00  0.00    +0.016 C 
ATOM     23  C   UNL     1      -2.082   0.107  24.108  0.00  0.00    +0.015 A 
ATOM     26  C   UNL     1       0.250  -0.061  23.578  0.00  0.00    +0.167 A 
ATOM     28  C   UNL     1       2.685   0.082  23.136  0.00  0.00    +0.406 C 
ATOM     38  H   UNL     1       1.439  -1.548  22.884  0.00  0.00    +0.160 HD
ENDROOT
BRANCH  16   2
ATOM      2  O   UNL     1      -7.416   2.256  26.679  0.00  0.00    -0.391 OA
ATOM     35  H   UNL     1      -7.856   2.129  25.821  0.00  0.00    +0.210 HD
ENDBRANCH  16   2
BRANCH  28   5
ATOM      5  O   UNL     1       3.645  -0.782  22.679  0.00  0.00    -0.446 OA
BRANCH   5  32
ATOM     32  C   UNL     1       4.353  -1.524  23.679  0.00  0.00    +0.261 C 
BRANCH  32  33
ATOM     33  C   UNL     1       5.433  -0.663  24.242  0.00  0.00    +0.006 C 
ATOM     34  C   UNL     1       6.173   0.180  23.513  0.00  0.00    +0.007 C 
ENDBRANCH  32  33
ENDBRANCH   5  32
ENDBRANCH  28   5
BRANCH  13  21
ATOM     21  C   UNL     1      -6.528   0.857  24.374  0.00  0.00    +0.165 C 
BRANCH  21   3
ATOM      3  O   UNL     1      -7.442   1.931  24.385  0.00  0.00    -0.394 OA
ATOM     36  H   UNL     1      -6.932   2.744  24.537  0.00  0.00    +0.209 HD
ENDBRANCH  21   3
ENDBRANCH  13  21
BRANCH  14  24
ATOM     24  C   UNL     1      -1.266   3.774  24.219  0.00  0.00    +0.106 C 
BRANCH  24  25
ATOM      4  O   UNL     1       0.317   5.427  25.002  0.00  0.00    -0.276 OA
ATOM      8  N   UNL     1       0.275   3.323  25.988  0.00  0.00    -0.314 N 
ATOM     25  C   UNL     1      -0.147   4.294  25.091  0.00  0.00    +0.214 C 
ATOM     37  H   UNL     1      -0.181   2.415  25.988  0.00  0.00    +0.149 HD
BRANCH   8  27
ATOM     27  C   UNL     1       1.335   3.540  26.945  0.00  0.00    +0.119 C 
BRANCH  27  29
ATOM     29  C   UNL     1       1.105   2.736  28.215  0.00  0.00    +0.102 C 
BRANCH  29  10
ATOM     10  N   UNL     1       2.370   2.491  28.897  0.00  0.00    -0.307 NA
ATOM     30  C   UNL     1       2.139   1.921  30.225  0.00  0.00    +0.104 C 
ATOM     31  C   UNL     1       3.146   3.729  29.005  0.00  0.00    +0.104 C 
ENDBRANCH  29  10
ENDBRANCH  27  29
ENDBRANCH   8  27
ENDBRANCH  24  25
ENDBRANCH  14  24
TORSDOF 11
ENDMDL
MODEL 3
REMARK VINA RESULT:       5.5      2.146      2.953
REMARK  Name = 11885067
REMARK  15 active torsions:
REMARK  status: ('A' for Active; 'I' for Inactive)
REMARK    1  A    between atoms: O_2  and  C_16
REMARK    2  A    between atoms: O_3  and  C_21
REMARK    3  A    between atoms: O_5  and  C_28
REMARK    4  A    between atoms: O_5  and  C_32
REMARK    5  A    between atoms: N_8  and  C_27
REMARK    6  A    between atoms: N_10  and  C_29
REMARK    7  A    between atoms: N_10  and  C_30
REMARK    8  A    between atoms: N_10  and  C_31
REMARK    9  A    between atoms: C_11  and  C_19
REMARK   10  A    between atoms: C_13  and  C_21
REMARK   11  A    between atoms: C_13  and  C_22
REMARK   12  A    between atoms: C_14  and  C_24
REMARK   13  A    between atoms: C_24  and  C_25
REMARK   14  A    between atoms: C_27  and  C_29
REMARK   15  A    between atoms: C_32  and  C_33
REMARK                            x       y       z     vdW  Elec       q    Type
REMARK                         _______ _______ _______ _____ _____    ______ ____
ROOT
ATOM      1  S   UNL     1       0.398   3.037  23.960  0.00  0.00    -0.057 S 
ATOM      6  O   UNL     1       2.952  -0.652  22.704  0.00  0.00    -0.226 OA
ATOM      7  N   UNL     1       0.325   0.492  23.501  0.00  0.00    -0.229 NA
ATOM      9  N   UNL     1       2.456   1.583  23.234  0.00  0.00    -0.230 N 
ATOM     11  C   UNL     1      -3.330   0.507  24.729  0.00  0.00    -0.019 C 
ATOM     12  C   UNL     1      -3.578   1.996  24.222  0.00  0.00    +0.011 C 
ATOM     13  C   UNL     1      -4.970   2.651  24.572  0.00  0.00    +0.021 C 
ATOM     14  C   UNL     1      -2.095  -0.093  23.914  0.00  0.00    +0.054 C 
ATOM     15  C   UNL     1      -4.582  -0.355  24.425  0.00  0.00    +0.010 C 
ATOM     16  C   UNL     1      -6.106   1.639  24.251  0.00  0.00    +0.123 C 
ATOM     17  C   UNL     1      -2.358   2.913  24.533  0.00  0.00    +0.049 C 
ATOM     18  C   UNL     1      -5.890   0.271  24.888  0.00  0.00    +0.032 C 
ATOM     19  C   UNL     1      -3.031   0.432  26.247  0.00  0.00    +0.012 C 
ATOM     20  C   UNL     1      -0.949   0.887  23.867  0.00  0.00    +0.058 A 
ATOM     22  C   UNL     1      -5.188   3.895  23.665  0.00  0.00    +0.016 C 
ATOM     23  C   UNL     1      -1.094   2.233  24.130  0.00  0.00    +0.015 A 
ATOM     26  C   UNL     1       1.119   1.541  23.522  0.00  0.00    +0.167 A 
ATOM     28  C   UNL     1       3.277   0.519  22.853  0.00  0.00    +0.406 C 
ATOM     38  H   UNL     1       2.892   2.498  23.310  0.00  0.00    +0.160 HD
ENDROOT
BRANCH  16   2
ATOM      2  O   UNL     1      -7.369   2.150  24.676  0.00  0.00    -0.391 OA
ATOM     35  H   UNL     1      -7.397   2.096  25.647  0.00  0.00    +0.210 HD
ENDBRANCH  16   2
BRANCH  28   5
ATOM      5  O   UNL     1       4.552   0.977  22.657  0.00  0.00    -0.446 OA
BRANCH   5  32
ATOM     32  C   UNL     1       5.443   0.862  23.773  0.00  0.00    +0.261 C 
BRANCH  32  33
ATOM     33  C   UNL     1       6.058  -0.497  23.760  0.00  0.00    +0.006 C 
ATOM     34  C   UNL     1       5.427  -1.606  24.162  0.00  0.00    +0.007 C 
ENDBRANCH  32  33
ENDBRANCH   5  32
ENDBRANCH  28   5
BRANCH  13  21
ATOM     21  C   UNL     1      -5.087   3.169  26.022  0.00  0.00    +0.165 C 
BRANCH  21   3
ATOM      3  O   UNL     1      -6.127   4.121  26.057  0.00  0.00    -0.394 OA
ATOM     36  H   UNL     1      -6.704   3.948  25.294  0.00  0.00    +0.209 HD
ENDBRANCH  21   3
ENDBRANCH  13  21
BRANCH  14  24
ATOM     24  C   UNL     1      -1.631  -1.478  24.386  0.00  0.00    +0.106 C 
BRANCH  24  25
ATOM      4  O   UNL     1       0.125  -2.276  25.847  0.00  0.00    -0.276 OA
ATOM      8  N   UNL     1      -0.814  -0.182  26.219  0.00  0.00    -0.314 N 
ATOM     25  C   UNL     1      -0.669  -1.388  25.548  0.00  0.00    +0.214 C 
ATOM     37  H   UNL     1      -1.497   0.492  25.887  0.00  0.00    +0.149 HD
BRANCH   8  27
ATOM     27  C   UNL     1      -0.025   0.177  27.375  0.00  0.00    +0.119 C 
BRANCH  27  29
ATOM     29  C   UNL     1       0.099   1.687  27.510  0.00  0.00    +0.102 C 
BRANCH  29  10
ATOM     10  N   UNL     1       1.133   2.026  28.480  0.00  0.00    -0.307 NA
ATOM     30  C   UNL     1       0.533   2.505  29.727  0.00  0.00    +0.104 C 
ATOM     31  C   UNL     1       2.042   3.036  27.935  0.00  0.00    +0.104 C 
ENDBRANCH  29  10
ENDBRANCH  27  29
ENDBRANCH   8  27
ENDBRANCH  24  25
ENDBRANCH  14  24
TORSDOF 11
ENDMDL
MODEL 4
REMARK VINA RESULT:       6.4      2.812      4.628
REMARK  Name = 11885067
REMARK  15 active torsions:
REMARK  status: ('A' for Active; 'I' for Inactive)
REMARK    1  A    between atoms: O_2  and  C_16
REMARK    2  A    between atoms: O_3  and  C_21
REMARK    3  A    between atoms: O_5  and  C_28
REMARK    4  A    between atoms: O_5  and  C_32
REMARK    5  A    between atoms: N_8  and  C_27
REMARK    6  A    between atoms: N_10  and  C_29
REMARK    7  A    between atoms: N_10  and  C_30
REMARK    8  A    between atoms: N_10  and  C_31
REMARK    9  A    between atoms: C_11  and  C_19
REMARK   10  A    between atoms: C_13  and  C_21
REMARK   11  A    between atoms: C_13  and  C_22
REMARK   12  A    between atoms: C_14  and  C_24
REMARK   13  A    between atoms: C_24  and  C_25
REMARK   14  A    between atoms: C_27  and  C_29
REMARK   15  A    between atoms: C_32  and  C_33
REMARK                            x       y       z     vdW  Elec       q    Type
REMARK                         _______ _______ _______ _____ _____    ______ ____
ROOT
ATOM      1  S   UNL     1       0.938  -1.366  22.757  0.00  0.00    -0.057 S 
ATOM      6  O   UNL     1       4.154   1.982  23.153  0.00  0.00    -0.226 OA
ATOM      7  N   UNL     1       1.352   1.064  23.542  0.00  0.00    -0.229 NA
ATOM      9  N   UNL     1       3.239  -0.116  22.618  0.00  0.00    -0.230 N 
ATOM     11  C   UNL     1      -2.437   1.359  24.195  0.00  0.00    -0.019 C 
ATOM     12  C   UNL     1      -2.577  -0.187  24.549  0.00  0.00    +0.011 C 
ATOM     13  C   UNL     1      -4.033  -0.734  24.811  0.00  0.00    +0.021 C 
ATOM     14  C   UNL     1      -0.910   1.777  24.405  0.00  0.00    +0.054 C 
ATOM     15  C   UNL     1      -3.310   2.191  25.170  0.00  0.00    +0.010 C 
ATOM     16  C   UNL     1      -4.781   0.240  25.766  0.00  0.00    +0.123 C 
ATOM     17  C   UNL     1      -1.741  -1.071  23.576  0.00  0.00    +0.049 C 
ATOM     18  C   UNL     1      -4.741   1.690  25.298  0.00  0.00    +0.032 C 
ATOM     19  C   UNL     1      -2.866   1.684  22.743  0.00  0.00    +0.012 C 
ATOM     20  C   UNL     1       0.019   0.773  23.770  0.00  0.00    +0.058 A 
ATOM     22  C   UNL     1      -3.938  -2.107  25.532  0.00  0.00    +0.016 C 
ATOM     23  C   UNL     1      -0.370  -0.504  23.424  0.00  0.00    +0.015 A 
ATOM     26  C   UNL     1       1.932   0.012  23.004  0.00  0.00    +0.167 A 
ATOM     28  C   UNL     1       4.248   0.845  22.709  0.00  0.00    +0.406 C 
ATOM     38  H   UNL     1       3.492  -1.016  22.220  0.00  0.00    +0.160 HD
ENDROOT
BRANCH  16   2
ATOM      2  O   UNL     1      -6.143  -0.156  25.921  0.00  0.00    -0.391 OA
ATOM     35  H   UNL     1      -6.476  -0.416  25.046  0.00  0.00    +0.210 HD
ENDBRANCH  16   2
BRANCH  28   5
ATOM      5  O   UNL     1       5.415   0.325  22.215  0.00  0.00    -0.446 OA
BRANCH   5  32
ATOM     32  C   UNL     1       6.314  -0.234  23.179  0.00  0.00    +0.261 C 
BRANCH  32  33
ATOM     33  C   UNL     1       5.517  -0.892  24.255  0.00  0.00    +0.006 C 
ATOM     34  C   UNL     1       4.856  -2.044  24.097  0.00  0.00    +0.007 C 
ENDBRANCH  32  33
ENDBRANCH   5  32
ENDBRANCH  28   5
BRANCH  13  21
ATOM     21  C   UNL     1      -4.860  -0.993  23.532  0.00  0.00    +0.165 C 
BRANCH  21   3
ATOM      3  O   UNL     1      -4.845  -2.382  23.284  0.00  0.00    -0.394 OA
ATOM     36  H   UNL     1      -5.467  -2.794  23.907  0.00  0.00    +0.209 HD
ENDBRANCH  21   3
ENDBRANCH  13  21
BRANCH  14  24
ATOM     24  C   UNL     1      -0.573   3.209  23.966  0.00  0.00    +0.106 C 
BRANCH  24  25
ATOM      4  O   UNL     1       0.010   5.261  25.107  0.00  0.00    -0.276 OA
ATOM      8  N   UNL     1       0.469   3.217  26.115  0.00  0.00    -0.314 N 
ATOM     25  C   UNL     1      -0.012   4.033  25.101  0.00  0.00    +0.214 C 
ATOM     37  H   UNL     1       0.397   2.209  26.018  0.00  0.00    +0.149 HD
BRANCH   8  27
ATOM     27  C   UNL     1       1.066   3.732  27.326  0.00  0.00    +0.119 C 
BRANCH  27  29
ATOM     29  C   UNL     1       0.875   2.769  28.488  0.00  0.00    +0.102 C 
BRANCH  29  10
ATOM     10  N   UNL     1       1.971   2.899  29.439  0.00  0.00    -0.307 NA
ATOM     30  C   UNL     1       3.249   3.044  28.739  0.00  0.00    +0.104 C 
ATOM     31  C   UNL     1       2.015   1.742  30.337  0.00  0.00    +0.104 C 
ENDBRANCH  29  10
ENDBRANCH  27  29
ENDBRANCH   8  27
ENDBRANCH  24  25
ENDBRANCH  14  24
TORSDOF 11
ENDMDL
MODEL 5
REMARK VINA RESULT:       6.5      2.234      4.716
REMARK  Name = 11885067
REMARK  15 active torsions:
REMARK  status: ('A' for Active; 'I' for Inactive)
REMARK    1  A    between atoms: O_2  and  C_16
REMARK    2  A    between atoms: O_3  and  C_21
REMARK    3  A    between atoms: O_5  and  C_28
REMARK    4  A    between atoms: O_5  and  C_32
REMARK    5  A    between atoms: N_8  and  C_27
REMARK    6  A    between atoms: N_10  and  C_29
REMARK    7  A    between atoms: N_10  and  C_30
REMARK    8  A    between atoms: N_10  and  C_31
REMARK    9  A    between atoms: C_11  and  C_19
REMARK   10  A    between atoms: C_13  and  C_21
REMARK   11  A    between atoms: C_13  and  C_22
REMARK   12  A    between atoms: C_14  and  C_24
REMARK   13  A    between atoms: C_24  and  C_25
REMARK   14  A    between atoms: C_27  and  C_29
REMARK   15  A    between atoms: C_32  and  C_33
REMARK                            x       y       z     vdW  Elec       q    Type
REMARK                         _______ _______ _______ _____ _____    ______ ____
ROOT
ATOM      1  S   UNL     1       1.096  -1.422  23.674  0.00  0.00    -0.057 S 
ATOM      6  O   UNL     1       4.029   2.054  22.664  0.00  0.00    -0.226 OA
ATOM      7  N   UNL     1       1.280   1.135  23.331  0.00  0.00    -0.229 NA
ATOM      9  N   UNL     1       3.305  -0.144  23.072  0.00  0.00    -0.230 N 
ATOM     11  C   UNL     1      -2.556   1.326  23.676  0.00  0.00    -0.019 C 
ATOM     12  C   UNL     1      -2.608   0.079  24.665  0.00  0.00    +0.011 C 
ATOM     13  C   UNL     1      -4.036  -0.435  25.096  0.00  0.00    +0.021 C 
ATOM     14  C   UNL     1      -1.080   1.935  23.727  0.00  0.00    +0.054 C 
ATOM     15  C   UNL     1      -3.550   2.411  24.163  0.00  0.00    +0.010 C 
ATOM     16  C   UNL     1      -4.915   0.781  25.507  0.00  0.00    +0.123 C 
ATOM     17  C   UNL     1      -1.647  -1.055  24.201  0.00  0.00    +0.049 C 
ATOM     18  C   UNL     1      -4.947   1.882  24.454  0.00  0.00    +0.032 C 
ATOM     19  C   UNL     1      -2.907   0.949  22.215  0.00  0.00    +0.012 C 
ATOM     20  C   UNL     1      -0.041   0.847  23.623  0.00  0.00    +0.058 A 
ATOM     22  C   UNL     1      -3.891  -1.346  26.347  0.00  0.00    +0.016 C 
ATOM     23  C   UNL     1      -0.313  -0.484  23.858  0.00  0.00    +0.015 A 
ATOM     26  C   UNL     1       1.970   0.014  23.324  0.00  0.00    +0.167 A 
ATOM     28  C   UNL     1       4.235   0.851  22.764  0.00  0.00    +0.406 C 
ATOM     38  H   UNL     1       3.649  -1.100  23.116  0.00  0.00    +0.160 HD
ENDROOT
BRANCH  16   2
ATOM      2  O   UNL     1      -6.252   0.365  25.778  0.00  0.00    -0.391 OA
ATOM     35  H   UNL     1      -6.619  -0.004  24.957  0.00  0.00    +0.210 HD
ENDBRANCH  16   2
BRANCH  28   5
ATOM      5  O   UNL     1       5.467   0.282  22.582  0.00  0.00    -0.446 OA
BRANCH   5  32
ATOM     32  C   UNL     1       6.270   0.125  23.758  0.00  0.00    +0.261 C 
BRANCH  32  33
ATOM     33  C   UNL     1       5.759  -1.039  24.538  0.00  0.00    +0.006 C 
ATOM     34  C   UNL     1       5.027  -2.028  24.011  0.00  0.00    +0.007 C 
ENDBRANCH  32  33
ENDBRANCH   5  32
ENDBRANCH  28   5
BRANCH  13  21
ATOM     21  C   UNL     1      -4.753  -1.299  24.034  0.00  0.00    +0.165 C 
BRANCH  21   3
ATOM      3  O   UNL     1      -4.119  -2.559  24.004  0.00  0.00    -0.394 OA
ATOM     36  H   UNL     1      -3.451  -2.530  23.298  0.00  0.00    +0.209 HD
ENDBRANCH  21   3
ENDBRANCH  13  21
BRANCH  14  24
ATOM     24  C   UNL     1      -0.818   3.061  22.717  0.00  0.00    +0.106 C 
BRANCH  24  25
ATOM      4  O   UNL     1       0.269   5.192  23.075  0.00  0.00    -0.276 OA
ATOM      8  N   UNL     1      -1.525   4.580  24.420  0.00  0.00    -0.314 N 
ATOM     25  C   UNL     1      -0.607   4.394  23.397  0.00  0.00    +0.214 C 
ATOM     37  H   UNL     1      -2.218   3.860  24.603  0.00  0.00    +0.149 HD
BRANCH   8  27
ATOM     27  C   UNL     1      -1.558   5.766  25.245  0.00  0.00    +0.119 C 
BRANCH  27  29
ATOM     29  C   UNL     1      -2.811   5.804  26.106  0.00  0.00    +0.102 C 
BRANCH  29  10
ATOM     10  N   UNL     1      -3.507   4.525  26.045  0.00  0.00    -0.307 NA
ATOM     30  C   UNL     1      -4.920   4.721  25.714  0.00  0.00    +0.104 C 
ATOM     31  C   UNL     1      -3.380   3.807  27.316  0.00  0.00    +0.104 C 
ENDBRANCH  29  10
ENDBRANCH  27  29
ENDBRANCH   8  27
ENDBRANCH  24  25
ENDBRANCH  14  24
TORSDOF 11
ENDMDL
