MODEL 1
REMARK VINA RESULT:      -2.2      0.000      0.000
REMARK  Name = 45783463
REMARK  11 active torsions:
REMARK  status: ('A' for Active; 'I' for Inactive)
REMARK    1  A    between atoms: O_5  and  C_22
REMARK    2  A    between atoms: O_5  and  C_29
REMARK    3  A    between atoms: O_6  and  C_27
REMARK    4  A    between atoms: O_6  and  C_31
REMARK    5  A    between atoms: O_7  and  C_32
REMARK    6  A    between atoms: O_7  and  C_33
REMARK    7  A    between atoms: N_8  and  C_16
REMARK    8  A    between atoms: C_12  and  C_17
REMARK    9  A    between atoms: C_16  and  C_18
REMARK   10  A    between atoms: C_21  and  C_25
REMARK   11  A    between atoms: C_31  and  C_32
REMARK                            x       y       z     vdW  Elec       q    Type
REMARK                         _______ _______ _______ _____ _____    ______ ____
ROOT
ATOM      8  N   UNL     1      -5.142   2.078  25.009  0.00  0.00    -0.287 NA
ATOM     12  C   UNL     1      -4.352   3.116  24.318  0.00  0.00    +0.146 C 
ATOM     13  C   UNL     1      -4.671   4.418  25.075  0.00  0.00    +0.030 C 
ATOM     14  C   UNL     1      -5.693   4.025  26.131  0.00  0.00    +0.017 C 
ATOM     15  C   UNL     1      -6.308   2.755  25.577  0.00  0.00    +0.085 C 
ENDROOT
BRANCH  12  17
ATOM      4  O   UNL     1      -2.074   3.576  25.078  0.00  0.00    -0.336 OA
ATOM      9  N   UNL     1      -2.228   1.879  23.624  0.00  0.00    -0.189 NA
ATOM     10  N   UNL     1      -0.770   3.102  24.893  0.00  0.00    -0.054 NA
ATOM     17  C   UNL     1      -2.870   2.801  24.295  0.00  0.00    +0.245 A 
ATOM     21  C   UNL     1      -0.942   2.103  24.022  0.00  0.00    +0.221 A 
BRANCH  21  25
ATOM     11  N   UNL     1      -0.187   0.085  23.062  0.00  0.00    -0.252 NA
ATOM     25  C   UNL     1       0.147   1.307  23.533  0.00  0.00    +0.115 A 
ATOM     26  C   UNL     1       1.441   1.801  23.563  0.00  0.00    +0.077 A 
ATOM     27  C   UNL     1       2.459   0.987  23.078  0.00  0.00    +0.124 A 
ATOM     28  C   UNL     1       0.828  -0.678  22.599  0.00  0.00    +0.115 A 
ATOM     30  C   UNL     1       2.155  -0.278  22.584  0.00  0.00    +0.065 A 
BRANCH  27   6
ATOM      6  O   UNL     1       3.746   1.426  23.085  0.00  0.00    -0.490 OA
BRANCH   6  31
ATOM     31  C   UNL     1       4.755   0.488  22.709  0.00  0.00    +0.257 C 
BRANCH  31  32
ATOM     32  C   UNL     1       5.775   0.386  23.825  0.00  0.00    +0.200 C 
BRANCH  32   7
ATOM      7  O   UNL     1       5.425  -0.699  24.678  0.00  0.00    -0.380 OA
ATOM     33  C   UNL     1       4.834  -1.764  23.948  0.00  0.00    +0.194 C 
ENDBRANCH  32   7
ENDBRANCH  31  32
ENDBRANCH   6  31
ENDBRANCH  27   6
ENDBRANCH  21  25
ENDBRANCH  12  17
BRANCH   8  16
ATOM     16  C   UNL     1      -5.521   0.970  24.140  0.00  0.00    +0.120 C 
BRANCH  16  18
ATOM     18  C   UNL     1      -4.697  -0.260  24.409  0.00  0.00    -0.030 A 
ATOM     19  C   UNL     1      -3.843  -0.301  25.511  0.00  0.00    +0.051 A 
ATOM     20  C   UNL     1      -4.786  -1.360  23.556  0.00  0.00    +0.005 A 
ATOM     22  C   UNL     1      -3.080  -1.441  25.761  0.00  0.00    +0.130 A 
ATOM     23  C   UNL     1      -4.022  -2.501  23.805  0.00  0.00    +0.004 A 
ATOM     24  C   UNL     1      -3.169  -2.542  24.907  0.00  0.00    +0.046 A 
BRANCH  22   5
ATOM      5  O   UNL     1      -2.246  -1.479  26.836  0.00  0.00    -0.406 OA
BRANCH   5  29
ATOM      1  F   UNL     1      -0.221  -1.679  25.793  0.00  0.00    -0.133 F 
ATOM      2  F   UNL     1      -0.296  -1.033  27.881  0.00  0.00    -0.133 F 
ATOM      3  F   UNL     1      -0.960   0.339  26.315  0.00  0.00    -0.133 F 
ATOM     29  C   UNL     1      -0.931  -0.958  26.689  0.00  0.00    +0.575 C 
ENDBRANCH   5  29
ENDBRANCH  22   5
ENDBRANCH  16  18
ENDBRANCH   8  16
TORSDOF 10
ENDMDL
MODEL 2
REMARK VINA RESULT:      -1.6      2.085      3.955
REMARK  Name = 45783463
REMARK  11 active torsions:
REMARK  status: ('A' for Active; 'I' for Inactive)
REMARK    1  A    between atoms: O_5  and  C_22
REMARK    2  A    between atoms: O_5  and  C_29
REMARK    3  A    between atoms: O_6  and  C_27
REMARK    4  A    between atoms: O_6  and  C_31
REMARK    5  A    between atoms: O_7  and  C_32
REMARK    6  A    between atoms: O_7  and  C_33
REMARK    7  A    between atoms: N_8  and  C_16
REMARK    8  A    between atoms: C_12  and  C_17
REMARK    9  A    between atoms: C_16  and  C_18
REMARK   10  A    between atoms: C_21  and  C_25
REMARK   11  A    between atoms: C_31  and  C_32
REMARK                            x       y       z     vdW  Elec       q    Type
REMARK                         _______ _______ _______ _____ _____    ______ ____
ROOT
ATOM      8  N   UNL     1      -3.652  -1.010  23.978  0.00  0.00    -0.287 NA
ATOM     12  C   UNL     1      -2.902  -0.526  25.154  0.00  0.00    +0.146 C 
ATOM     13  C   UNL     1      -2.816  -1.744  26.091  0.00  0.00    +0.030 C 
ATOM     14  C   UNL     1      -3.596  -2.844  25.387  0.00  0.00    +0.017 C 
ATOM     15  C   UNL     1      -4.520  -2.086  24.456  0.00  0.00    +0.085 C 
ENDROOT
BRANCH  12  17
ATOM      4  O   UNL     1      -1.094   1.075  25.530  0.00  0.00    -0.336 OA
ATOM      9  N   UNL     1      -0.713  -0.354  23.848  0.00  0.00    -0.189 NA
ATOM     10  N   UNL     1       0.165   1.408  25.013  0.00  0.00    -0.054 NA
ATOM     17  C   UNL     1      -1.540   0.028  24.788  0.00  0.00    +0.245 A 
ATOM     21  C   UNL     1       0.318   0.522  24.024  0.00  0.00    +0.221 A 
BRANCH  21  25
ATOM     11  N   UNL     1       1.363  -0.198  22.035  0.00  0.00    -0.252 NA
ATOM     25  C   UNL     1       1.489   0.482  23.198  0.00  0.00    +0.115 A 
ATOM     26  C   UNL     1       2.654   1.112  23.605  0.00  0.00    +0.077 A 
ATOM     27  C   UNL     1       3.760   1.041  22.765  0.00  0.00    +0.124 A 
ATOM     28  C   UNL     1       2.458  -0.246  21.246  0.00  0.00    +0.115 A 
ATOM     30  C   UNL     1       3.669   0.351  21.561  0.00  0.00    +0.065 A 
BRANCH  27   6
ATOM      6  O   UNL     1       4.927   1.645  23.119  0.00  0.00    -0.490 OA
BRANCH   6  31
ATOM     31  C   UNL     1       5.772   0.941  24.029  0.00  0.00    +0.257 C 
BRANCH  31  32
ATOM     32  C   UNL     1       5.968  -0.476  23.526  0.00  0.00    +0.200 C 
BRANCH  32   7
ATOM      7  O   UNL     1       5.409  -1.385  24.467  0.00  0.00    -0.380 OA
ATOM     33  C   UNL     1       4.327  -2.115  23.907  0.00  0.00    +0.194 C 
ENDBRANCH  32   7
ENDBRANCH  31  32
ENDBRANCH   6  31
ENDBRANCH  27   6
ENDBRANCH  21  25
ENDBRANCH  12  17
BRANCH   8  16
ATOM     16  C   UNL     1      -4.402   0.041  23.301  0.00  0.00    +0.120 C 
BRANCH  16  18
ATOM     18  C   UNL     1      -4.512   1.283  24.144  0.00  0.00    -0.030 A 
ATOM     19  C   UNL     1      -3.667   2.366  23.904  0.00  0.00    +0.051 A 
ATOM     20  C   UNL     1      -5.457   1.350  25.167  0.00  0.00    +0.005 A 
ATOM     22  C   UNL     1      -3.768   3.517  24.685  0.00  0.00    +0.130 A 
ATOM     23  C   UNL     1      -5.558   2.501  25.950  0.00  0.00    +0.004 A 
ATOM     24  C   UNL     1      -4.715   3.585  25.708  0.00  0.00    +0.046 A 
BRANCH  22   5
ATOM      5  O   UNL     1      -2.943   4.573  24.450  0.00  0.00    -0.406 OA
BRANCH   5  29
ATOM      1  F   UNL     1      -1.717   3.911  26.263  0.00  0.00    -0.133 F 
ATOM      2  F   UNL     1      -1.360   5.882  25.387  0.00  0.00    -0.133 F 
ATOM      3  F   UNL     1      -0.710   4.099  24.304  0.00  0.00    -0.133 F 
ATOM     29  C   UNL     1      -1.678   4.599  25.101  0.00  0.00    +0.575 C 
ENDBRANCH   5  29
ENDBRANCH  22   5
ENDBRANCH  16  18
ENDBRANCH   8  16
TORSDOF 10
ENDMDL
MODEL 3
REMARK VINA RESULT:      -0.1      2.293      3.732
REMARK  Name = 45783463
REMARK  11 active torsions:
REMARK  status: ('A' for Active; 'I' for Inactive)
REMARK    1  A    between atoms: O_5  and  C_22
REMARK    2  A    between atoms: O_5  and  C_29
REMARK    3  A    between atoms: O_6  and  C_27
REMARK    4  A    between atoms: O_6  and  C_31
REMARK    5  A    between atoms: O_7  and  C_32
REMARK    6  A    between atoms: O_7  and  C_33
REMARK    7  A    between atoms: N_8  and  C_16
REMARK    8  A    between atoms: C_12  and  C_17
REMARK    9  A    between atoms: C_16  and  C_18
REMARK   10  A    between atoms: C_21  and  C_25
REMARK   11  A    between atoms: C_31  and  C_32
REMARK                            x       y       z     vdW  Elec       q    Type
REMARK                         _______ _______ _______ _____ _____    ______ ____
ROOT
ATOM      8  N   UNL     1      -4.181   2.580  25.217  0.00  0.00    -0.287 NA
ATOM     12  C   UNL     1      -4.046   1.170  25.633  0.00  0.00    +0.146 C 
ATOM     13  C   UNL     1      -5.278   0.466  25.038  0.00  0.00    +0.030 C 
ATOM     14  C   UNL     1      -6.077   1.569  24.358  0.00  0.00    +0.017 C 
ATOM     15  C   UNL     1      -5.614   2.829  25.062  0.00  0.00    +0.085 C 
ENDROOT
BRANCH  12  17
ATOM      4  O   UNL     1      -2.318  -0.544  25.860  0.00  0.00    -0.336 OA
ATOM      9  N   UNL     1      -1.942   0.918  24.206  0.00  0.00    -0.189 NA
ATOM     10  N   UNL     1      -1.111  -0.931  25.265  0.00  0.00    -0.054 NA
ATOM     17  C   UNL     1      -2.741   0.551  25.176  0.00  0.00    +0.245 A 
ATOM     21  C   UNL     1      -0.956  -0.020  24.299  0.00  0.00    +0.221 A 
BRANCH  21  25
ATOM     11  N   UNL     1       0.001  -0.707  22.256  0.00  0.00    -0.252 NA
ATOM     25  C   UNL     1       0.168  -0.021  23.409  0.00  0.00    +0.115 A 
ATOM     26  C   UNL     1       1.331   0.650  23.752  0.00  0.00    +0.077 A 
ATOM     27  C   UNL     1       2.391   0.615  22.852  0.00  0.00    +0.124 A 
ATOM     28  C   UNL     1       1.053  -0.719  21.407  0.00  0.00    +0.115 A 
ATOM     30  C   UNL     1       2.258  -0.081  21.655  0.00  0.00    +0.065 A 
BRANCH  27   6
ATOM      6  O   UNL     1       3.554   1.259  23.142  0.00  0.00    -0.490 OA
BRANCH   6  31
ATOM     31  C   UNL     1       4.769   0.578  22.829  0.00  0.00    +0.257 C 
BRANCH  31  32
ATOM     32  C   UNL     1       5.647   0.540  24.065  0.00  0.00    +0.200 C 
BRANCH  32   7
ATOM      7  O   UNL     1       5.517  -0.732  24.689  0.00  0.00    -0.380 OA
ATOM     33  C   UNL     1       4.802  -1.644  23.867  0.00  0.00    +0.194 C 
ENDBRANCH  32   7
ENDBRANCH  31  32
ENDBRANCH   6  31
ENDBRANCH  27   6
ENDBRANCH  21  25
ENDBRANCH  12  17
BRANCH   8  16
ATOM     16  C   UNL     1      -3.560   3.516  26.145  0.00  0.00    +0.120 C 
BRANCH  16  18
ATOM     18  C   UNL     1      -2.065   3.565  25.975  0.00  0.00    -0.030 A 
ATOM     19  C   UNL     1      -1.244   2.791  26.796  0.00  0.00    +0.051 A 
ATOM     20  C   UNL     1      -1.499   4.383  24.998  0.00  0.00    +0.005 A 
ATOM     22  C   UNL     1       0.141   2.835  26.640  0.00  0.00    +0.130 A 
ATOM     23  C   UNL     1      -0.113   4.429  24.842  0.00  0.00    +0.004 A 
ATOM     24  C   UNL     1       0.707   3.654  25.662  0.00  0.00    +0.046 A 
BRANCH  22   5
ATOM      5  O   UNL     1       0.940   2.080  27.442  0.00  0.00    -0.406 OA
BRANCH   5  29
ATOM      1  F   UNL     1       2.293   3.722  28.282  0.00  0.00    -0.133 F 
ATOM      2  F   UNL     1       2.239   1.768  29.261  0.00  0.00    -0.133 F 
ATOM      3  F   UNL     1       0.517   3.101  29.444  0.00  0.00    -0.133 F 
ATOM     29  C   UNL     1       1.491   2.685  28.606  0.00  0.00    +0.575 C 
ENDBRANCH   5  29
ENDBRANCH  22   5
ENDBRANCH  16  18
ENDBRANCH   8  16
TORSDOF 10
ENDMDL
MODEL 4
REMARK VINA RESULT:       1.1      2.598      4.583
REMARK  Name = 45783463
REMARK  11 active torsions:
REMARK  status: ('A' for Active; 'I' for Inactive)
REMARK    1  A    between atoms: O_5  and  C_22
REMARK    2  A    between atoms: O_5  and  C_29
REMARK    3  A    between atoms: O_6  and  C_27
REMARK    4  A    between atoms: O_6  and  C_31
REMARK    5  A    between atoms: O_7  and  C_32
REMARK    6  A    between atoms: O_7  and  C_33
REMARK    7  A    between atoms: N_8  and  C_16
REMARK    8  A    between atoms: C_12  and  C_17
REMARK    9  A    between atoms: C_16  and  C_18
REMARK   10  A    between atoms: C_21  and  C_25
REMARK   11  A    between atoms: C_31  and  C_32
REMARK                            x       y       z     vdW  Elec       q    Type
REMARK                         _______ _______ _______ _____ _____    ______ ____
ROOT
ATOM      8  N   UNL     1      -4.464   4.189  25.722  0.00  0.00    -0.287 NA
ATOM     12  C   UNL     1      -5.289   3.060  26.197  0.00  0.00    +0.146 C 
ATOM     13  C   UNL     1      -6.736   3.466  25.865  0.00  0.00    +0.030 C 
ATOM     14  C   UNL     1      -6.631   4.860  25.264  0.00  0.00    +0.017 C 
ATOM     15  C   UNL     1      -5.311   5.380  25.797  0.00  0.00    +0.085 C 
ENDROOT
BRANCH  12  17
ATOM      4  O   UNL     1      -5.851   1.100  24.849  0.00  0.00    -0.336 OA
ATOM      9  N   UNL     1      -3.742   1.117  25.603  0.00  0.00    -0.189 NA
ATOM     10  N   UNL     1      -5.257  -0.074  24.370  0.00  0.00    -0.054 NA
ATOM     17  C   UNL     1      -4.891   1.743  25.565  0.00  0.00    +0.245 A 
ATOM     21  C   UNL     1      -4.015   0.007  24.857  0.00  0.00    +0.221 A 
BRANCH  21  25
ATOM     11  N   UNL     1      -3.474  -2.275  24.599  0.00  0.00    -0.252 NA
ATOM     25  C   UNL     1      -3.023  -1.000  24.615  0.00  0.00    +0.115 A 
ATOM     26  C   UNL     1      -1.699  -0.643  24.416  0.00  0.00    +0.077 A 
ATOM     27  C   UNL     1      -0.779  -1.660  24.186  0.00  0.00    +0.124 A 
ATOM     28  C   UNL     1      -2.551  -3.235  24.373  0.00  0.00    +0.115 A 
ATOM     30  C   UNL     1      -1.205  -2.984  24.162  0.00  0.00    +0.065 A 
BRANCH  27   6
ATOM      6  O   UNL     1       0.533  -1.361  23.984  0.00  0.00    -0.490 OA
BRANCH   6  31
ATOM     31  C   UNL     1       0.825  -0.276  23.104  0.00  0.00    +0.257 C 
BRANCH  31  32
ATOM     32  C   UNL     1       2.258  -0.398  22.627  0.00  0.00    +0.200 C 
BRANCH  32   7
ATOM      7  O   UNL     1       2.929   0.837  22.847  0.00  0.00    -0.380 OA
ATOM     33  C   UNL     1       4.329   0.650  22.999  0.00  0.00    +0.194 C 
ENDBRANCH  32   7
ENDBRANCH  31  32
ENDBRANCH   6  31
ENDBRANCH  27   6
ENDBRANCH  21  25
ENDBRANCH  12  17
BRANCH   8  16
ATOM     16  C   UNL     1      -3.223   4.351  26.470  0.00  0.00    +0.120 C 
BRANCH  16  18
ATOM     18  C   UNL     1      -2.070   3.653  25.800  0.00  0.00    -0.030 A 
ATOM     19  C   UNL     1      -2.166   3.278  24.460  0.00  0.00    +0.051 A 
ATOM     20  C   UNL     1      -0.906   3.381  26.518  0.00  0.00    +0.005 A 
ATOM     22  C   UNL     1      -1.098   2.632  23.838  0.00  0.00    +0.130 A 
ATOM     23  C   UNL     1       0.162   2.734  25.897  0.00  0.00    +0.004 A 
ATOM     24  C   UNL     1       0.067   2.360  24.557  0.00  0.00    +0.046 A 
BRANCH  22   5
ATOM      5  O   UNL     1      -1.192   2.265  22.531  0.00  0.00    -0.406 OA
BRANCH   5  29
ATOM      1  F   UNL     1      -2.840   0.773  21.993  0.00  0.00    -0.133 F 
ATOM      2  F   UNL     1      -2.473   2.487  20.686  0.00  0.00    -0.133 F 
ATOM      3  F   UNL     1      -3.411   2.811  22.633  0.00  0.00    -0.133 F 
ATOM     29  C   UNL     1      -2.488   2.077  21.975  0.00  0.00    +0.575 C 
ENDBRANCH   5  29
ENDBRANCH  22   5
ENDBRANCH  16  18
ENDBRANCH   8  16
TORSDOF 10
ENDMDL
MODEL 5
REMARK VINA RESULT:       1.2      2.536      3.889
REMARK  Name = 45783463
REMARK  11 active torsions:
REMARK  status: ('A' for Active; 'I' for Inactive)
REMARK    1  A    between atoms: O_5  and  C_22
REMARK    2  A    between atoms: O_5  and  C_29
REMARK    3  A    between atoms: O_6  and  C_27
REMARK    4  A    between atoms: O_6  and  C_31
REMARK    5  A    between atoms: O_7  and  C_32
REMARK    6  A    between atoms: O_7  and  C_33
REMARK    7  A    between atoms: N_8  and  C_16
REMARK    8  A    between atoms: C_12  and  C_17
REMARK    9  A    between atoms: C_16  and  C_18
REMARK   10  A    between atoms: C_21  and  C_25
REMARK   11  A    between atoms: C_31  and  C_32
REMARK                            x       y       z     vdW  Elec       q    Type
REMARK                         _______ _______ _______ _____ _____    ______ ____
ROOT
ATOM      8  N   UNL     1      -4.532   3.524  25.593  0.00  0.00    -0.287 NA
ATOM     12  C   UNL     1      -4.977   2.145  25.879  0.00  0.00    +0.146 C 
ATOM     13  C   UNL     1      -6.396   2.061  25.286  0.00  0.00    +0.030 C 
ATOM     14  C   UNL     1      -6.684   3.454  24.745  0.00  0.00    +0.017 C 
ATOM     15  C   UNL     1      -5.742   4.344  25.530  0.00  0.00    +0.085 C 
ENDROOT
BRANCH  12  17
ATOM      4  O   UNL     1      -4.622   0.050  24.671  0.00  0.00    -0.336 OA
ATOM      9  N   UNL     1      -2.733   1.054  25.334  0.00  0.00    -0.189 NA
ATOM     10  N   UNL     1      -3.573  -0.768  24.235  0.00  0.00    -0.054 NA
ATOM     17  C   UNL     1      -4.041   1.101  25.307  0.00  0.00    +0.245 A 
ATOM     21  C   UNL     1      -2.492  -0.110  24.664  0.00  0.00    +0.221 A 
BRANCH  21  25
ATOM     11  N   UNL     1      -0.821  -1.718  25.096  0.00  0.00    -0.252 NA
ATOM     25  C   UNL     1      -1.158  -0.586  24.438  0.00  0.00    +0.115 A 
ATOM     26  C   UNL     1      -0.303   0.104  23.594  0.00  0.00    +0.077 A 
ATOM     27  C   UNL     1       0.980  -0.401  23.411  0.00  0.00    +0.124 A 
ATOM     28  C   UNL     1       0.434  -2.178  24.895  0.00  0.00    +0.115 A 
ATOM     30  C   UNL     1       1.363  -1.564  24.071  0.00  0.00    +0.065 A 
BRANCH  27   6
ATOM      6  O   UNL     1       1.856   0.239  22.591  0.00  0.00    -0.490 OA
BRANCH   6  31
ATOM     31  C   UNL     1       3.216  -0.191  22.631  0.00  0.00    +0.257 C 
BRANCH  31  32
ATOM     32  C   UNL     1       4.115   1.024  22.759  0.00  0.00    +0.200 C 
BRANCH  32   7
ATOM      7  O   UNL     1       5.040   0.808  23.818  0.00  0.00    -0.380 OA
ATOM     33  C   UNL     1       5.382  -0.565  23.938  0.00  0.00    +0.194 C 
ENDBRANCH  32   7
ENDBRANCH  31  32
ENDBRANCH   6  31
ENDBRANCH  27   6
ENDBRANCH  21  25
ENDBRANCH  12  17
BRANCH   8  16
ATOM     16  C   UNL     1      -3.574   4.033  26.567  0.00  0.00    +0.120 C 
BRANCH  16  18
ATOM     18  C   UNL     1      -2.153   3.798  26.130  0.00  0.00    -0.030 A 
ATOM     19  C   UNL     1      -1.297   3.032  26.922  0.00  0.00    +0.051 A 
ATOM     20  C   UNL     1      -1.690   4.348  24.935  0.00  0.00    +0.005 A 
ATOM     22  C   UNL     1       0.020   2.815  26.518  0.00  0.00    +0.130 A 
ATOM     23  C   UNL     1      -0.373   4.131  24.530  0.00  0.00    +0.004 A 
ATOM     24  C   UNL     1       0.482   3.364  25.321  0.00  0.00    +0.046 A 
BRANCH  22   5
ATOM      5  O   UNL     1       0.854   2.068  27.292  0.00  0.00    -0.406 OA
BRANCH   5  29
ATOM      1  F   UNL     1       2.038   3.896  27.990  0.00  0.00    -0.133 F 
ATOM      2  F   UNL     1       2.547   1.920  28.777  0.00  0.00    -0.133 F 
ATOM      3  F   UNL     1       0.694   2.882  29.423  0.00  0.00    -0.133 F 
ATOM     29  C   UNL     1       1.523   2.707  28.373  0.00  0.00    +0.575 C 
ENDBRANCH   5  29
ENDBRANCH  22   5
ENDBRANCH  16  18
ENDBRANCH   8  16
TORSDOF 10
ENDMDL
MODEL 6
REMARK VINA RESULT:       1.8      2.556      6.942
REMARK  Name = 45783463
REMARK  11 active torsions:
REMARK  status: ('A' for Active; 'I' for Inactive)
REMARK    1  A    between atoms: O_5  and  C_22
REMARK    2  A    between atoms: O_5  and  C_29
REMARK    3  A    between atoms: O_6  and  C_27
REMARK    4  A    between atoms: O_6  and  C_31
REMARK    5  A    between atoms: O_7  and  C_32
REMARK    6  A    between atoms: O_7  and  C_33
REMARK    7  A    between atoms: N_8  and  C_16
REMARK    8  A    between atoms: C_12  and  C_17
REMARK    9  A    between atoms: C_16  and  C_18
REMARK   10  A    between atoms: C_21  and  C_25
REMARK   11  A    between atoms: C_31  and  C_32
REMARK                            x       y       z     vdW  Elec       q    Type
REMARK                         _______ _______ _______ _____ _____    ______ ____
ROOT
ATOM      8  N   UNL     1      -0.605  -1.683  24.304  0.00  0.00    -0.287 NA
ATOM     12  C   UNL     1      -1.975  -2.233  24.300  0.00  0.00    +0.146 C 
ATOM     13  C   UNL     1      -2.012  -3.198  25.499  0.00  0.00    +0.030 C 
ATOM     14  C   UNL     1      -0.605  -3.170  26.076  0.00  0.00    +0.017 C 
ATOM     15  C   UNL     1       0.248  -2.703  24.914  0.00  0.00    +0.085 C 
ENDROOT
BRANCH  12  17
ATOM      4  O   UNL     1      -4.305  -1.529  24.077  0.00  0.00    -0.336 OA
ATOM      9  N   UNL     1      -2.912   0.107  24.711  0.00  0.00    -0.189 NA
ATOM     10  N   UNL     1      -5.093  -0.381  24.224  0.00  0.00    -0.054 NA
ATOM     17  C   UNL     1      -3.035  -1.154  24.384  0.00  0.00    +0.245 A 
ATOM     21  C   UNL     1      -4.201   0.541  24.598  0.00  0.00    +0.221 A 
BRANCH  21  25
ATOM     11  N   UNL     1      -5.793   2.084  25.404  0.00  0.00    -0.252 NA
ATOM     25  C   UNL     1      -4.564   1.902  24.870  0.00  0.00    +0.115 A 
ATOM     26  C   UNL     1      -3.681   2.931  24.586  0.00  0.00    +0.077 A 
ATOM     27  C   UNL     1      -4.085   4.231  24.868  0.00  0.00    +0.124 A 
ATOM     28  C   UNL     1      -6.151   3.361  25.664  0.00  0.00    +0.115 A 
ATOM     30  C   UNL     1      -5.342   4.459  25.418  0.00  0.00    +0.065 A 
BRANCH  27   6
ATOM      6  O   UNL     1      -3.253   5.276  24.608  0.00  0.00    -0.490 OA
BRANCH   6  31
ATOM     31  C   UNL     1      -2.057   5.364  25.383  0.00  0.00    +0.257 C 
BRANCH  31  32
ATOM     32  C   UNL     1      -0.958   4.588  24.685  0.00  0.00    +0.200 C 
BRANCH  32   7
ATOM      7  O   UNL     1      -0.160   3.930  25.662  0.00  0.00    -0.380 OA
ATOM     33  C   UNL     1      -0.816   2.784  26.185  0.00  0.00    +0.194 C 
ENDBRANCH  32   7
ENDBRANCH  31  32
ENDBRANCH   6  31
ENDBRANCH  27   6
ENDBRANCH  21  25
ENDBRANCH  12  17
BRANCH   8  16
ATOM     16  C   UNL     1      -0.136  -1.297  22.979  0.00  0.00    +0.120 C 
BRANCH  16  18
ATOM     18  C   UNL     1       0.904  -0.211  23.046  0.00  0.00    -0.030 A 
ATOM     19  C   UNL     1       2.223  -0.485  22.682  0.00  0.00    +0.051 A 
ATOM     20  C   UNL     1       0.550   1.068  23.472  0.00  0.00    +0.005 A 
ATOM     22  C   UNL     1       3.187   0.521  22.744  0.00  0.00    +0.130 A 
ATOM     23  C   UNL     1       1.514   2.075  23.536  0.00  0.00    +0.004 A 
ATOM     24  C   UNL     1       2.832   1.802  23.171  0.00  0.00    +0.046 A 
BRANCH  22   5
ATOM      5  O   UNL     1       4.473   0.253  22.390  0.00  0.00    -0.406 OA
BRANCH   5  29
ATOM      1  F   UNL     1       5.000  -1.278  24.005  0.00  0.00    -0.133 F 
ATOM      2  F   UNL     1       5.416   0.840  24.356  0.00  0.00    -0.133 F 
ATOM      3  F   UNL     1       6.637  -0.264  22.919  0.00  0.00    -0.133 F 
ATOM     29  C   UNL     1       5.388  -0.128  23.411  0.00  0.00    +0.575 C 
ENDBRANCH   5  29
ENDBRANCH  22   5
ENDBRANCH  16  18
ENDBRANCH   8  16
TORSDOF 10
ENDMDL
