MODEL 1
REMARK VINA RESULT:       0.8      0.000      0.000
REMARK  Name = 11883359
REMARK  6 active torsions:
REMARK  status: ('A' for Active; 'I' for Inactive)
REMARK    1  A    between atoms: O_6  and  C_15
REMARK    2  A    between atoms: O_6  and  C_24
REMARK    3  A    between atoms: N_9  and  C_14
REMARK    4  A    between atoms: N_10  and  C_18
REMARK    5  A    between atoms: N_11  and  C_26
REMARK    6  A    between atoms: C_31  and  C_32
REMARK                            x       y       z     vdW  Elec       q    Type
REMARK                         _______ _______ _______ _____ _____    ______ ____
ROOT
ATOM      4  O   UNL     1      -3.052   0.757  25.621  0.00  0.00    -0.368 OA
ATOM      5  O   UNL     1      -5.270  -0.775  24.158  0.00  0.00    -0.368 OA
ATOM     12  C   UNL     1      -3.996  -0.273  23.704  0.00  0.00    +0.173 C 
ATOM     13  C   UNL     1      -3.769   1.049  24.410  0.00  0.00    +0.192 C 
ATOM     14  C   UNL     1      -2.879  -1.153  24.215  0.00  0.00    +0.131 C 
ATOM     15  C   UNL     1      -5.177   1.516  24.691  0.00  0.00    +0.235 C 
ATOM     16  C   UNL     1      -2.677  -0.630  25.627  0.00  0.00    +0.185 C 
ATOM     17  C   UNL     1      -5.889   0.216  24.991  0.00  0.00    +0.207 C 
ENDROOT
BRANCH  14   9
ATOM      8  O   UNL     1      -0.208  -0.810  25.191  0.00  0.00    -0.252 OA
ATOM      9  N   UNL     1      -1.685  -0.997  23.422  0.00  0.00    -0.292 N 
ATOM     11  N   UNL     1       0.548  -0.706  22.970  0.00  0.00    -0.269 N 
ATOM     25  C   UNL     1      -0.411  -0.833  23.979  0.00  0.00    +0.304 C 
ATOM     33  H   UNL     1      -1.762  -1.072  22.412  0.00  0.00    +0.151 HD
ATOM     35  H   UNL     1       0.211  -0.745  22.012  0.00  0.00    +0.156 HD
BRANCH  11  26
ATOM     26  C   UNL     1       1.944  -0.525  23.118  0.00  0.00    +0.035 A 
ATOM     27  C   UNL     1       2.722  -1.542  23.673  0.00  0.00    +0.024 A 
ATOM     28  C   UNL     1       2.541   0.667  22.711  0.00  0.00    +0.024 A 
ATOM     29  C   UNL     1       4.098  -1.364  23.820  0.00  0.00    +0.014 A 
ATOM     30  C   UNL     1       3.916   0.846  22.859  0.00  0.00    +0.014 A 
ATOM     31  C   UNL     1       4.695  -0.171  23.413  0.00  0.00    +0.055 A 
BRANCH  31  32
ATOM      1  F   UNL     1       6.525   1.307  23.845  0.00  0.00    -0.166 F 
ATOM      2  F   UNL     1       6.883  -0.321  22.459  0.00  0.00    -0.166 F 
ATOM      3  F   UNL     1       6.687  -0.731  24.585  0.00  0.00    -0.166 F 
ATOM     32  C   UNL     1       6.166   0.018  23.571  0.00  0.00    +0.417 C 
ENDBRANCH  31  32
ENDBRANCH  11  26
ENDBRANCH  14   9
BRANCH  15   6
ATOM      6  O   UNL     1      -5.264   2.428  25.761  0.00  0.00    -0.442 OA
BRANCH   6  24
ATOM      7  O   UNL     1      -4.807   4.657  25.449  0.00  0.00    -0.226 OA
ATOM     10  N   UNL     1      -3.131   3.149  25.999  0.00  0.00    -0.278 N 
ATOM     24  C   UNL     1      -4.429   3.520  25.712  0.00  0.00    +0.401 C 
ATOM     34  H   UNL     1      -2.951   2.163  26.154  0.00  0.00    +0.152 HD
BRANCH  10  18
ATOM     18  C   UNL     1      -2.020   4.075  26.027  0.00  0.00    +0.076 C 
ATOM     19  C   UNL     1      -0.809   3.459  26.735  0.00  0.00    +0.022 C 
ATOM     20  C   UNL     1      -1.657   4.543  24.612  0.00  0.00    +0.022 C 
ATOM     21  C   UNL     1      -0.140   2.363  25.906  0.00  0.00    +0.002 C 
ATOM     22  C   UNL     1      -0.987   3.444  23.787  0.00  0.00    +0.002 C 
ATOM     23  C   UNL     1       0.221   2.855  24.508  0.00  0.00    +0.000 C 
ENDBRANCH  10  18
ENDBRANCH   6  24
ENDBRANCH  15   6
TORSDOF 6
ENDMDL
MODEL 2
REMARK VINA RESULT:       2.6      1.746      3.704
REMARK  Name = 11883359
REMARK  6 active torsions:
REMARK  status: ('A' for Active; 'I' for Inactive)
REMARK    1  A    between atoms: O_6  and  C_15
REMARK    2  A    between atoms: O_6  and  C_24
REMARK    3  A    between atoms: N_9  and  C_14
REMARK    4  A    between atoms: N_10  and  C_18
REMARK    5  A    between atoms: N_11  and  C_26
REMARK    6  A    between atoms: C_31  and  C_32
REMARK                            x       y       z     vdW  Elec       q    Type
REMARK                         _______ _______ _______ _____ _____    ______ ____
ROOT
ATOM      4  O   UNL     1      -4.130   2.570  23.787  0.00  0.00    -0.368 OA
ATOM      5  O   UNL     1      -2.636   4.814  25.248  0.00  0.00    -0.368 OA
ATOM     12  C   UNL     1      -2.195   3.526  24.770  0.00  0.00    +0.173 C 
ATOM     13  C   UNL     1      -3.343   2.561  24.989  0.00  0.00    +0.192 C 
ATOM     14  C   UNL     1      -2.030   3.558  23.268  0.00  0.00    +0.131 C 
ATOM     15  C   UNL     1      -4.081   3.188  26.147  0.00  0.00    +0.235 C 
ATOM     16  C   UNL     1      -3.454   3.344  22.784  0.00  0.00    +0.185 C 
ATOM     17  C   UNL     1      -3.924   4.665  25.862  0.00  0.00    +0.207 C 
ENDROOT
BRANCH  14   9
ATOM      8  O   UNL     1       0.573   2.933  24.287  0.00  0.00    -0.252 OA
ATOM      9  N   UNL     1      -1.158   2.503  22.816  0.00  0.00    -0.292 N 
ATOM     11  N   UNL     1       0.719   1.181  22.731  0.00  0.00    -0.269 N 
ATOM     25  C   UNL     1       0.105   2.263  23.369  0.00  0.00    +0.304 C 
ATOM     33  H   UNL     1      -1.501   1.863  22.105  0.00  0.00    +0.151 HD
ATOM     35  H   UNL     1       0.193   0.734  21.984  0.00  0.00    +0.156 HD
BRANCH  11  26
ATOM     26  C   UNL     1       1.993   0.626  22.996  0.00  0.00    +0.035 A 
ATOM     27  C   UNL     1       3.137   1.415  22.860  0.00  0.00    +0.024 A 
ATOM     28  C   UNL     1       2.108  -0.706  23.392  0.00  0.00    +0.024 A 
ATOM     29  C   UNL     1       4.394   0.869  23.120  0.00  0.00    +0.014 A 
ATOM     30  C   UNL     1       3.364  -1.252  23.651  0.00  0.00    +0.014 A 
ATOM     31  C   UNL     1       4.508  -0.463  23.515  0.00  0.00    +0.055 A 
BRANCH  31  32
ATOM      1  F   UNL     1       6.842  -0.543  22.997  0.00  0.00    -0.166 F 
ATOM      2  F   UNL     1       5.909  -2.399  23.618  0.00  0.00    -0.166 F 
ATOM      3  F   UNL     1       6.266  -0.825  25.075  0.00  0.00    -0.166 F 
ATOM     32  C   UNL     1       5.852  -1.046  23.794  0.00  0.00    +0.417 C 
ENDBRANCH  31  32
ENDBRANCH  11  26
ENDBRANCH  14   9
BRANCH  15   6
ATOM      6  O   UNL     1      -5.435   2.804  26.226  0.00  0.00    -0.442 OA
BRANCH   6  24
ATOM      7  O   UNL     1      -6.866   1.211  25.396  0.00  0.00    -0.226 OA
ATOM     10  N   UNL     1      -4.635   0.727  25.811  0.00  0.00    -0.278 N 
ATOM     24  C   UNL     1      -5.747   1.543  25.775  0.00  0.00    +0.401 C 
ATOM     34  H   UNL     1      -3.780   1.120  26.191  0.00  0.00    +0.152 HD
BRANCH  10  18
ATOM     18  C   UNL     1      -4.643  -0.659  25.399  0.00  0.00    +0.076 C 
ATOM     19  C   UNL     1      -4.369  -0.787  23.896  0.00  0.00    +0.022 C 
ATOM     20  C   UNL     1      -3.643  -1.484  26.217  0.00  0.00    +0.022 C 
ATOM     21  C   UNL     1      -2.917  -0.476  23.536  0.00  0.00    +0.002 C 
ATOM     22  C   UNL     1      -2.191  -1.171  25.853  0.00  0.00    +0.002 C 
ATOM     23  C   UNL     1      -1.942  -1.316  24.355  0.00  0.00    +0.000 C 
ENDBRANCH  10  18
ENDBRANCH   6  24
ENDBRANCH  15   6
TORSDOF 6
ENDMDL
