MODEL 1
REMARK VINA RESULT:       5.6      0.000      0.000
REMARK  Name = 11879570
REMARK  8 active torsions:
REMARK  status: ('A' for Active; 'I' for Inactive)
REMARK    1  A    between atoms: O_3  and  C_18
REMARK    2  A    between atoms: O_3  and  C_21
REMARK    3  A    between atoms: N_5  and  C_14
REMARK    4  A    between atoms: N_6  and  C_15
REMARK    5  A    between atoms: N_9  and  C_20
REMARK    6  A    between atoms: N_11  and  C_29
REMARK    7  A    between atoms: N_11  and  C_36
REMARK    8  A    between atoms: N_11  and  C_37
REMARK                            x       y       z     vdW  Elec       q    Type
REMARK                         _______ _______ _______ _____ _____    ______ ____
ROOT
ATOM      1  O   UNL     1      -3.141   4.657  26.962  0.00  0.00    -0.370 OA
ATOM      2  O   UNL     1      -2.523   4.119  23.926  0.00  0.00    -0.370 OA
ATOM     12  C   UNL     1      -3.125   3.340  24.975  0.00  0.00    +0.176 C 
ATOM     13  C   UNL     1      -2.380   3.664  26.257  0.00  0.00    +0.172 C 
ATOM     14  C   UNL     1      -4.543   3.816  25.222  0.00  0.00    +0.171 C 
ATOM     15  C   UNL     1      -1.066   4.244  25.788  0.00  0.00    +0.131 C 
ATOM     16  C   UNL     1      -4.359   4.924  26.253  0.00  0.00    +0.190 C 
ATOM     17  C   UNL     1      -1.449   4.897  24.475  0.00  0.00    +0.185 C 
ENDROOT
BRANCH  15   6
ATOM      4  O   UNL     1      -0.475   2.887  23.336  0.00  0.00    -0.252 OA
ATOM      6  N   UNL     1      -0.078   3.210  25.590  0.00  0.00    -0.292 N 
ATOM      9  N   UNL     1       1.161   1.638  24.465  0.00  0.00    -0.269 N 
ATOM     19  C   UNL     1       0.149   2.596  24.353  0.00  0.00    +0.304 C 
ATOM     38  H   UNL     1       0.450   2.881  26.392  0.00  0.00    +0.151 HD
ATOM     39  H   UNL     1       1.683   1.678  25.333  0.00  0.00    +0.156 HD
BRANCH   9  20
ATOM     20  C   UNL     1       1.682   0.804  23.448  0.00  0.00    +0.042 A 
ATOM     22  C   UNL     1       3.053   0.553  23.347  0.00  0.00    +0.003 A 
ATOM     23  C   UNL     1       0.772   0.248  22.559  0.00  0.00    +0.024 A 
ATOM     26  C   UNL     1       3.517  -0.290  22.310  0.00  0.00    -0.016 A 
ATOM     27  C   UNL     1       1.228  -0.580  21.538  0.00  0.00    +0.002 A 
ATOM     28  C   UNL     1       3.978   1.112  24.244  0.00  0.00    +0.010 A 
ATOM     30  C   UNL     1       2.592  -0.848  21.412  0.00  0.00    +0.008 A 
ATOM     32  C   UNL     1       4.893  -0.549  22.198  0.00  0.00    +0.008 A 
ATOM     34  C   UNL     1       5.342   0.844  24.118  0.00  0.00    +0.001 A 
ATOM     35  C   UNL     1       5.799   0.015  23.098  0.00  0.00    +0.001 A 
ENDBRANCH   9  20
ENDBRANCH  15   6
BRANCH  14   5
ATOM      5  N   UNL     1      -5.437   2.729  25.633  0.00  0.00    -0.187 N 
ATOM      7  N   UNL     1      -6.322   2.905  26.619  0.00  0.00    -0.041 NA
ATOM      8  N   UNL     1      -6.461   0.834  25.804  0.00  0.00    -0.071 NA
ATOM     10  N   UNL     1      -6.948   1.739  26.721  0.00  0.00    -0.020 NA
ATOM     18  C   UNL     1      -5.524   1.472  25.141  0.00  0.00    +0.342 A 
BRANCH  18   3
ATOM      3  O   UNL     1      -4.782   0.987  24.162  0.00  0.00    -0.423 OA
BRANCH   3  21
ATOM     21  C   UNL     1      -4.069  -0.197  24.281  0.00  0.00    +0.134 A 
ATOM     24  C   UNL     1      -2.830  -0.176  24.891  0.00  0.00    +0.069 A 
ATOM     25  C   UNL     1      -4.619  -1.364  23.786  0.00  0.00    +0.046 A 
ATOM     29  C   UNL     1      -2.113  -1.367  25.011  0.00  0.00    +0.033 A 
ATOM     31  C   UNL     1      -3.903  -2.554  23.905  0.00  0.00    +0.005 A 
ATOM     33  C   UNL     1      -2.650  -2.556  24.518  0.00  0.00    +0.023 A 
BRANCH  29  11
ATOM     11  N   UNL     1      -0.845  -1.367  25.629  0.00  0.00    -0.336 N 
ATOM     36  C   UNL     1       0.167  -2.325  25.228  0.00  0.00    +0.129 C 
ATOM     37  C   UNL     1      -0.541  -0.419  26.682  0.00  0.00    +0.129 C 
ENDBRANCH  29  11
ENDBRANCH   3  21
ENDBRANCH  18   3
ENDBRANCH  14   5
TORSDOF 6
ENDMDL
MODEL 2
REMARK VINA RESULT:       7.9      1.770      4.227
REMARK  Name = 11879570
REMARK  8 active torsions:
REMARK  status: ('A' for Active; 'I' for Inactive)
REMARK    1  A    between atoms: O_3  and  C_18
REMARK    2  A    between atoms: O_3  and  C_21
REMARK    3  A    between atoms: N_5  and  C_14
REMARK    4  A    between atoms: N_6  and  C_15
REMARK    5  A    between atoms: N_9  and  C_20
REMARK    6  A    between atoms: N_11  and  C_29
REMARK    7  A    between atoms: N_11  and  C_36
REMARK    8  A    between atoms: N_11  and  C_37
REMARK                            x       y       z     vdW  Elec       q    Type
REMARK                         _______ _______ _______ _____ _____    ______ ____
ROOT
ATOM      1  O   UNL     1      -4.445  -0.883  23.406  0.00  0.00    -0.370 OA
ATOM      2  O   UNL     1      -3.424  -1.550  26.304  0.00  0.00    -0.370 OA
ATOM     12  C   UNL     1      -3.521  -0.339  25.535  0.00  0.00    +0.176 C 
ATOM     13  C   UNL     1      -3.200  -0.695  24.096  0.00  0.00    +0.172 C 
ATOM     14  C   UNL     1      -4.961   0.138  25.502  0.00  0.00    +0.171 C 
ATOM     15  C   UNL     1      -2.452  -2.004  24.194  0.00  0.00    +0.131 C 
ATOM     16  C   UNL     1      -5.535  -0.588  24.291  0.00  0.00    +0.190 C 
ATOM     17  C   UNL     1      -3.056  -2.631  25.435  0.00  0.00    +0.185 C 
ENDROOT
BRANCH  15   6
ATOM      4  O   UNL     1      -0.873   0.020  22.920  0.00  0.00    -0.252 OA
ATOM      6  N   UNL     1      -1.034  -1.786  24.355  0.00  0.00    -0.292 N 
ATOM      9  N   UNL     1       1.017  -0.801  24.044  0.00  0.00    -0.269 N 
ATOM     19  C   UNL     1      -0.335  -0.769  23.694  0.00  0.00    +0.304 C 
ATOM     38  H   UNL     1      -0.507  -2.424  24.943  0.00  0.00    +0.151 HD
ATOM     39  H   UNL     1       1.232  -1.397  24.836  0.00  0.00    +0.156 HD
BRANCH   9  20
ATOM     20  C   UNL     1       2.050   0.054  23.595  0.00  0.00    +0.042 A 
ATOM     22  C   UNL     1       3.384  -0.364  23.578  0.00  0.00    +0.003 A 
ATOM     23  C   UNL     1       1.679   1.324  23.172  0.00  0.00    +0.024 A 
ATOM     26  C   UNL     1       4.374   0.535  23.117  0.00  0.00    -0.016 A 
ATOM     27  C   UNL     1       2.654   2.208  22.720  0.00  0.00    +0.002 A 
ATOM     28  C   UNL     1       3.765  -1.647  24.004  0.00  0.00    +0.010 A 
ATOM     30  C   UNL     1       3.993   1.818  22.693  0.00  0.00    +0.008 A 
ATOM     32  C   UNL     1       5.718   0.126  23.096  0.00  0.00    +0.008 A 
ATOM     34  C   UNL     1       5.104  -2.038  23.975  0.00  0.00    +0.001 A 
ATOM     35  C   UNL     1       6.079  -1.153  23.523  0.00  0.00    +0.001 A 
ENDBRANCH   9  20
ENDBRANCH  15   6
BRANCH  14   5
ATOM      5  N   UNL     1      -5.068   1.599  25.457  0.00  0.00    -0.187 N 
ATOM      7  N   UNL     1      -6.120   2.226  25.991  0.00  0.00    -0.041 NA
ATOM      8  N   UNL     1      -4.700   3.699  25.105  0.00  0.00    -0.071 NA
ATOM     10  N   UNL     1      -5.890   3.515  25.772  0.00  0.00    -0.020 NA
ATOM     18  C   UNL     1      -4.208   2.496  24.921  0.00  0.00    +0.342 A 
BRANCH  18   3
ATOM      3  O   UNL     1      -3.074   2.192  24.317  0.00  0.00    -0.423 OA
BRANCH   3  21
ATOM     21  C   UNL     1      -1.858   2.751  24.686  0.00  0.00    +0.134 A 
ATOM     24  C   UNL     1      -1.228   2.293  25.827  0.00  0.00    +0.069 A 
ATOM     25  C   UNL     1      -1.312   3.747  23.901  0.00  0.00    +0.046 A 
ATOM     29  C   UNL     1      -0.006   2.854  26.198  0.00  0.00    +0.033 A 
ATOM     31  C   UNL     1      -0.091   4.309  24.271  0.00  0.00    +0.005 A 
ATOM     33  C   UNL     1       0.563   3.863  25.420  0.00  0.00    +0.023 A 
BRANCH  29  11
ATOM     11  N   UNL     1       0.653   2.403  27.361  0.00  0.00    -0.336 N 
ATOM     36  C   UNL     1       0.194   1.214  28.051  0.00  0.00    +0.129 C 
ATOM     37  C   UNL     1       1.791   3.130  27.887  0.00  0.00    +0.129 C 
ENDBRANCH  29  11
ENDBRANCH   3  21
ENDBRANCH  18   3
ENDBRANCH  14   5
TORSDOF 6
ENDMDL
MODEL 3
REMARK VINA RESULT:       9.4      1.831      4.084
REMARK  Name = 11879570
REMARK  8 active torsions:
REMARK  status: ('A' for Active; 'I' for Inactive)
REMARK    1  A    between atoms: O_3  and  C_18
REMARK    2  A    between atoms: O_3  and  C_21
REMARK    3  A    between atoms: N_5  and  C_14
REMARK    4  A    between atoms: N_6  and  C_15
REMARK    5  A    between atoms: N_9  and  C_20
REMARK    6  A    between atoms: N_11  and  C_29
REMARK    7  A    between atoms: N_11  and  C_36
REMARK    8  A    between atoms: N_11  and  C_37
REMARK                            x       y       z     vdW  Elec       q    Type
REMARK                         _______ _______ _______ _____ _____    ______ ____
ROOT
ATOM      1  O   UNL     1      -4.315  -0.893  23.384  0.00  0.00    -0.370 OA
ATOM      2  O   UNL     1      -3.381  -1.884  26.218  0.00  0.00    -0.370 OA
ATOM     12  C   UNL     1      -3.642  -0.589  25.650  0.00  0.00    +0.176 C 
ATOM     13  C   UNL     1      -3.170  -0.628  24.209  0.00  0.00    +0.172 C 
ATOM     14  C   UNL     1      -5.138  -0.356  25.560  0.00  0.00    +0.171 C 
ATOM     15  C   UNL     1      -2.209  -1.794  24.163  0.00  0.00    +0.131 C 
ATOM     16  C   UNL     1      -5.494  -0.941  24.198  0.00  0.00    +0.190 C 
ATOM     17  C   UNL     1      -2.771  -2.720  25.224  0.00  0.00    +0.185 C 
ENDROOT
BRANCH  15   6
ATOM      4  O   UNL     1      -0.395  -0.367  22.466  0.00  0.00    -0.252 OA
ATOM      6  N   UNL     1      -0.866  -1.378  24.491  0.00  0.00    -0.292 N 
ATOM      9  N   UNL     1       1.197  -0.414  24.191  0.00  0.00    -0.269 N 
ATOM     19  C   UNL     1      -0.042  -0.681  23.600  0.00  0.00    +0.304 C 
ATOM     38  H   UNL     1      -0.482  -1.638  25.394  0.00  0.00    +0.151 HD
ATOM     39  H   UNL     1       1.230  -0.580  25.190  0.00  0.00    +0.156 HD
BRANCH   9  20
ATOM     20  C   UNL     1       2.300   0.266  23.624  0.00  0.00    +0.042 A 
ATOM     22  C   UNL     1       3.568  -0.318  23.578  0.00  0.00    +0.003 A 
ATOM     23  C   UNL     1       2.064   1.538  23.117  0.00  0.00    +0.024 A 
ATOM     26  C   UNL     1       4.634   0.410  22.999  0.00  0.00    -0.016 A 
ATOM     27  C   UNL     1       3.112   2.255  22.548  0.00  0.00    +0.002 A 
ATOM     28  C   UNL     1       3.812  -1.603  24.089  0.00  0.00    +0.010 A 
ATOM     30  C   UNL     1       4.390   1.696  22.489  0.00  0.00    +0.008 A 
ATOM     32  C   UNL     1       5.913  -0.167  22.947  0.00  0.00    +0.008 A 
ATOM     34  C   UNL     1       5.089  -2.162  24.028  0.00  0.00    +0.001 A 
ATOM     35  C   UNL     1       6.137  -1.446  23.459  0.00  0.00    +0.001 A 
ENDBRANCH   9  20
ENDBRANCH  15   6
BRANCH  14   5
ATOM      5  N   UNL     1      -5.500   1.053  25.743  0.00  0.00    -0.187 N 
ATOM      7  N   UNL     1      -6.052   1.476  26.883  0.00  0.00    -0.041 NA
ATOM      8  N   UNL     1      -5.815   3.171  25.454  0.00  0.00    -0.071 NA
ATOM     10  N   UNL     1      -6.244   2.777  26.702  0.00  0.00    -0.020 NA
ATOM     18  C   UNL     1      -5.357   2.083  24.878  0.00  0.00    +0.342 A 
BRANCH  18   3
ATOM      3  O   UNL     1      -4.844   1.990  23.664  0.00  0.00    -0.423 OA
BRANCH   3  21
ATOM     21  C   UNL     1      -3.519   2.296  23.388  0.00  0.00    +0.134 A 
ATOM     24  C   UNL     1      -2.728   2.819  24.393  0.00  0.00    +0.069 A 
ATOM     25  C   UNL     1      -3.029   2.069  22.117  0.00  0.00    +0.046 A 
ATOM     29  C   UNL     1      -1.396   3.126  24.114  0.00  0.00    +0.033 A 
ATOM     31  C   UNL     1      -1.698   2.376  21.838  0.00  0.00    +0.005 A 
ATOM     33  C   UNL     1      -0.881   2.905  22.837  0.00  0.00    +0.023 A 
BRANCH  29  11
ATOM     11  N   UNL     1      -0.570   3.663  25.125  0.00  0.00    -0.336 N 
ATOM     36  C   UNL     1      -0.358   5.094  25.217  0.00  0.00    +0.129 C 
ATOM     37  C   UNL     1       0.087   2.789  26.076  0.00  0.00    +0.129 C 
ENDBRANCH  29  11
ENDBRANCH   3  21
ENDBRANCH  18   3
ENDBRANCH  14   5
TORSDOF 6
ENDMDL
