MODEL 1
REMARK VINA RESULT:      -4.2      0.000      0.000
REMARK  Name = 75537013
REMARK  4 active torsions:
REMARK  status: ('A' for Active; 'I' for Inactive)
REMARK    1  A    between atoms: O_3  and  C_20
REMARK    2  A    between atoms: O_3  and  C_21
REMARK    3  A    between atoms: N_4  and  C_8
REMARK    4  A    between atoms: C_19  and  C_20
REMARK                            x       y       z     vdW  Elec       q    Type
REMARK                         _______ _______ _______ _____ _____    ______ ____
ROOT
ATOM      1  O   UNL     1      -9.413 -10.614  15.477  0.00  0.00    -0.252 OA
ATOM      2  O   UNL     1      -7.861  -8.587   9.001  0.00  0.00    -0.273 OA
ATOM      4  N   UNL     1      -7.079 -10.291  15.576  0.00  0.00    -0.281 N 
ATOM      5  N   UNL     1      -8.161  -9.768  13.677  0.00  0.00    -0.278 N 
ATOM      6  N   UNL     1      -7.288  -9.529  11.046  0.00  0.00    -0.296 N 
ATOM      7  C   UNL     1      -6.791  -9.346  13.445  0.00  0.00    +0.112 C 
ATOM      9  C   UNL     1      -6.032  -9.899  14.648  0.00  0.00    +0.133 C 
ATOM     12  C   UNL     1      -6.301  -9.853  12.091  0.00  0.00    +0.132 C 
ATOM     13  C   UNL     1      -8.353 -10.264  14.974  0.00  0.00    +0.305 C 
ATOM     14  C   UNL     1      -9.165  -9.552  12.652  0.00  0.00    +0.128 C 
ATOM     17  C   UNL     1      -8.644 -10.039  11.302  0.00  0.00    +0.127 C 
ATOM     19  C   UNL     1      -7.021  -8.825   9.873  0.00  0.00    +0.241 C 
ENDROOT
BRANCH   4   8
ATOM      8  C   UNL     1      -6.783 -10.774  16.902  0.00  0.00    +0.078 C 
ATOM     10  C   UNL     1      -7.856 -10.316  17.893  0.00  0.00    +0.022 C 
ATOM     11  C   UNL     1      -5.388 -10.324  17.344  0.00  0.00    +0.022 C 
ATOM     15  C   UNL     1      -7.539 -10.770  19.315  0.00  0.00    +0.002 C 
ATOM     16  C   UNL     1      -5.075 -10.779  18.768  0.00  0.00    +0.002 C 
ATOM     18  C   UNL     1      -6.147 -10.322  19.753  0.00  0.00    +0.000 C 
ENDBRANCH   4   8
BRANCH  19  20
ATOM     20  C   UNL     1      -5.607  -8.334   9.690  0.00  0.00    +0.255 C 
BRANCH  20   3
ATOM      3  O   UNL     1      -4.892  -9.386   9.087  0.00  0.00    -0.374 OA
ATOM     21  C   UNL     1      -3.544  -9.454   9.553  0.00  0.00    +0.194 C 
ENDBRANCH  20   3
ENDBRANCH  19  20
TORSDOF 3
ENDMDL
MODEL 2
REMARK VINA RESULT:      -4.1      1.920      2.886
REMARK  Name = 75537013
REMARK  4 active torsions:
REMARK  status: ('A' for Active; 'I' for Inactive)
REMARK    1  A    between atoms: O_3  and  C_20
REMARK    2  A    between atoms: O_3  and  C_21
REMARK    3  A    between atoms: N_4  and  C_8
REMARK    4  A    between atoms: C_19  and  C_20
REMARK                            x       y       z     vdW  Elec       q    Type
REMARK                         _______ _______ _______ _____ _____    ______ ____
ROOT
ATOM      1  O   UNL     1      -9.582  -9.540  12.883  0.00  0.00    -0.252 OA
ATOM      2  O   UNL     1      -3.701  -9.534   9.159  0.00  0.00    -0.273 OA
ATOM      4  N   UNL     1      -7.937 -10.019  14.504  0.00  0.00    -0.281 N 
ATOM      5  N   UNL     1      -7.281  -9.559  12.404  0.00  0.00    -0.278 N 
ATOM      6  N   UNL     1      -4.956 -10.175  11.005  0.00  0.00    -0.296 N 
ATOM      7  C   UNL     1      -6.044  -9.686  13.153  0.00  0.00    +0.112 C 
ATOM      9  C   UNL     1      -6.496 -10.206  14.516  0.00  0.00    +0.133 C 
ATOM     12  C   UNL     1      -5.065 -10.595  12.414  0.00  0.00    +0.132 C 
ATOM     13  C   UNL     1      -8.414  -9.683  13.221  0.00  0.00    +0.305 C 
ATOM     14  C   UNL     1      -7.237  -9.228  10.991  0.00  0.00    +0.128 C 
ATOM     17  C   UNL     1      -6.233 -10.129  10.277  0.00  0.00    +0.127 C 
ATOM     19  C   UNL     1      -3.768  -9.860  10.347  0.00  0.00    +0.241 C 
ENDROOT
BRANCH   4   8
ATOM      8  C   UNL     1      -8.752 -10.292  15.662  0.00  0.00    +0.078 C 
ATOM     10  C   UNL     1      -9.740  -9.149  15.904  0.00  0.00    +0.022 C 
ATOM     11  C   UNL     1      -7.877 -10.543  16.893  0.00  0.00    +0.022 C 
ATOM     15  C   UNL     1     -10.580  -9.388  17.156  0.00  0.00    +0.002 C 
ATOM     16  C   UNL     1      -8.722 -10.781  18.143  0.00  0.00    +0.002 C 
ATOM     18  C   UNL     1      -9.707  -9.641  18.382  0.00  0.00    +0.000 C 
ENDBRANCH   4   8
BRANCH  19  20
ATOM     20  C   UNL     1      -2.505  -9.929  11.167  0.00  0.00    +0.255 C 
BRANCH  20   3
ATOM      3  O   UNL     1      -1.629  -8.963  10.639  0.00  0.00    -0.374 OA
ATOM     21  C   UNL     1      -0.384  -8.930  11.335  0.00  0.00    +0.194 C 
ENDBRANCH  20   3
ENDBRANCH  19  20
TORSDOF 3
ENDMDL
MODEL 3
REMARK VINA RESULT:      -2.8     15.157     16.979
REMARK  Name = 75537013
REMARK  4 active torsions:
REMARK  status: ('A' for Active; 'I' for Inactive)
REMARK    1  A    between atoms: O_3  and  C_20
REMARK    2  A    between atoms: O_3  and  C_21
REMARK    3  A    between atoms: N_4  and  C_8
REMARK    4  A    between atoms: C_19  and  C_20
REMARK                            x       y       z     vdW  Elec       q    Type
REMARK                         _______ _______ _______ _____ _____    ______ ____
ROOT
ATOM      1  O   UNL     1      -0.105  -2.054  24.105  0.00  0.00    -0.252 OA
ATOM      2  O   UNL     1      -5.849   1.694  25.292  0.00  0.00    -0.273 OA
ATOM      4  N   UNL     1       0.598   0.145  23.623  0.00  0.00    -0.281 N 
ATOM      5  N   UNL     1      -1.478  -0.174  24.424  0.00  0.00    -0.278 N 
ATOM      6  N   UNL     1      -3.786   1.374  24.274  0.00  0.00    -0.296 N 
ATOM      7  C   UNL     1      -1.333   1.269  24.351  0.00  0.00    +0.112 C 
ATOM      9  C   UNL     1      -0.012   1.464  23.610  0.00  0.00    +0.133 C 
ATOM     12  C   UNL     1      -2.547   1.893  23.667  0.00  0.00    +0.132 C 
ATOM     13  C   UNL     1      -0.303  -0.847  24.061  0.00  0.00    +0.305 C 
ATOM     14  C   UNL     1      -2.708  -0.749  24.935  0.00  0.00    +0.128 C 
ATOM     17  C   UNL     1      -3.909  -0.092  24.260  0.00  0.00    +0.127 C 
ATOM     19  C   UNL     1      -4.810   2.152  24.811  0.00  0.00    +0.241 C 
ENDROOT
BRANCH   4   8
ATOM      8  C   UNL     1       1.925  -0.088  23.109  0.00  0.00    +0.078 C 
ATOM     10  C   UNL     1       2.679  -1.079  23.999  0.00  0.00    +0.022 C 
ATOM     11  C   UNL     1       2.691   1.230  22.968  0.00  0.00    +0.022 C 
ATOM     15  C   UNL     1       4.106  -1.304  23.506  0.00  0.00    +0.002 C 
ATOM     16  C   UNL     1       4.118   1.000  22.476  0.00  0.00    +0.002 C 
ATOM     18  C   UNL     1       4.867   0.011  23.364  0.00  0.00    +0.000 C 
ENDBRANCH   4   8
BRANCH  19  20
ATOM     20  C   UNL     1      -4.601   3.646  24.789  0.00  0.00    +0.255 C 
BRANCH  20   3
ATOM      3  O   UNL     1      -4.128   4.004  26.066  0.00  0.00    -0.374 OA
ATOM     21  C   UNL     1      -2.731   4.297  26.057  0.00  0.00    +0.194 C 
ENDBRANCH  20   3
ENDBRANCH  19  20
TORSDOF 3
ENDMDL
MODEL 4
REMARK VINA RESULT:      -2.7      2.927      4.238
REMARK  Name = 75537013
REMARK  4 active torsions:
REMARK  status: ('A' for Active; 'I' for Inactive)
REMARK    1  A    between atoms: O_3  and  C_20
REMARK    2  A    between atoms: O_3  and  C_21
REMARK    3  A    between atoms: N_4  and  C_8
REMARK    4  A    between atoms: C_19  and  C_20
REMARK                            x       y       z     vdW  Elec       q    Type
REMARK                         _______ _______ _______ _____ _____    ______ ____
ROOT
ATOM      1  O   UNL     1      -8.410  -9.865  12.584  0.00  0.00    -0.252 OA
ATOM      2  O   UNL     1      -1.588 -10.137  11.227  0.00  0.00    -0.273 OA
ATOM      4  N   UNL     1      -7.457 -10.033  14.734  0.00  0.00    -0.281 N 
ATOM      5  N   UNL     1      -6.090  -9.851  12.958  0.00  0.00    -0.278 N 
ATOM      6  N   UNL     1      -3.426 -10.560  12.584  0.00  0.00    -0.296 N 
ATOM      7  C   UNL     1      -5.203  -9.815  14.107  0.00  0.00    +0.112 C 
ATOM      9  C   UNL     1      -6.117 -10.153  15.283  0.00  0.00    +0.133 C 
ATOM     12  C   UNL     1      -4.035 -10.777  13.909  0.00  0.00    +0.132 C 
ATOM     13  C   UNL     1      -7.441  -9.907  13.330  0.00  0.00    +0.305 C 
ATOM     14  C   UNL     1      -5.542  -9.725  11.621  0.00  0.00    +0.128 C 
ATOM     17  C   UNL     1      -4.359 -10.675  11.453  0.00  0.00    +0.127 C 
ATOM     19  C   UNL     1      -2.078 -10.291  12.349  0.00  0.00    +0.241 C 
ENDROOT
BRANCH   4   8
ATOM      8  C   UNL     1      -8.634 -10.171  15.555  0.00  0.00    +0.078 C 
ATOM     10  C   UNL     1      -9.492  -8.906  15.482  0.00  0.00    +0.022 C 
ATOM     11  C   UNL     1      -8.251 -10.502  17.001  0.00  0.00    +0.022 C 
ATOM     15  C   UNL     1     -10.720  -9.006  16.384  0.00  0.00    +0.002 C 
ATOM     16  C   UNL     1      -9.481 -10.600  17.900  0.00  0.00    +0.002 C 
ATOM     18  C   UNL     1     -10.336  -9.338  17.823  0.00  0.00    +0.000 C 
ENDBRANCH   4   8
BRANCH  19  20
ATOM     20  C   UNL     1      -1.192 -10.185  13.564  0.00  0.00    +0.255 C 
BRANCH  20   3
ATOM      3  O   UNL     1      -1.895 -10.781  14.628  0.00  0.00    -0.374 OA
ATOM     21  C   UNL     1      -1.359 -10.412  15.898  0.00  0.00    +0.194 C 
ENDBRANCH  20   3
ENDBRANCH  19  20
TORSDOF 3
ENDMDL
MODEL 5
REMARK VINA RESULT:      -1.7     14.975     16.602
REMARK  Name = 75537013
REMARK  4 active torsions:
REMARK  status: ('A' for Active; 'I' for Inactive)
REMARK    1  A    between atoms: O_3  and  C_20
REMARK    2  A    between atoms: O_3  and  C_21
REMARK    3  A    between atoms: N_4  and  C_8
REMARK    4  A    between atoms: C_19  and  C_20
REMARK                            x       y       z     vdW  Elec       q    Type
REMARK                         _______ _______ _______ _____ _____    ______ ____
ROOT
ATOM      1  O   UNL     1      -3.578  -0.754  24.584  0.00  0.00    -0.252 OA
ATOM      2  O   UNL     1       3.220  -1.438  23.251  0.00  0.00    -0.273 OA
ATOM      4  N   UNL     1      -2.948   1.428  23.950  0.00  0.00    -0.281 N 
ATOM      5  N   UNL     1      -1.418  -0.214  23.829  0.00  0.00    -0.278 N 
ATOM      6  N   UNL     1       1.364  -0.168  23.830  0.00  0.00    -0.296 N 
ATOM      7  C   UNL     1      -0.752   0.947  23.267  0.00  0.00    +0.112 C 
ATOM      9  C   UNL     1      -1.719   2.094  23.551  0.00  0.00    +0.133 C 
ATOM     12  C   UNL     1       0.635   1.113  23.881  0.00  0.00    +0.132 C 
ATOM     13  C   UNL     1      -2.753   0.050  24.169  0.00  0.00    +0.305 C 
ATOM     14  C   UNL     1      -0.724  -1.488  23.883  0.00  0.00    +0.128 C 
ATOM     17  C   UNL     1       0.670  -1.294  24.473  0.00  0.00    +0.127 C 
ATOM     19  C   UNL     1       2.620  -0.360  23.259  0.00  0.00    +0.241 C 
ENDROOT
BRANCH   4   8
ATOM      8  C   UNL     1      -4.163   2.160  24.209  0.00  0.00    +0.078 C 
ATOM     10  C   UNL     1      -3.863   3.438  24.997  0.00  0.00    +0.022 C 
ATOM     11  C   UNL     1      -5.179   1.280  24.942  0.00  0.00    +0.022 C 
ATOM     15  C   UNL     1      -5.139   4.205  25.331  0.00  0.00    +0.002 C 
ATOM     16  C   UNL     1      -6.454   2.051  25.275  0.00  0.00    +0.002 C 
ATOM     18  C   UNL     1      -6.152   3.326  26.059  0.00  0.00    +0.000 C 
ENDBRANCH   4   8
BRANCH  19  20
ATOM     20  C   UNL     1       3.259   0.846  22.617  0.00  0.00    +0.255 C 
BRANCH  20   3
ATOM      3  O   UNL     1       4.624   0.541  22.458  0.00  0.00    -0.374 OA
ATOM     21  C   UNL     1       5.325   0.555  23.701  0.00  0.00    +0.194 C 
ENDBRANCH  20   3
ENDBRANCH  19  20
TORSDOF 3
ENDMDL
MODEL 6
REMARK VINA RESULT:      -0.5      3.146      5.344
REMARK  Name = 75537013
REMARK  4 active torsions:
REMARK  status: ('A' for Active; 'I' for Inactive)
REMARK    1  A    between atoms: O_3  and  C_20
REMARK    2  A    between atoms: O_3  and  C_21
REMARK    3  A    between atoms: N_4  and  C_8
REMARK    4  A    between atoms: C_19  and  C_20
REMARK                            x       y       z     vdW  Elec       q    Type
REMARK                         _______ _______ _______ _____ _____    ______ ____
ROOT
ATOM      1  O   UNL     1      -7.018 -10.781  10.293  0.00  0.00    -0.252 OA
ATOM      2  O   UNL     1      -0.246  -9.270  10.848  0.00  0.00    -0.273 OA
ATOM      4  N   UNL     1      -6.759 -10.386  12.603  0.00  0.00    -0.281 N 
ATOM      5  N   UNL     1      -4.997 -10.057  11.248  0.00  0.00    -0.278 N 
ATOM      6  N   UNL     1      -2.258 -10.018  11.736  0.00  0.00    -0.296 N 
ATOM      7  C   UNL     1      -4.539  -9.618  12.554  0.00  0.00    +0.112 C 
ATOM      9  C   UNL     1      -5.664 -10.045  13.495  0.00  0.00    +0.133 C 
ATOM     12  C   UNL     1      -3.175 -10.224  12.872  0.00  0.00    +0.132 C 
ATOM     13  C   UNL     1      -6.344 -10.446  11.258  0.00  0.00    +0.305 C 
ATOM     14  C   UNL     1      -4.110  -9.956  10.103  0.00  0.00    +0.128 C 
ATOM     17  C   UNL     1      -2.744 -10.542  10.451  0.00  0.00    +0.127 C 
ATOM     19  C   UNL     1      -1.006  -9.409  11.810  0.00  0.00    +0.241 C 
ENDROOT
BRANCH   4   8
ATOM      8  C   UNL     1      -8.064 -10.746  13.100  0.00  0.00    +0.078 C 
ATOM     10  C   UNL     1      -9.158 -10.020  12.312  0.00  0.00    +0.022 C 
ATOM     11  C   UNL     1      -8.173 -10.457  14.599  0.00  0.00    +0.022 C 
ATOM     15  C   UNL     1     -10.548 -10.343  12.852  0.00  0.00    +0.002 C 
ATOM     16  C   UNL     1      -9.565 -10.780  15.135  0.00  0.00    +0.002 C 
ATOM     18  C   UNL     1     -10.654 -10.057  14.347  0.00  0.00    +0.000 C 
ENDBRANCH   4   8
BRANCH  19  20
ATOM     20  C   UNL     1      -0.586  -8.896  13.164  0.00  0.00    +0.255 C 
BRANCH  20   3
ATOM      3  O   UNL     1      -0.292  -7.529  13.003  0.00  0.00    -0.374 OA
ATOM     21  C   UNL     1       1.036  -7.319  12.524  0.00  0.00    +0.194 C 
ENDBRANCH  20   3
ENDBRANCH  19  20
TORSDOF 3
ENDMDL
MODEL 7
REMARK VINA RESULT:      -0.3     14.229     16.838
REMARK  Name = 75537013
REMARK  4 active torsions:
REMARK  status: ('A' for Active; 'I' for Inactive)
REMARK    1  A    between atoms: O_3  and  C_20
REMARK    2  A    between atoms: O_3  and  C_21
REMARK    3  A    between atoms: N_4  and  C_8
REMARK    4  A    between atoms: C_19  and  C_20
REMARK                            x       y       z     vdW  Elec       q    Type
REMARK                         _______ _______ _______ _____ _____    ______ ____
ROOT
ATOM      1  O   UNL     1       1.700   2.530  23.797  0.00  0.00    -0.252 OA
ATOM      2  O   UNL     1      -5.034   1.405  25.153  0.00  0.00    -0.273 OA
ATOM      4  N   UNL     1       1.433   0.249  23.259  0.00  0.00    -0.281 N 
ATOM      5  N   UNL     1      -0.380   1.437  23.857  0.00  0.00    -0.278 N 
ATOM      6  N   UNL     1      -2.847   0.669  24.889  0.00  0.00    -0.296 N 
ATOM      7  C   UNL     1      -0.903   0.134  23.486  0.00  0.00    +0.112 C 
ATOM      9  C   UNL     1       0.349  -0.718  23.292  0.00  0.00    +0.133 C 
ATOM     12  C   UNL     1      -1.864  -0.377  24.556  0.00  0.00    +0.132 C 
ATOM     13  C   UNL     1       1.005   1.533  23.652  0.00  0.00    +0.305 C 
ATOM     14  C   UNL     1      -1.290   2.487  24.274  0.00  0.00    +0.128 C 
ATOM     17  C   UNL     1      -2.260   1.947  25.322  0.00  0.00    +0.127 C 
ATOM     19  C   UNL     1      -4.232   0.520  24.846  0.00  0.00    +0.241 C 
ENDROOT
BRANCH   4   8
ATOM      8  C   UNL     1       2.794  -0.138  22.985  0.00  0.00    +0.078 C 
ATOM     10  C   UNL     1       3.244  -1.241  23.946  0.00  0.00    +0.022 C 
ATOM     11  C   UNL     1       3.727   1.075  23.054  0.00  0.00    +0.022 C 
ATOM     15  C   UNL     1       4.700  -1.633  23.711  0.00  0.00    +0.002 C 
ATOM     16  C   UNL     1       5.183   0.679  22.819  0.00  0.00    +0.002 C 
ATOM     18  C   UNL     1       5.627  -0.423  23.777  0.00  0.00    +0.000 C 
ENDBRANCH   4   8
BRANCH  19  20
ATOM     20  C   UNL     1      -4.750  -0.820  24.387  0.00  0.00    +0.255 C 
BRANCH  20   3
ATOM      3  O   UNL     1      -4.047  -1.795  25.120  0.00  0.00    -0.374 OA
ATOM     21  C   UNL     1      -3.778  -2.960  24.342  0.00  0.00    +0.194 C 
ENDBRANCH  20   3
ENDBRANCH  19  20
TORSDOF 3
ENDMDL
