MODEL 1
REMARK VINA RESULT:      -5.1      0.000      0.000
REMARK  Name = 25312555
REMARK  11 active torsions:
REMARK  status: ('A' for Active; 'I' for Inactive)
REMARK    1  A    between atoms: O_2  and  C_19
REMARK    2  A    between atoms: N_5  and  C_18
REMARK    3  A    between atoms: N_5  and  C_20
REMARK    4  A    between atoms: N_5  and  C_21
REMARK    5  A    between atoms: C_6  and  C_12
REMARK    6  A    between atoms: C_7  and  C_17
REMARK    7  A    between atoms: C_10  and  C_15
REMARK    8  A    between atoms: C_12  and  C_18
REMARK    9  A    between atoms: C_17  and  C_19
REMARK   10  A    between atoms: C_20  and  C_22
REMARK   11  A    between atoms: C_21  and  C_23
REMARK                            x       y       z     vdW  Elec       q    Type
REMARK                         _______ _______ _______ _____ _____    ______ ____
ROOT
ATOM      1  O   UNL     1      -3.310   4.292  26.431  0.00  0.00    -0.275 OA
ATOM      4  N   UNL     1      -2.147   3.347  24.649  0.00  0.00    -0.301 N 
ATOM      6  C   UNL     1      -1.158   1.389  23.487  0.00  0.00    +0.011 C 
ATOM      7  C   UNL     1       0.242   1.875  23.939  0.00  0.00    +0.006 C 
ATOM      8  C   UNL     1      -2.123   2.585  23.395  0.00  0.00    +0.111 C 
ATOM      9  C   UNL     1       0.162   2.710  25.228  0.00  0.00    +0.023 C 
ATOM     11  C   UNL     1      -0.847   3.847  25.091  0.00  0.00    +0.108 C 
ATOM     15  C   UNL     1      -3.294   3.632  25.396  0.00  0.00    +0.219 C 
ENDROOT
BRANCH  15  10
ATOM     10  C   UNL     1      -4.593   3.090  24.892  0.00  0.00    +0.075 C 
ATOM     13  C   UNL     1      -4.850   1.580  25.075  0.00  0.00    +0.013 C 
ATOM     14  C   UNL     1      -5.846   3.330  25.760  0.00  0.00    +0.013 C 
ATOM     16  C   UNL     1      -6.333   1.937  25.307  0.00  0.00    +0.001 C 
ENDBRANCH  15  10
BRANCH   6  12
ATOM     12  C   UNL     1      -1.754   0.290  24.376  0.00  0.00    +0.020 C 
BRANCH  12  18
ATOM     18  C   UNL     1      -2.152  -0.923  23.548  0.00  0.00    +0.084 C 
BRANCH  18   5
ATOM      5  N   UNL     1      -1.979  -2.139  24.335  0.00  0.00    -0.303 NA
BRANCH   5  20
ATOM     20  C   UNL     1      -3.279  -2.711  24.689  0.00  0.00    +0.081 C 
ATOM     22  C   UNL     1      -4.398  -2.070  23.885  0.00  0.00    +0.020 C 
ENDBRANCH   5  20
BRANCH   5  21
ATOM     21  C   UNL     1      -1.199  -1.864  25.543  0.00  0.00    +0.081 C 
ATOM     23  C   UNL     1       0.163  -2.534  25.480  0.00  0.00    +0.020 C 
ENDBRANCH   5  21
ENDBRANCH  18   5
ENDBRANCH  12  18
ENDBRANCH   6  12
BRANCH   7  17
ATOM     17  C   UNL     1       1.252   0.738  24.095  0.00  0.00    +0.124 C 
BRANCH  17  19
ATOM      3  O   UNL     1       1.738  -0.129  21.870  0.00  0.00    -0.251 OA
ATOM     19  C   UNL     1       2.058   0.536  22.843  0.00  0.00    +0.305 C 
BRANCH  19   2
ATOM      2  O   UNL     1       3.231   1.216  22.940  0.00  0.00    -0.481 OA
ATOM     24  H   UNL     1       3.594   1.444  22.058  0.00  0.00    +0.295 HD
ENDBRANCH  19   2
ENDBRANCH  17  19
ENDBRANCH   7  17
TORSDOF 9
ENDMDL
MODEL 2
REMARK VINA RESULT:      -4.2      2.374      4.562
REMARK  Name = 25312555
REMARK  11 active torsions:
REMARK  status: ('A' for Active; 'I' for Inactive)
REMARK    1  A    between atoms: O_2  and  C_19
REMARK    2  A    between atoms: N_5  and  C_18
REMARK    3  A    between atoms: N_5  and  C_20
REMARK    4  A    between atoms: N_5  and  C_21
REMARK    5  A    between atoms: C_6  and  C_12
REMARK    6  A    between atoms: C_7  and  C_17
REMARK    7  A    between atoms: C_10  and  C_15
REMARK    8  A    between atoms: C_12  and  C_18
REMARK    9  A    between atoms: C_17  and  C_19
REMARK   10  A    between atoms: C_20  and  C_22
REMARK   11  A    between atoms: C_21  and  C_23
REMARK                            x       y       z     vdW  Elec       q    Type
REMARK                         _______ _______ _______ _____ _____    ______ ____
ROOT
ATOM      1  O   UNL     1      -5.994   4.311  25.338  0.00  0.00    -0.275 OA
ATOM      4  N   UNL     1      -4.587   2.482  25.648  0.00  0.00    -0.301 N 
ATOM      6  C   UNL     1      -2.998   0.785  24.777  0.00  0.00    +0.011 C 
ATOM      7  C   UNL     1      -4.130  -0.269  24.871  0.00  0.00    +0.006 C 
ATOM      8  C   UNL     1      -3.243   1.910  25.798  0.00  0.00    +0.111 C 
ATOM      9  C   UNL     1      -5.519   0.382  24.758  0.00  0.00    +0.023 C 
ATOM     11  C   UNL     1      -5.682   1.521  25.761  0.00  0.00    +0.108 C 
ATOM     15  C   UNL     1      -4.867   3.836  25.439  0.00  0.00    +0.219 C 
ENDROOT
BRANCH  15  10
ATOM     10  C   UNL     1      -3.702   4.768  25.330  0.00  0.00    +0.075 C 
ATOM     13  C   UNL     1      -2.488   4.496  26.242  0.00  0.00    +0.013 C 
ATOM     14  C   UNL     1      -2.749   4.575  24.132  0.00  0.00    +0.013 C 
ATOM     16  C   UNL     1      -1.601   4.986  25.078  0.00  0.00    +0.001 C 
ENDBRANCH  15  10
BRANCH   6  12
ATOM     12  C   UNL     1      -2.808   1.372  23.373  0.00  0.00    +0.020 C 
BRANCH  12  18
ATOM     18  C   UNL     1      -1.330   1.533  23.047  0.00  0.00    +0.084 C 
BRANCH  18   5
ATOM      5  N   UNL     1      -0.522   0.950  24.112  0.00  0.00    -0.303 NA
BRANCH   5  20
ATOM     20  C   UNL     1       0.447   1.925  24.616  0.00  0.00    +0.081 C 
ATOM     22  C   UNL     1       0.210   2.223  26.087  0.00  0.00    +0.020 C 
ENDBRANCH   5  20
BRANCH   5  21
ATOM     21  C   UNL     1       0.167  -0.252  23.638  0.00  0.00    +0.081 C 
ATOM     23  C   UNL     1       1.389   0.107  22.810  0.00  0.00    +0.020 C 
ENDBRANCH   5  21
ENDBRANCH  18   5
ENDBRANCH  12  18
ENDBRANCH   6  12
BRANCH   7  17
ATOM     17  C   UNL     1      -3.982  -1.403  23.857  0.00  0.00    +0.124 C 
BRANCH  17  19
ATOM      3  O   UNL     1      -1.945  -2.741  23.882  0.00  0.00    -0.251 OA
ATOM     19  C   UNL     1      -3.040  -2.467  24.348  0.00  0.00    +0.305 C 
BRANCH  19   2
ATOM      2  O   UNL     1      -3.587  -3.104  25.417  0.00  0.00    -0.481 OA
ATOM     24  H   UNL     1      -3.880  -2.472  26.107  0.00  0.00    +0.295 HD
ENDBRANCH  19   2
ENDBRANCH  17  19
ENDBRANCH   7  17
TORSDOF 9
ENDMDL
MODEL 3
REMARK VINA RESULT:      -3.9      1.950      6.572
REMARK  Name = 25312555
REMARK  11 active torsions:
REMARK  status: ('A' for Active; 'I' for Inactive)
REMARK    1  A    between atoms: O_2  and  C_19
REMARK    2  A    between atoms: N_5  and  C_18
REMARK    3  A    between atoms: N_5  and  C_20
REMARK    4  A    between atoms: N_5  and  C_21
REMARK    5  A    between atoms: C_6  and  C_12
REMARK    6  A    between atoms: C_7  and  C_17
REMARK    7  A    between atoms: C_10  and  C_15
REMARK    8  A    between atoms: C_12  and  C_18
REMARK    9  A    between atoms: C_17  and  C_19
REMARK   10  A    between atoms: C_20  and  C_22
REMARK   11  A    between atoms: C_21  and  C_23
REMARK                            x       y       z     vdW  Elec       q    Type
REMARK                         _______ _______ _______ _____ _____    ______ ____
ROOT
ATOM      1  O   UNL     1       0.022  -1.640  24.963  0.00  0.00    -0.275 OA
ATOM      4  N   UNL     1      -2.008  -0.755  24.246  0.00  0.00    -0.301 N 
ATOM      6  C   UNL     1      -3.703   1.059  24.211  0.00  0.00    +0.011 C 
ATOM      7  C   UNL     1      -4.587   0.200  25.149  0.00  0.00    +0.006 C 
ATOM      8  C   UNL     1      -2.779   0.149  23.383  0.00  0.00    +0.111 C 
ATOM      9  C   UNL     1      -3.741  -0.764  25.997  0.00  0.00    +0.023 C 
ATOM     11  C   UNL     1      -2.812  -1.603  25.124  0.00  0.00    +0.108 C 
ATOM     15  C   UNL     1      -0.615  -0.865  24.255  0.00  0.00    +0.219 C 
ENDROOT
BRANCH  15  10
ATOM     10  C   UNL     1       0.150   0.033  23.336  0.00  0.00    +0.075 C 
ATOM     13  C   UNL     1       1.440   0.677  23.885  0.00  0.00    +0.013 C 
ATOM     14  C   UNL     1       1.033  -0.638  22.262  0.00  0.00    +0.013 C 
ATOM     16  C   UNL     1       2.029   0.523  22.467  0.00  0.00    +0.001 C 
ENDBRANCH  15  10
BRANCH   6  12
ATOM     12  C   UNL     1      -2.881   2.131  24.938  0.00  0.00    +0.020 C 
BRANCH  12  18
ATOM     18  C   UNL     1      -1.867   2.768  23.998  0.00  0.00    +0.084 C 
BRANCH  18   5
ATOM      5  N   UNL     1      -0.693   3.195  24.752  0.00  0.00    -0.303 NA
BRANCH   5  20
ATOM     20  C   UNL     1      -0.831   2.835  26.165  0.00  0.00    +0.081 C 
ATOM     22  C   UNL     1       0.523   2.543  26.790  0.00  0.00    +0.020 C 
ENDBRANCH   5  20
BRANCH   5  21
ATOM     21  C   UNL     1      -0.487   4.637  24.613  0.00  0.00    +0.081 C 
ATOM     23  C   UNL     1      -1.653   5.417  25.198  0.00  0.00    +0.020 C 
ENDBRANCH   5  21
ENDBRANCH  18   5
ENDBRANCH  12  18
ENDBRANCH   6  12
BRANCH   7  17
ATOM     17  C   UNL     1      -5.508   1.035  26.040  0.00  0.00    +0.124 C 
BRANCH  17  19
ATOM      3  O   UNL     1      -7.024   1.779  24.283  0.00  0.00    -0.251 OA
ATOM     19  C   UNL     1      -6.305   2.026  25.239  0.00  0.00    +0.305 C 
BRANCH  19   2
ATOM      2  O   UNL     1      -6.114   3.276  25.737  0.00  0.00    -0.481 OA
ATOM     24  H   UNL     1      -6.890   3.586  26.251  0.00  0.00    +0.295 HD
ENDBRANCH  19   2
ENDBRANCH  17  19
ENDBRANCH   7  17
TORSDOF 9
ENDMDL
MODEL 4
REMARK VINA RESULT:      -3.9      1.878      5.382
REMARK  Name = 25312555
REMARK  11 active torsions:
REMARK  status: ('A' for Active; 'I' for Inactive)
REMARK    1  A    between atoms: O_2  and  C_19
REMARK    2  A    between atoms: N_5  and  C_18
REMARK    3  A    between atoms: N_5  and  C_20
REMARK    4  A    between atoms: N_5  and  C_21
REMARK    5  A    between atoms: C_6  and  C_12
REMARK    6  A    between atoms: C_7  and  C_17
REMARK    7  A    between atoms: C_10  and  C_15
REMARK    8  A    between atoms: C_12  and  C_18
REMARK    9  A    between atoms: C_17  and  C_19
REMARK   10  A    between atoms: C_20  and  C_22
REMARK   11  A    between atoms: C_21  and  C_23
REMARK                            x       y       z     vdW  Elec       q    Type
REMARK                         _______ _______ _______ _____ _____    ______ ____
ROOT
ATOM      1  O   UNL     1       0.561   3.779  23.635  0.00  0.00    -0.275 OA
ATOM      4  N   UNL     1      -1.174   3.205  25.077  0.00  0.00    -0.301 N 
ATOM      6  C   UNL     1      -3.408   2.211  25.511  0.00  0.00    +0.011 C 
ATOM      7  C   UNL     1      -3.978   3.645  25.647  0.00  0.00    +0.006 C 
ATOM      8  C   UNL     1      -1.910   2.207  25.864  0.00  0.00    +0.111 C 
ATOM      9  C   UNL     1      -3.148   4.663  24.847  0.00  0.00    +0.023 C 
ATOM     11  C   UNL     1      -1.666   4.575  25.205  0.00  0.00    +0.108 C 
ATOM     15  C   UNL     1      -0.065   2.935  24.272  0.00  0.00    +0.219 C 
ENDROOT
BRANCH  15  10
ATOM     10  C   UNL     1       0.388   1.513  24.180  0.00  0.00    +0.075 C 
ATOM     13  C   UNL     1      -0.207   0.651  23.047  0.00  0.00    +0.013 C 
ATOM     14  C   UNL     1       1.772   1.247  23.552  0.00  0.00    +0.013 C 
ATOM     16  C   UNL     1       1.169  -0.042  22.956  0.00  0.00    +0.001 C 
ENDBRANCH  15  10
BRANCH   6  12
ATOM     12  C   UNL     1      -3.632   1.580  24.130  0.00  0.00    +0.020 C 
BRANCH  12  18
ATOM     18  C   UNL     1      -3.061   0.170  24.079  0.00  0.00    +0.084 C 
BRANCH  18   5
ATOM      5  N   UNL     1      -3.959  -0.753  24.764  0.00  0.00    -0.303 NA
BRANCH   5  20
ATOM     20  C   UNL     1      -3.299  -1.345  25.929  0.00  0.00    +0.081 C 
ATOM     22  C   UNL     1      -1.801  -1.094  25.896  0.00  0.00    +0.020 C 
ENDBRANCH   5  20
BRANCH   5  21
ATOM     21  C   UNL     1      -4.414  -1.802  23.850  0.00  0.00    +0.081 C 
ATOM     23  C   UNL     1      -3.758  -3.134  24.172  0.00  0.00    +0.020 C 
ENDBRANCH   5  21
ENDBRANCH  18   5
ENDBRANCH  12  18
ENDBRANCH   6  12
BRANCH   7  17
ATOM     17  C   UNL     1      -5.457   3.743  25.272  0.00  0.00    +0.124 C 
BRANCH  17  19
ATOM      3  O   UNL     1      -6.645   1.655  24.863  0.00  0.00    -0.251 OA
ATOM     19  C   UNL     1      -6.206   2.492  25.637  0.00  0.00    +0.305 C 
BRANCH  19   2
ATOM      2  O   UNL     1      -6.333   2.412  26.987  0.00  0.00    -0.481 OA
ATOM     24  H   UNL     1      -5.580   1.936  27.397  0.00  0.00    +0.295 HD
ENDBRANCH  19   2
ENDBRANCH  17  19
ENDBRANCH   7  17
TORSDOF 9
ENDMDL
MODEL 5
REMARK VINA RESULT:      -3.8      2.606      5.297
REMARK  Name = 25312555
REMARK  11 active torsions:
REMARK  status: ('A' for Active; 'I' for Inactive)
REMARK    1  A    between atoms: O_2  and  C_19
REMARK    2  A    between atoms: N_5  and  C_18
REMARK    3  A    between atoms: N_5  and  C_20
REMARK    4  A    between atoms: N_5  and  C_21
REMARK    5  A    between atoms: C_6  and  C_12
REMARK    6  A    between atoms: C_7  and  C_17
REMARK    7  A    between atoms: C_10  and  C_15
REMARK    8  A    between atoms: C_12  and  C_18
REMARK    9  A    between atoms: C_17  and  C_19
REMARK   10  A    between atoms: C_20  and  C_22
REMARK   11  A    between atoms: C_21  and  C_23
REMARK                            x       y       z     vdW  Elec       q    Type
REMARK                         _______ _______ _______ _____ _____    ______ ____
ROOT
ATOM      1  O   UNL     1       0.188   2.749  26.504  0.00  0.00    -0.275 OA
ATOM      4  N   UNL     1      -0.812   1.270  25.010  0.00  0.00    -0.301 N 
ATOM      6  C   UNL     1      -2.801   0.065  24.140  0.00  0.00    +0.011 C 
ATOM      7  C   UNL     1      -2.269  -1.224  24.817  0.00  0.00    +0.006 C 
ATOM      8  C   UNL     1      -1.629   1.009  23.818  0.00  0.00    +0.111 C 
ATOM      9  C   UNL     1      -1.379  -0.900  26.029  0.00  0.00    +0.023 C 
ATOM     11  C   UNL     1      -0.268   0.078  25.657  0.00  0.00    +0.108 C 
ATOM     15  C   UNL     1      -0.516   2.537  25.521  0.00  0.00    +0.219 C 
ENDROOT
BRANCH  15  10
ATOM     10  C   UNL     1      -1.105   3.717  24.815  0.00  0.00    +0.075 C 
ATOM     13  C   UNL     1      -2.116   4.580  25.598  0.00  0.00    +0.013 C 
ATOM     14  C   UNL     1      -0.231   4.983  24.698  0.00  0.00    +0.013 C 
ATOM     16  C   UNL     1      -1.529   5.801  24.859  0.00  0.00    +0.001 C 
ENDBRANCH  15  10
BRANCH   6  12
ATOM     12  C   UNL     1      -3.870   0.801  24.957  0.00  0.00    +0.020 C 
BRANCH  12  18
ATOM     18  C   UNL     1      -4.305   2.080  24.254  0.00  0.00    +0.084 C 
BRANCH  18   5
ATOM      5  N   UNL     1      -5.570   2.545  24.811  0.00  0.00    -0.303 NA
BRANCH   5  20
ATOM     20  C   UNL     1      -5.337   3.557  25.843  0.00  0.00    +0.081 C 
ATOM     22  C   UNL     1      -5.936   4.895  25.444  0.00  0.00    +0.020 C 
ENDBRANCH   5  20
BRANCH   5  21
ATOM     21  C   UNL     1      -6.334   1.424  25.361  0.00  0.00    +0.081 C 
ATOM     23  C   UNL     1      -6.637   1.637  26.834  0.00  0.00    +0.020 C 
ENDBRANCH   5  21
ENDBRANCH  18   5
ENDBRANCH  12  18
ENDBRANCH   6  12
BRANCH   7  17
ATOM     17  C   UNL     1      -3.378  -2.200  25.207  0.00  0.00    +0.124 C 
BRANCH  17  19
ATOM      3  O   UNL     1      -5.000  -2.574  23.427  0.00  0.00    -0.251 OA
ATOM     19  C   UNL     1      -3.968  -2.881  24.004  0.00  0.00    +0.305 C 
BRANCH  19   2
ATOM      2  O   UNL     1      -3.173  -3.917  23.629  0.00  0.00    -0.481 OA
ATOM     24  H   UNL     1      -2.937  -4.489  24.389  0.00  0.00    +0.295 HD
ENDBRANCH  19   2
ENDBRANCH  17  19
ENDBRANCH   7  17
TORSDOF 9
ENDMDL
MODEL 6
REMARK VINA RESULT:      -3.8      2.040      5.108
REMARK  Name = 25312555
REMARK  11 active torsions:
REMARK  status: ('A' for Active; 'I' for Inactive)
REMARK    1  A    between atoms: O_2  and  C_19
REMARK    2  A    between atoms: N_5  and  C_18
REMARK    3  A    between atoms: N_5  and  C_20
REMARK    4  A    between atoms: N_5  and  C_21
REMARK    5  A    between atoms: C_6  and  C_12
REMARK    6  A    between atoms: C_7  and  C_17
REMARK    7  A    between atoms: C_10  and  C_15
REMARK    8  A    between atoms: C_12  and  C_18
REMARK    9  A    between atoms: C_17  and  C_19
REMARK   10  A    between atoms: C_20  and  C_22
REMARK   11  A    between atoms: C_21  and  C_23
REMARK                            x       y       z     vdW  Elec       q    Type
REMARK                         _______ _______ _______ _____ _____    ______ ____
ROOT
ATOM      1  O   UNL     1      -1.184  -3.105  23.674  0.00  0.00    -0.275 OA
ATOM      4  N   UNL     1      -1.293  -1.050  24.764  0.00  0.00    -0.301 N 
ATOM      6  C   UNL     1      -1.943   1.345  24.836  0.00  0.00    +0.011 C 
ATOM      7  C   UNL     1      -0.454   1.716  24.618  0.00  0.00    +0.006 C 
ATOM      8  C   UNL     1      -2.045  -0.034  25.511  0.00  0.00    +0.111 C 
ATOM      9  C   UNL     1       0.303   0.603  23.876  0.00  0.00    +0.023 C 
ATOM     11  C   UNL     1       0.122  -0.747  24.565  0.00  0.00    +0.108 C 
ATOM     15  C   UNL     1      -1.824  -2.248  24.278  0.00  0.00    +0.219 C 
ENDROOT
BRANCH  15  10
ATOM     10  C   UNL     1      -3.280  -2.499  24.511  0.00  0.00    +0.075 C 
ATOM     13  C   UNL     1      -4.280  -1.509  23.878  0.00  0.00    +0.013 C 
ATOM     14  C   UNL     1      -3.955  -3.601  23.668  0.00  0.00    +0.013 C 
ATOM     16  C   UNL     1      -5.218  -2.715  23.660  0.00  0.00    +0.001 C 
ENDBRANCH  15  10
BRANCH   6  12
ATOM     12  C   UNL     1      -2.787   1.375  23.555  0.00  0.00    +0.020 C 
BRANCH  12  18
ATOM     18  C   UNL     1      -3.792   2.518  23.594  0.00  0.00    +0.084 C 
BRANCH  18   5
ATOM      5  N   UNL     1      -4.419   2.580  24.910  0.00  0.00    -0.303 NA
BRANCH   5  20
ATOM     20  C   UNL     1      -5.751   1.974  24.874  0.00  0.00    +0.081 C 
ATOM     22  C   UNL     1      -6.260   1.686  26.277  0.00  0.00    +0.020 C 
ENDBRANCH   5  20
BRANCH   5  21
ATOM     21  C   UNL     1      -4.503   3.966  25.375  0.00  0.00    +0.081 C 
ATOM     23  C   UNL     1      -3.497   4.236  26.480  0.00  0.00    +0.020 C 
ENDBRANCH   5  21
ENDBRANCH  18   5
ENDBRANCH  12  18
ENDBRANCH   6  12
BRANCH   7  17
ATOM     17  C   UNL     1      -0.267   3.059  23.912  0.00  0.00    +0.124 C 
BRANCH  17  19
ATOM      3  O   UNL     1      -0.711   5.362  24.573  0.00  0.00    -0.251 OA
ATOM     19  C   UNL     1      -0.419   4.213  24.864  0.00  0.00    +0.305 C 
BRANCH  19   2
ATOM      2  O   UNL     1      -0.180   3.792  26.134  0.00  0.00    -0.481 OA
ATOM     24  H   UNL     1      -0.497   4.440  26.798  0.00  0.00    +0.295 HD
ENDBRANCH  19   2
ENDBRANCH  17  19
ENDBRANCH   7  17
TORSDOF 9
ENDMDL
MODEL 7
REMARK VINA RESULT:      -3.8      1.998      4.439
REMARK  Name = 25312555
REMARK  11 active torsions:
REMARK  status: ('A' for Active; 'I' for Inactive)
REMARK    1  A    between atoms: O_2  and  C_19
REMARK    2  A    between atoms: N_5  and  C_18
REMARK    3  A    between atoms: N_5  and  C_20
REMARK    4  A    between atoms: N_5  and  C_21
REMARK    5  A    between atoms: C_6  and  C_12
REMARK    6  A    between atoms: C_7  and  C_17
REMARK    7  A    between atoms: C_10  and  C_15
REMARK    8  A    between atoms: C_12  and  C_18
REMARK    9  A    between atoms: C_17  and  C_19
REMARK   10  A    between atoms: C_20  and  C_22
REMARK   11  A    between atoms: C_21  and  C_23
REMARK                            x       y       z     vdW  Elec       q    Type
REMARK                         _______ _______ _______ _____ _____    ______ ____
ROOT
ATOM      1  O   UNL     1      -2.737  -3.108  24.011  0.00  0.00    -0.275 OA
ATOM      4  N   UNL     1      -1.514  -1.317  24.856  0.00  0.00    -0.301 N 
ATOM      6  C   UNL     1      -0.683   1.019  24.704  0.00  0.00    +0.011 C 
ATOM      7  C   UNL     1       0.707   0.458  24.310  0.00  0.00    +0.006 C 
ATOM      8  C   UNL     1      -1.448  -0.021  25.543  0.00  0.00    +0.111 C 
ATOM      9  C   UNL     1       0.591  -0.921  23.638  0.00  0.00    +0.023 C 
ATOM     11  C   UNL     1      -0.219  -1.890  24.495  0.00  0.00    +0.108 C 
ATOM     15  C   UNL     1      -2.690  -2.013  24.565  0.00  0.00    +0.219 C 
ENDROOT
BRANCH  15  10
ATOM     10  C   UNL     1      -3.983  -1.372  24.956  0.00  0.00    +0.075 C 
ATOM     13  C   UNL     1      -3.928  -0.258  26.023  0.00  0.00    +0.013 C 
ATOM     14  C   UNL     1      -4.572  -0.318  23.996  0.00  0.00    +0.013 C 
ATOM     16  C   UNL     1      -5.069   0.434  25.249  0.00  0.00    +0.001 C 
ENDBRANCH  15  10
BRANCH   6  12
ATOM     12  C   UNL     1      -1.534   1.470  23.510  0.00  0.00    +0.020 C 
BRANCH  12  18
ATOM     18  C   UNL     1      -1.849   2.956  23.599  0.00  0.00    +0.084 C 
BRANCH  18   5
ATOM      5  N   UNL     1      -2.732   3.209  24.732  0.00  0.00    -0.303 NA
BRANCH   5  20
ATOM     20  C   UNL     1      -4.072   3.573  24.269  0.00  0.00    +0.081 C 
ATOM     22  C   UNL     1      -4.998   3.859  25.440  0.00  0.00    +0.020 C 
ENDBRANCH   5  20
BRANCH   5  21
ATOM     21  C   UNL     1      -2.185   4.263  25.587  0.00  0.00    +0.081 C 
ATOM     23  C   UNL     1      -1.008   4.956  24.920  0.00  0.00    +0.020 C 
ENDBRANCH   5  21
ENDBRANCH  18   5
ENDBRANCH  12  18
ENDBRANCH   6  12
BRANCH   7  17
ATOM     17  C   UNL     1       1.516   1.417  23.436  0.00  0.00    +0.124 C 
BRANCH  17  19
ATOM      3  O   UNL     1       2.652   0.096  21.732  0.00  0.00    -0.251 OA
ATOM     19  C   UNL     1       2.677   0.724  22.780  0.00  0.00    +0.305 C 
BRANCH  19   2
ATOM      2  O   UNL     1       3.797   0.894  23.532  0.00  0.00    -0.481 OA
ATOM     24  H   UNL     1       4.561   1.180  22.988  0.00  0.00    +0.295 HD
ENDBRANCH  19   2
ENDBRANCH  17  19
ENDBRANCH   7  17
TORSDOF 9
ENDMDL
MODEL 8
REMARK VINA RESULT:      -2.1      1.610      5.307
REMARK  Name = 25312555
REMARK  11 active torsions:
REMARK  status: ('A' for Active; 'I' for Inactive)
REMARK    1  A    between atoms: O_2  and  C_19
REMARK    2  A    between atoms: N_5  and  C_18
REMARK    3  A    between atoms: N_5  and  C_20
REMARK    4  A    between atoms: N_5  and  C_21
REMARK    5  A    between atoms: C_6  and  C_12
REMARK    6  A    between atoms: C_7  and  C_17
REMARK    7  A    between atoms: C_10  and  C_15
REMARK    8  A    between atoms: C_12  and  C_18
REMARK    9  A    between atoms: C_17  and  C_19
REMARK   10  A    between atoms: C_20  and  C_22
REMARK   11  A    between atoms: C_21  and  C_23
REMARK                            x       y       z     vdW  Elec       q    Type
REMARK                         _______ _______ _______ _____ _____    ______ ____
ROOT
ATOM      1  O   UNL     1       1.754   0.246  22.979  0.00  0.00    -0.275 OA
ATOM      4  N   UNL     1       0.213   1.127  24.486  0.00  0.00    -0.301 N 
ATOM      6  C   UNL     1      -2.070   1.920  25.054  0.00  0.00    +0.011 C 
ATOM      7  C   UNL     1      -1.541   3.375  24.984  0.00  0.00    +0.006 C 
ATOM      8  C   UNL     1      -0.919   0.961  25.405  0.00  0.00    +0.111 C 
ATOM      9  C   UNL     1      -0.327   3.491  24.048  0.00  0.00    +0.023 C 
ATOM     11  C   UNL     1       0.757   2.482  24.417  0.00  0.00    +0.108 C 
ATOM     15  C   UNL     1       0.791   0.105  23.728  0.00  0.00    +0.219 C 
ENDROOT
BRANCH  15  10
ATOM     10  C   UNL     1       0.187  -1.258  23.840  0.00  0.00    +0.075 C 
ATOM     13  C   UNL     1      -0.196  -1.751  25.251  0.00  0.00    +0.013 C 
ATOM     14  C   UNL     1      -1.303  -1.407  23.467  0.00  0.00    +0.013 C 
ATOM     16  C   UNL     1      -1.401  -2.455  24.595  0.00  0.00    +0.001 C 
ENDBRANCH  15  10
BRANCH   6  12
ATOM     12  C   UNL     1      -2.781   1.454  23.776  0.00  0.00    +0.020 C 
BRANCH  12  18
ATOM     18  C   UNL     1      -4.261   1.210  24.037  0.00  0.00    +0.084 C 
BRANCH  18   5
ATOM      5  N   UNL     1      -4.452   0.748  25.407  0.00  0.00    -0.303 NA
BRANCH   5  20
ATOM     20  C   UNL     1      -4.274  -0.702  25.491  0.00  0.00    +0.081 C 
ATOM     22  C   UNL     1      -4.561  -1.368  24.156  0.00  0.00    +0.020 C 
ENDBRANCH   5  20
BRANCH   5  21
ATOM     21  C   UNL     1      -5.779   1.126  25.897  0.00  0.00    +0.081 C 
ATOM     23  C   UNL     1      -6.585   1.824  24.815  0.00  0.00    +0.020 C 
ENDBRANCH   5  21
ENDBRANCH  18   5
ENDBRANCH  12  18
ENDBRANCH   6  12
BRANCH   7  17
ATOM     17  C   UNL     1      -2.619   4.389  24.597  0.00  0.00    +0.124 C 
BRANCH  17  19
ATOM      3  O   UNL     1      -4.958   4.421  25.279  0.00  0.00    -0.251 OA
ATOM     19  C   UNL     1      -3.771   4.369  25.562  0.00  0.00    +0.305 C 
BRANCH  19   2
ATOM      2  O   UNL     1      -3.301   4.281  26.834  0.00  0.00    -0.481 OA
ATOM     24  H   UNL     1      -2.779   3.463  26.975  0.00  0.00    +0.295 HD
ENDBRANCH  19   2
ENDBRANCH  17  19
ENDBRANCH   7  17
TORSDOF 9
ENDMDL
MODEL 9
REMARK VINA RESULT:      -2.0      2.497      5.283
REMARK  Name = 25312555
REMARK  11 active torsions:
REMARK  status: ('A' for Active; 'I' for Inactive)
REMARK    1  A    between atoms: O_2  and  C_19
REMARK    2  A    between atoms: N_5  and  C_18
REMARK    3  A    between atoms: N_5  and  C_20
REMARK    4  A    between atoms: N_5  and  C_21
REMARK    5  A    between atoms: C_6  and  C_12
REMARK    6  A    between atoms: C_7  and  C_17
REMARK    7  A    between atoms: C_10  and  C_15
REMARK    8  A    between atoms: C_12  and  C_18
REMARK    9  A    between atoms: C_17  and  C_19
REMARK   10  A    between atoms: C_20  and  C_22
REMARK   11  A    between atoms: C_21  and  C_23
REMARK                            x       y       z     vdW  Elec       q    Type
REMARK                         _______ _______ _______ _____ _____    ______ ____
ROOT
ATOM      1  O   UNL     1       0.849   2.111  26.258  0.00  0.00    -0.275 OA
ATOM      4  N   UNL     1      -0.628   1.630  24.524  0.00  0.00    -0.301 N 
ATOM      6  C   UNL     1      -2.922   1.212  23.670  0.00  0.00    +0.011 C 
ATOM      7  C   UNL     1      -2.574  -0.295  23.582  0.00  0.00    +0.006 C 
ATOM      8  C   UNL     1      -1.640   2.054  23.547  0.00  0.00    +0.111 C 
ATOM      9  C   UNL     1      -1.477  -0.682  24.588  0.00  0.00    +0.023 C 
ATOM     11  C   UNL     1      -0.253   0.220  24.450  0.00  0.00    +0.108 C 
ATOM     15  C   UNL     1      -0.013   2.467  25.460  0.00  0.00    +0.219 C 
ENDROOT
BRANCH  15  10
ATOM     10  C   UNL     1      -0.443   3.899  25.487  0.00  0.00    +0.075 C 
ATOM     13  C   UNL     1      -0.736   4.578  24.133  0.00  0.00    +0.013 C 
ATOM     14  C   UNL     1      -1.910   4.193  25.864  0.00  0.00    +0.013 C 
ATOM     16  C   UNL     1      -1.857   5.356  24.852  0.00  0.00    +0.001 C 
ENDBRANCH  15  10
BRANCH   6  12
ATOM     12  C   UNL     1      -3.695   1.600  24.937  0.00  0.00    +0.020 C 
BRANCH  12  18
ATOM     18  C   UNL     1      -4.722   2.683  24.637  0.00  0.00    +0.084 C 
BRANCH  18   5
ATOM      5  N   UNL     1      -5.581   2.886  25.798  0.00  0.00    -0.303 NA
BRANCH   5  20
ATOM     20  C   UNL     1      -6.594   1.832  25.879  0.00  0.00    +0.081 C 
ATOM     22  C   UNL     1      -6.717   1.297  27.296  0.00  0.00    +0.020 C 
ENDBRANCH   5  20
BRANCH   5  21
ATOM     21  C   UNL     1      -6.220   4.201  25.742  0.00  0.00    +0.081 C 
ATOM     23  C   UNL     1      -5.370   5.192  24.964  0.00  0.00    +0.020 C 
ENDBRANCH   5  21
ENDBRANCH  18   5
ENDBRANCH  12  18
ENDBRANCH   6  12
BRANCH   7  17
ATOM     17  C   UNL     1      -3.793  -1.205  23.737  0.00  0.00    +0.124 C 
BRANCH  17  19
ATOM      3  O   UNL     1      -3.373  -3.406  24.694  0.00  0.00    -0.251 OA
ATOM     19  C   UNL     1      -3.597  -2.214  24.833  0.00  0.00    +0.305 C 
BRANCH  19   2
ATOM      2  O   UNL     1      -3.703  -1.602  26.042  0.00  0.00    -0.481 OA
ATOM     24  H   UNL     1      -4.000  -2.224  26.741  0.00  0.00    +0.295 HD
ENDBRANCH  19   2
ENDBRANCH  17  19
ENDBRANCH   7  17
TORSDOF 9
ENDMDL
MODEL 10
REMARK VINA RESULT:      -1.2      1.584      5.889
REMARK  Name = 25312555
REMARK  11 active torsions:
REMARK  status: ('A' for Active; 'I' for Inactive)
REMARK    1  A    between atoms: O_2  and  C_19
REMARK    2  A    between atoms: N_5  and  C_18
REMARK    3  A    between atoms: N_5  and  C_20
REMARK    4  A    between atoms: N_5  and  C_21
REMARK    5  A    between atoms: C_6  and  C_12
REMARK    6  A    between atoms: C_7  and  C_17
REMARK    7  A    between atoms: C_10  and  C_15
REMARK    8  A    between atoms: C_12  and  C_18
REMARK    9  A    between atoms: C_17  and  C_19
REMARK   10  A    between atoms: C_20  and  C_22
REMARK   11  A    between atoms: C_21  and  C_23
REMARK                            x       y       z     vdW  Elec       q    Type
REMARK                         _______ _______ _______ _____ _____    ______ ____
ROOT
ATOM      1  O   UNL     1       0.531  -0.222  21.517  0.00  0.00    -0.275 OA
ATOM      4  N   UNL     1      -0.401   1.272  23.039  0.00  0.00    -0.301 N 
ATOM      6  C   UNL     1      -1.497   1.770  25.211  0.00  0.00    +0.011 C 
ATOM      7  C   UNL     1      -2.835   1.951  24.452  0.00  0.00    +0.006 C 
ATOM      8  C   UNL     1      -0.316   2.068  24.270  0.00  0.00    +0.111 C 
ATOM      9  C   UNL     1      -2.859   1.138  23.146  0.00  0.00    +0.023 C 
ATOM     11  C   UNL     1      -1.639   1.441  22.281  0.00  0.00    +0.108 C 
ATOM     15  C   UNL     1       0.599   0.423  22.560  0.00  0.00    +0.219 C 
ENDROOT
BRANCH  15  10
ATOM     10  C   UNL     1       1.841   0.291  23.383  0.00  0.00    +0.075 C 
ATOM     13  C   UNL     1       2.774  -0.898  23.074  0.00  0.00    +0.013 C 
ATOM     14  C   UNL     1       3.027   1.213  23.032  0.00  0.00    +0.013 C 
ATOM     16  C   UNL     1       3.953   0.038  23.409  0.00  0.00    +0.001 C 
ENDBRANCH  15  10
BRANCH   6  12
ATOM     12  C   UNL     1      -1.328   0.388  25.856  0.00  0.00    +0.020 C 
BRANCH  12  18
ATOM     18  C   UNL     1      -2.603  -0.433  25.720  0.00  0.00    +0.084 C 
BRANCH  18   5
ATOM      5  N   UNL     1      -2.267  -1.838  25.514  0.00  0.00    -0.303 NA
BRANCH   5  20
ATOM     20  C   UNL     1      -1.169  -1.969  24.554  0.00  0.00    +0.081 C 
ATOM     22  C   UNL     1       0.111  -2.412  25.242  0.00  0.00    +0.020 C 
ENDBRANCH   5  20
BRANCH   5  21
ATOM     21  C   UNL     1      -3.438  -2.585  25.052  0.00  0.00    +0.081 C 
ATOM     23  C   UNL     1      -4.159  -1.843  23.940  0.00  0.00    +0.020 C 
ENDBRANCH   5  21
ENDBRANCH  18   5
ENDBRANCH  12  18
ENDBRANCH   6  12
BRANCH   7  17
ATOM     17  C   UNL     1      -4.061   1.632  25.308  0.00  0.00    +0.124 C 
BRANCH  17  19
ATOM      3  O   UNL     1      -4.697   3.982  25.211  0.00  0.00    -0.251 OA
ATOM     19  C   UNL     1      -4.983   2.813  25.419  0.00  0.00    +0.305 C 
BRANCH  19   2
ATOM      2  O   UNL     1      -6.220   2.394  25.794  0.00  0.00    -0.481 OA
ATOM     24  H   UNL     1      -6.889   3.106  25.706  0.00  0.00    +0.295 HD
ENDBRANCH  19   2
ENDBRANCH  17  19
ENDBRANCH   7  17
TORSDOF 9
ENDMDL
