MODEL 1
REMARK VINA RESULT:      -3.2      0.000      0.000
REMARK  Name = 26743656
REMARK  5 active torsions:
REMARK  status: ('A' for Active; 'I' for Inactive)
REMARK    1  A    between atoms: O_1  and  C_13
REMARK    2  A    between atoms: N_4  and  C_9
REMARK    3  A    between atoms: C_10  and  C_18
REMARK    4  A    between atoms: C_19  and  C_20
REMARK    5  A    between atoms: C_21  and  C_22
REMARK                            x       y       z     vdW  Elec       q    Type
REMARK                         _______ _______ _______ _____ _____    ______ ____
ROOT
ATOM      4  N   UNL     1      -1.387   2.300  25.429  0.00  0.00    -0.286 NA
ATOM     10  C   UNL     1      -1.032   2.400  23.999  0.00  0.00    +0.149 C 
ATOM     11  C   UNL     1      -1.889   3.617  25.823  0.00  0.00    +0.116 C 
ATOM     12  C   UNL     1      -0.675   3.883  23.784  0.00  0.00    +0.061 C 
ATOM     13  C   UNL     1      -0.903   4.544  25.137  0.00  0.00    +0.130 C 
ENDROOT
BRANCH   4   9
ATOM      3  O   UNL     1      -3.103  -3.547  24.616  0.00  0.00    -0.276 OA
ATOM      5  N   UNL     1      -3.553  -1.308  25.038  0.00  0.00    -0.302 N 
ATOM      9  C   UNL     1      -2.351   1.239  25.711  0.00  0.00    +0.060 C 
ATOM     14  C   UNL     1      -1.617  -0.087  25.954  0.00  0.00    +0.038 C 
ATOM     15  C   UNL     1      -3.335   1.099  24.543  0.00  0.00    +0.038 C 
ATOM     16  C   UNL     1      -2.610  -1.229  26.157  0.00  0.00    +0.109 C 
ATOM     17  C   UNL     1      -4.295  -0.069  24.772  0.00  0.00    +0.109 C 
ATOM     19  C   UNL     1      -3.714  -2.509  24.349  0.00  0.00    +0.212 C 
ATOM     20  C   UNL     1      -4.701  -2.507  23.210  0.00  0.00    +0.109 C 
ENDBRANCH   4   9
BRANCH  10  18
ATOM      2  O   UNL     1      -0.234   0.428  22.798  0.00  0.00    -0.336 OA
ATOM      6  N   UNL     1       1.358   1.502  23.951  0.00  0.00    -0.189 NA
ATOM      7  N   UNL     1       0.952  -0.287  22.583  0.00  0.00    -0.054 NA
ATOM     18  C   UNL     1       0.094   1.464  23.612  0.00  0.00    +0.245 A 
ATOM     21  C   UNL     1       1.844   0.409  23.295  0.00  0.00    +0.220 A 
BRANCH  21  22
ATOM      8  N   UNL     1       3.472  -1.243  23.730  0.00  0.00    -0.252 NA
ATOM     22  C   UNL     1       3.227   0.037  23.372  0.00  0.00    +0.111 A 
ATOM     23  C   UNL     1       4.217   0.966  23.088  0.00  0.00    +0.031 A 
ATOM     24  C   UNL     1       5.541   0.553  23.178  0.00  0.00    +0.004 A 
ATOM     25  C   UNL     1       4.772  -1.607  23.807  0.00  0.00    +0.111 A 
ATOM     26  C   UNL     1       5.832  -0.756  23.543  0.00  0.00    +0.020 A 
ENDBRANCH  21  22
ENDBRANCH  10  18
BRANCH  13   1
ATOM      1  O   UNL     1      -1.432   5.845  24.977  0.00  0.00    -0.390 OA
ATOM     27  H   UNL     1      -0.821   6.342  24.407  0.00  0.00    +0.210 HD
ENDBRANCH  13   1
TORSDOF 4
ENDMDL
MODEL 2
REMARK VINA RESULT:      -1.9      1.338      4.556
REMARK  Name = 26743656
REMARK  5 active torsions:
REMARK  status: ('A' for Active; 'I' for Inactive)
REMARK    1  A    between atoms: O_1  and  C_13
REMARK    2  A    between atoms: N_4  and  C_9
REMARK    3  A    between atoms: C_10  and  C_18
REMARK    4  A    between atoms: C_19  and  C_20
REMARK    5  A    between atoms: C_21  and  C_22
REMARK                            x       y       z     vdW  Elec       q    Type
REMARK                         _______ _______ _______ _____ _____    ______ ____
ROOT
ATOM      4  N   UNL     1      -2.862  -0.583  23.531  0.00  0.00    -0.286 NA
ATOM     10  C   UNL     1      -1.722  -0.904  24.415  0.00  0.00    +0.149 C 
ATOM     11  C   UNL     1      -3.955  -1.470  23.929  0.00  0.00    +0.116 C 
ATOM     12  C   UNL     1      -1.928  -2.379  24.804  0.00  0.00    +0.061 C 
ATOM     13  C   UNL     1      -3.231  -2.788  24.129  0.00  0.00    +0.130 C 
ENDROOT
BRANCH   4   9
ATOM      3  O   UNL     1      -1.609   5.120  25.456  0.00  0.00    -0.276 OA
ATOM      5  N   UNL     1      -3.076   3.439  24.809  0.00  0.00    -0.302 N 
ATOM      9  C   UNL     1      -3.250   0.824  23.579  0.00  0.00    +0.060 C 
ATOM     14  C   UNL     1      -2.017   1.718  23.398  0.00  0.00    +0.038 C 
ATOM     15  C   UNL     1      -3.944   1.132  24.912  0.00  0.00    +0.038 C 
ATOM     16  C   UNL     1      -2.387   3.193  23.540  0.00  0.00    +0.109 C 
ATOM     17  C   UNL     1      -4.276   2.621  25.026  0.00  0.00    +0.109 C 
ATOM     19  C   UNL     1      -2.600   4.419  25.678  0.00  0.00    +0.212 C 
ATOM     20  C   UNL     1      -3.364   4.611  26.964  0.00  0.00    +0.109 C 
ENDBRANCH   4   9
BRANCH  10  18
ATOM      2  O   UNL     1      -0.408  -0.396  22.419  0.00  0.00    -0.336 OA
ATOM      6  N   UNL     1       0.815  -0.650  24.279  0.00  0.00    -0.189 NA
ATOM      7  N   UNL     1       0.926  -0.202  22.038  0.00  0.00    -0.054 NA
ATOM     18  C   UNL     1      -0.383  -0.654  23.753  0.00  0.00    +0.245 A 
ATOM     21  C   UNL     1       1.585  -0.368  23.189  0.00  0.00    +0.220 A 
BRANCH  21  22
ATOM      8  N   UNL     1       3.654  -1.344  23.769  0.00  0.00    -0.252 NA
ATOM     22  C   UNL     1       3.012  -0.258  23.283  0.00  0.00    +0.111 A 
ATOM     23  C   UNL     1       3.651   0.908  22.889  0.00  0.00    +0.031 A 
ATOM     24  C   UNL     1       5.035   0.961  23.002  0.00  0.00    +0.004 A 
ATOM     25  C   UNL     1       4.999  -1.255  23.864  0.00  0.00    +0.111 A 
ATOM     26  C   UNL     1       5.730  -0.136  23.497  0.00  0.00    +0.020 A 
ENDBRANCH  21  22
ENDBRANCH  10  18
BRANCH  13   1
ATOM      1  O   UNL     1      -3.968  -3.671  24.952  0.00  0.00    -0.390 OA
ATOM     27  H   UNL     1      -3.340  -4.099  25.558  0.00  0.00    +0.210 HD
ENDBRANCH  13   1
TORSDOF 4
ENDMDL
