MODEL 1
REMARK VINA RESULT:      -3.8      0.000      0.000
REMARK  Name = 51137095
REMARK  4 active torsions:
REMARK  status: ('A' for Active; 'I' for Inactive)
REMARK    1  A    between atoms: N_1  and  C_5
REMARK    2  A    between atoms: C_4  and  C_5
REMARK    3  A    between atoms: C_6  and  C_15
REMARK    4  A    between atoms: C_20  and  C_22
REMARK                            x       y       z     vdW  Elec       q    Type
REMARK                         _______ _______ _______ _____ _____    ______ ____
ROOT
ATOM      1  N   UNL     1       0.927  -0.399  23.512  0.00  0.00    -0.301 NA
ATOM      6  C   UNL     1      -0.822   0.122  24.985  0.00  0.00    +0.070 C 
ATOM      7  C   UNL     1       0.150   0.752  23.978  0.00  0.00    +0.095 C 
ATOM      8  C   UNL     1      -0.058  -1.462  23.308  0.00  0.00    +0.085 C 
ATOM     11  C   UNL     1      -0.939  -1.348  24.546  0.00  0.00    +0.028 C 
ENDROOT
BRANCH   6  15
ATOM      2  N   UNL     1      -2.175   2.223  25.210  0.00  0.00    -0.342 N 
ATOM      3  N   UNL     1      -3.339   0.337  25.050  0.00  0.00    -0.232 NA
ATOM     15  C   UNL     1      -2.135   0.864  25.079  0.00  0.00    +0.113 A 
ATOM     16  C   UNL     1      -3.493   2.599  25.269  0.00  0.00    +0.066 A 
ATOM     17  C   UNL     1      -4.198   1.404  25.168  0.00  0.00    +0.089 A 
ATOM     18  C   UNL     1      -4.109   3.845  25.398  0.00  0.00    +0.031 A 
ATOM     19  C   UNL     1      -5.603   1.433  25.196  0.00  0.00    +0.030 A 
ATOM     20  C   UNL     1      -5.507   3.856  25.424  0.00  0.00    -0.048 A 
ATOM     21  C   UNL     1      -6.243   2.672  25.325  0.00  0.00    +0.005 A 
ATOM     22  C   UNL     1      -6.226   5.158  25.561  0.00  0.00    +0.044 C 
ATOM     23  H   UNL     1      -1.379   2.845  25.254  0.00  0.00    +0.167 HD
ENDBRANCH   6  15
BRANCH   1   5
ATOM      5  C   UNL     1       1.683  -0.105  22.303  0.00  0.00    +0.088 C 
BRANCH   5   4
ATOM      4  C   UNL     1       3.182  -0.275  22.543  0.00  0.00    +0.003 C 
ATOM      9  C   UNL     1       3.820   1.060  22.949  0.00  0.00    +0.005 C 
ATOM     10  C   UNL     1       3.442  -1.351  23.605  0.00  0.00    +0.005 C 
ATOM     12  C   UNL     1       5.310   0.905  23.246  0.00  0.00    +0.000 C 
ATOM     13  C   UNL     1       4.933  -1.503  23.901  0.00  0.00    +0.000 C 
ATOM     14  C   UNL     1       5.566  -0.172  24.297  0.00  0.00    +0.000 C 
ENDBRANCH   5   4
ENDBRANCH   1   5
TORSDOF 3
ENDMDL
MODEL 2
REMARK VINA RESULT:      -3.6     15.557     18.095
REMARK  Name = 51137095
REMARK  4 active torsions:
REMARK  status: ('A' for Active; 'I' for Inactive)
REMARK    1  A    between atoms: N_1  and  C_5
REMARK    2  A    between atoms: C_4  and  C_5
REMARK    3  A    between atoms: C_6  and  C_15
REMARK    4  A    between atoms: C_20  and  C_22
REMARK                            x       y       z     vdW  Elec       q    Type
REMARK                         _______ _______ _______ _____ _____    ______ ____
ROOT
ATOM      1  N   UNL     1     -10.407  -9.977  12.529  0.00  0.00    -0.301 NA
ATOM      6  C   UNL     1      -9.234 -10.327  14.529  0.00  0.00    +0.070 C 
ATOM      7  C   UNL     1      -9.305 -10.779  13.064  0.00  0.00    +0.095 C 
ATOM      8  C   UNL     1     -10.199  -8.636  13.075  0.00  0.00    +0.085 C 
ATOM     11  C   UNL     1      -9.846  -8.915  14.531  0.00  0.00    +0.028 C 
ENDROOT
BRANCH   6  15
ATOM      2  N   UNL     1      -6.736 -10.412  14.303  0.00  0.00    -0.342 N 
ATOM      3  N   UNL     1      -7.522 -10.505  16.379  0.00  0.00    -0.232 NA
ATOM     15  C   UNL     1      -7.841 -10.417  15.107  0.00  0.00    +0.113 A 
ATOM     16  C   UNL     1      -5.631 -10.504  15.110  0.00  0.00    +0.066 A 
ATOM     17  C   UNL     1      -6.148 -10.561  16.400  0.00  0.00    +0.089 A 
ATOM     18  C   UNL     1      -4.264 -10.541  14.829  0.00  0.00    +0.031 A 
ATOM     19  C   UNL     1      -5.265 -10.661  17.488  0.00  0.00    +0.030 A 
ATOM     20  C   UNL     1      -3.399 -10.640  15.923  0.00  0.00    -0.048 A 
ATOM     21  C   UNL     1      -3.889 -10.700  17.230  0.00  0.00    +0.005 A 
ATOM     22  C   UNL     1      -1.925 -10.683  15.689  0.00  0.00    +0.044 C 
ATOM     23  H   UNL     1      -6.730 -10.351  13.293  0.00  0.00    +0.167 HD
ENDBRANCH   6  15
BRANCH   1   5
ATOM      5  C   UNL     1     -10.442  -9.984  11.073  0.00  0.00    +0.088 C 
BRANCH   5   4
ATOM      4  C   UNL     1      -9.512  -8.915  10.501  0.00  0.00    +0.003 C 
ATOM      9  C   UNL     1      -8.263  -9.558   9.884  0.00  0.00    +0.005 C 
ATOM     10  C   UNL     1     -10.250  -8.052   9.470  0.00  0.00    +0.005 C 
ATOM     12  C   UNL     1      -7.342  -8.513   9.258  0.00  0.00    +0.000 C 
ATOM     13  C   UNL     1      -9.326  -7.008   8.844  0.00  0.00    +0.000 C 
ATOM     14  C   UNL     1      -8.081  -7.650   8.238  0.00  0.00    +0.000 C 
ENDBRANCH   5   4
ENDBRANCH   1   5
TORSDOF 3
ENDMDL
MODEL 3
REMARK VINA RESULT:      -3.3     15.809     17.848
REMARK  Name = 51137095
REMARK  4 active torsions:
REMARK  status: ('A' for Active; 'I' for Inactive)
REMARK    1  A    between atoms: N_1  and  C_5
REMARK    2  A    between atoms: C_4  and  C_5
REMARK    3  A    between atoms: C_6  and  C_15
REMARK    4  A    between atoms: C_20  and  C_22
REMARK                            x       y       z     vdW  Elec       q    Type
REMARK                         _______ _______ _______ _____ _____    ______ ____
ROOT
ATOM      1  N   UNL     1      -9.768 -10.057  10.791  0.00  0.00    -0.301 NA
ATOM      6  C   UNL     1      -9.954 -10.467  13.093  0.00  0.00    +0.070 C 
ATOM      7  C   UNL     1      -9.080 -10.771  11.869  0.00  0.00    +0.095 C 
ATOM      8  C   UNL     1     -10.136  -8.764  11.369  0.00  0.00    +0.085 C 
ATOM     11  C   UNL     1     -10.665  -9.147  12.746  0.00  0.00    +0.028 C 
ENDROOT
BRANCH   6  15
ATOM      2  N   UNL     1      -7.829 -10.696  14.408  0.00  0.00    -0.342 N 
ATOM      3  N   UNL     1      -9.647 -10.202  15.587  0.00  0.00    -0.232 NA
ATOM     15  C   UNL     1      -9.172 -10.447  14.386  0.00  0.00    +0.113 A 
ATOM     16  C   UNL     1      -7.408 -10.607  15.710  0.00  0.00    +0.066 A 
ATOM     17  C   UNL     1      -8.561 -10.298  16.426  0.00  0.00    +0.089 A 
ATOM     18  C   UNL     1      -6.155 -10.765  16.305  0.00  0.00    +0.031 A 
ATOM     19  C   UNL     1      -8.478 -10.134  17.819  0.00  0.00    +0.030 A 
ATOM     20  C   UNL     1      -6.091 -10.598  17.692  0.00  0.00    -0.048 A 
ATOM     21  C   UNL     1      -7.232 -10.288  18.437  0.00  0.00    +0.005 A 
ATOM     22  C   UNL     1      -4.779 -10.754  18.387  0.00  0.00    +0.044 C 
ATOM     23  H   UNL     1      -7.246 -10.908  13.609  0.00  0.00    +0.167 HD
ENDBRANCH   6  15
BRANCH   1   5
ATOM      5  C   UNL     1      -8.941  -9.918   9.601  0.00  0.00    +0.088 C 
BRANCH   5   4
ATOM      4  C   UNL     1      -7.504  -9.562   9.975  0.00  0.00    +0.003 C 
ATOM      9  C   UNL     1      -6.548 -10.702   9.598  0.00  0.00    +0.005 C 
ATOM     10  C   UNL     1      -7.079  -8.249   9.305  0.00  0.00    +0.005 C 
ATOM     12  C   UNL     1      -5.096 -10.349   9.914  0.00  0.00    +0.000 C 
ATOM     13  C   UNL     1      -5.626  -7.898   9.622  0.00  0.00    +0.000 C 
ATOM     14  C   UNL     1      -4.680  -9.037   9.254  0.00  0.00    +0.000 C 
ENDBRANCH   5   4
ENDBRANCH   1   5
TORSDOF 3
ENDMDL
MODEL 4
REMARK VINA RESULT:      -3.2     15.682     17.269
REMARK  Name = 51137095
REMARK  4 active torsions:
REMARK  status: ('A' for Active; 'I' for Inactive)
REMARK    1  A    between atoms: N_1  and  C_5
REMARK    2  A    between atoms: C_4  and  C_5
REMARK    3  A    between atoms: C_6  and  C_15
REMARK    4  A    between atoms: C_20  and  C_22
REMARK                            x       y       z     vdW  Elec       q    Type
REMARK                         _______ _______ _______ _____ _____    ______ ____
ROOT
ATOM      1  N   UNL     1      -5.634  -9.625   9.265  0.00  0.00    -0.301 NA
ATOM      6  C   UNL     1      -7.634  -9.605  10.488  0.00  0.00    +0.070 C 
ATOM      7  C   UNL     1      -6.325 -10.386  10.308  0.00  0.00    +0.095 C 
ATOM      8  C   UNL     1      -5.833  -8.222   9.626  0.00  0.00    +0.085 C 
ATOM     11  C   UNL     1      -7.306  -8.178  10.016  0.00  0.00    +0.028 C 
ENDROOT
BRANCH   6  15
ATOM      2  N   UNL     1      -7.364  -9.730  12.979  0.00  0.00    -0.342 N 
ATOM      3  N   UNL     1      -9.456  -9.760  12.232  0.00  0.00    -0.232 NA
ATOM     15  C   UNL     1      -8.188  -9.699  11.891  0.00  0.00    +0.113 A 
ATOM     16  C   UNL     1      -8.152  -9.817  14.099  0.00  0.00    +0.066 A 
ATOM     17  C   UNL     1      -9.453  -9.834  13.605  0.00  0.00    +0.089 A 
ATOM     18  C   UNL     1      -7.846  -9.879  15.460  0.00  0.00    +0.031 A 
ATOM     19  C   UNL     1     -10.526  -9.918  14.508  0.00  0.00    +0.030 A 
ATOM     20  C   UNL     1      -8.927  -9.962  16.343  0.00  0.00    -0.048 A 
ATOM     21  C   UNL     1     -10.243  -9.982  15.878  0.00  0.00    +0.005 A 
ATOM     22  C   UNL     1      -8.666 -10.032  17.812  0.00  0.00    +0.044 C 
ATOM     23  H   UNL     1      -6.353  -9.695  12.967  0.00  0.00    +0.167 HD
ENDBRANCH   6  15
BRANCH   1   5
ATOM      5  C   UNL     1      -4.224  -9.977   9.164  0.00  0.00    +0.088 C 
BRANCH   5   4
ATOM      4  C   UNL     1      -3.471  -9.578  10.431  0.00  0.00    +0.003 C 
ATOM      9  C   UNL     1      -3.316 -10.781  11.371  0.00  0.00    +0.005 C 
ATOM     10  C   UNL     1      -2.103  -8.978  10.081  0.00  0.00    +0.005 C 
ATOM     12  C   UNL     1      -2.520 -10.420  12.622  0.00  0.00    +0.000 C 
ATOM     13  C   UNL     1      -1.307  -8.619  11.335  0.00  0.00    +0.000 C 
ATOM     14  C   UNL     1      -1.163  -9.816  12.271  0.00  0.00    +0.000 C 
ENDBRANCH   5   4
ENDBRANCH   1   5
TORSDOF 3
ENDMDL
MODEL 5
REMARK VINA RESULT:      -2.7      2.922      6.641
REMARK  Name = 51137095
REMARK  4 active torsions:
REMARK  status: ('A' for Active; 'I' for Inactive)
REMARK    1  A    between atoms: N_1  and  C_5
REMARK    2  A    between atoms: C_4  and  C_5
REMARK    3  A    between atoms: C_6  and  C_15
REMARK    4  A    between atoms: C_20  and  C_22
REMARK                            x       y       z     vdW  Elec       q    Type
REMARK                         _______ _______ _______ _____ _____    ______ ____
ROOT
ATOM      1  N   UNL     1      -0.498   4.021  25.318  0.00  0.00    -0.301 NA
ATOM      6  C   UNL     1      -0.347   1.682  25.393  0.00  0.00    +0.070 C 
ATOM      7  C   UNL     1      -1.266   2.855  25.762  0.00  0.00    +0.095 C 
ATOM      8  C   UNL     1       0.042   3.643  24.013  0.00  0.00    +0.085 C 
ATOM     11  C   UNL     1       0.528   2.217  24.247  0.00  0.00    +0.028 C 
ENDROOT
BRANCH   6  15
ATOM      2  N   UNL     1      -2.390   0.457  24.603  0.00  0.00    -0.342 N 
ATOM      3  N   UNL     1      -0.669  -0.816  25.197  0.00  0.00    -0.232 NA
ATOM     15  C   UNL     1      -1.108   0.416  25.074  0.00  0.00    +0.113 A 
ATOM     16  C   UNL     1      -2.806  -0.835  24.409  0.00  0.00    +0.066 A 
ATOM     17  C   UNL     1      -1.715  -1.611  24.787  0.00  0.00    +0.089 A 
ATOM     18  C   UNL     1      -4.009  -1.375  23.948  0.00  0.00    +0.031 A 
ATOM     19  C   UNL     1      -1.809  -3.011  24.709  0.00  0.00    +0.030 A 
ATOM     20  C   UNL     1      -4.085  -2.770  23.876  0.00  0.00    -0.048 A 
ATOM     21  C   UNL     1      -3.006  -3.574  24.250  0.00  0.00    +0.005 A 
ATOM     22  C   UNL     1      -5.345  -3.409  23.392  0.00  0.00    +0.044 C 
ATOM     23  H   UNL     1      -2.937   1.289  24.426  0.00  0.00    +0.167 HD
ENDBRANCH   6  15
BRANCH   1   5
ATOM      5  C   UNL     1      -1.310   5.228  25.254  0.00  0.00    +0.088 C 
BRANCH   5   4
ATOM      4  C   UNL     1      -2.785   4.883  25.061  0.00  0.00    +0.003 C 
ATOM      9  C   UNL     1      -2.969   3.943  23.861  0.00  0.00    +0.005 C 
ATOM     10  C   UNL     1      -3.368   4.261  26.336  0.00  0.00    +0.005 C 
ATOM     12  C   UNL     1      -4.431   3.542  23.679  0.00  0.00    +0.000 C 
ATOM     13  C   UNL     1      -4.830   3.858  26.151  0.00  0.00    +0.000 C 
ATOM     14  C   UNL     1      -5.010   2.931  24.952  0.00  0.00    +0.000 C 
ENDBRANCH   5   4
ENDBRANCH   1   5
TORSDOF 3
ENDMDL
MODEL 6
REMARK VINA RESULT:      -1.9      1.403      7.710
REMARK  Name = 51137095
REMARK  4 active torsions:
REMARK  status: ('A' for Active; 'I' for Inactive)
REMARK    1  A    between atoms: N_1  and  C_5
REMARK    2  A    between atoms: C_4  and  C_5
REMARK    3  A    between atoms: C_6  and  C_15
REMARK    4  A    between atoms: C_20  and  C_22
REMARK                            x       y       z     vdW  Elec       q    Type
REMARK                         _______ _______ _______ _____ _____    ______ ____
ROOT
ATOM      1  N   UNL     1      -3.005  -0.319  24.600  0.00  0.00    -0.301 NA
ATOM      6  C   UNL     1      -0.961  -1.018  23.686  0.00  0.00    +0.070 C 
ATOM      7  C   UNL     1      -1.922   0.178  23.749  0.00  0.00    +0.095 C 
ATOM      8  C   UNL     1      -2.334  -1.027  25.691  0.00  0.00    +0.085 C 
ATOM     11  C   UNL     1      -1.254  -1.820  24.966  0.00  0.00    +0.028 C 
ENDROOT
BRANCH   6  15
ATOM      2  N   UNL     1       1.507  -1.430  23.881  0.00  0.00    -0.342 N 
ATOM      3  N   UNL     1       0.920   0.529  23.011  0.00  0.00    -0.232 NA
ATOM     15  C   UNL     1       0.482  -0.605  23.511  0.00  0.00    +0.113 A 
ATOM     16  C   UNL     1       2.684  -0.786  23.601  0.00  0.00    +0.066 A 
ATOM     17  C   UNL     1       2.291   0.434  23.059  0.00  0.00    +0.089 A 
ATOM     18  C   UNL     1       4.020  -1.155  23.770  0.00  0.00    +0.031 A 
ATOM     19  C   UNL     1       3.275   1.354  22.656  0.00  0.00    +0.030 A 
ATOM     20  C   UNL     1       4.985  -0.228  23.364  0.00  0.00    -0.048 A 
ATOM     21  C   UNL     1       4.621   1.005  22.817  0.00  0.00    +0.005 A 
ATOM     22  C   UNL     1       6.432  -0.564  23.518  0.00  0.00    +0.044 C 
ATOM     23  H   UNL     1       1.417  -2.352  24.287  0.00  0.00    +0.167 HD
ENDBRANCH   6  15
BRANCH   1   5
ATOM      5  C   UNL     1      -3.868   0.750  25.081  0.00  0.00    +0.088 C 
BRANCH   5   4
ATOM      4  C   UNL     1      -3.278   2.119  24.748  0.00  0.00    +0.003 C 
ATOM      9  C   UNL     1      -4.328   3.221  24.932  0.00  0.00    +0.005 C 
ATOM     10  C   UNL     1      -2.037   2.396  25.606  0.00  0.00    +0.005 C 
ATOM     12  C   UNL     1      -3.747   4.606  24.655  0.00  0.00    +0.000 C 
ATOM     13  C   UNL     1      -1.458   3.783  25.329  0.00  0.00    +0.000 C 
ATOM     14  C   UNL     1      -2.508   4.876  25.505  0.00  0.00    +0.000 C 
ENDBRANCH   5   4
ENDBRANCH   1   5
TORSDOF 3
ENDMDL
MODEL 7
REMARK VINA RESULT:      -1.7     15.530     16.994
REMARK  Name = 51137095
REMARK  4 active torsions:
REMARK  status: ('A' for Active; 'I' for Inactive)
REMARK    1  A    between atoms: N_1  and  C_5
REMARK    2  A    between atoms: C_4  and  C_5
REMARK    3  A    between atoms: C_6  and  C_15
REMARK    4  A    between atoms: C_20  and  C_22
REMARK                            x       y       z     vdW  Elec       q    Type
REMARK                         _______ _______ _______ _____ _____    ______ ____
ROOT
ATOM      1  N   UNL     1      -2.560 -10.186  10.884  0.00  0.00    -0.301 NA
ATOM      6  C   UNL     1      -4.842 -10.425  10.402  0.00  0.00    +0.070 C 
ATOM      7  C   UNL     1      -3.779 -10.761  11.457  0.00  0.00    +0.095 C 
ATOM      8  C   UNL     1      -2.966  -8.882  10.361  0.00  0.00    +0.085 C 
ATOM     11  C   UNL     1      -4.288  -9.191   9.668  0.00  0.00    +0.028 C 
ENDROOT
BRANCH   6  15
ATOM      2  N   UNL     1      -6.399 -10.002  12.325  0.00  0.00    -0.342 N 
ATOM      3  N   UNL     1      -7.365 -10.298  10.346  0.00  0.00    -0.232 NA
ATOM     15  C   UNL     1      -6.222 -10.246  10.992  0.00  0.00    +0.113 A 
ATOM     16  C   UNL     1      -7.746  -9.889  12.554  0.00  0.00    +0.066 A 
ATOM     17  C   UNL     1      -8.327 -10.077  11.304  0.00  0.00    +0.089 A 
ATOM     18  C   UNL     1      -8.484  -9.644  13.714  0.00  0.00    +0.031 A 
ATOM     19  C   UNL     1      -9.726 -10.023  11.184  0.00  0.00    +0.030 A 
ATOM     20  C   UNL     1      -9.874  -9.593  13.576  0.00  0.00    -0.048 A 
ATOM     21  C   UNL     1     -10.486  -9.779  12.334  0.00  0.00    +0.005 A 
ATOM     22  C   UNL     1     -10.719  -9.334  14.780  0.00  0.00    +0.044 C 
ATOM     23  H   UNL     1      -5.670  -9.918  13.021  0.00  0.00    +0.167 HD
ENDBRANCH   6  15
BRANCH   1   5
ATOM      5  C   UNL     1      -1.484 -10.081  11.860  0.00  0.00    +0.088 C 
BRANCH   5   4
ATOM      4  C   UNL     1      -0.597  -8.874  11.566  0.00  0.00    +0.003 C 
ATOM      9  C   UNL     1      -0.276  -8.110  12.857  0.00  0.00    +0.005 C 
ATOM     10  C   UNL     1       0.690  -9.308  10.853  0.00  0.00    +0.005 C 
ATOM     12  C   UNL     1       0.654  -6.927  12.596  0.00  0.00    +0.000 C 
ATOM     13  C   UNL     1       1.619  -8.124  10.595  0.00  0.00    +0.000 C 
ATOM     14  C   UNL     1       1.930  -7.361  11.879  0.00  0.00    +0.000 C 
ENDBRANCH   5   4
ENDBRANCH   1   5
TORSDOF 3
ENDMDL
MODEL 8
REMARK VINA RESULT:      -0.6      3.248      6.748
REMARK  Name = 51137095
REMARK  4 active torsions:
REMARK  status: ('A' for Active; 'I' for Inactive)
REMARK    1  A    between atoms: N_1  and  C_5
REMARK    2  A    between atoms: C_4  and  C_5
REMARK    3  A    between atoms: C_6  and  C_15
REMARK    4  A    between atoms: C_20  and  C_22
REMARK                            x       y       z     vdW  Elec       q    Type
REMARK                         _______ _______ _______ _____ _____    ______ ____
ROOT
ATOM      1  N   UNL     1      -5.099   3.981  25.010  0.00  0.00    -0.301 NA
ATOM      6  C   UNL     1      -4.913   1.755  24.297  0.00  0.00    +0.070 C 
ATOM      7  C   UNL     1      -4.119   3.062  24.428  0.00  0.00    +0.095 C 
ATOM      8  C   UNL     1      -5.780   3.202  26.045  0.00  0.00    +0.085 C 
ATOM     11  C   UNL     1      -6.022   1.864  25.357  0.00  0.00    +0.028 C 
ENDROOT
BRANCH   6  15
ATOM      2  N   UNL     1      -2.751   0.604  24.842  0.00  0.00    -0.342 N 
ATOM      3  N   UNL     1      -4.393  -0.712  24.127  0.00  0.00    -0.232 NA
ATOM     15  C   UNL     1      -4.044   0.524  24.410  0.00  0.00    +0.113 A 
ATOM     16  C   UNL     1      -2.229  -0.664  24.838  0.00  0.00    +0.066 A 
ATOM     17  C   UNL     1      -3.273  -1.467  24.388  0.00  0.00    +0.089 A 
ATOM     18  C   UNL     1      -0.970  -1.163  25.179  0.00  0.00    +0.031 A 
ATOM     19  C   UNL     1      -3.068  -2.851  24.264  0.00  0.00    +0.030 A 
ATOM     20  C   UNL     1      -0.784  -2.543  25.051  0.00  0.00    -0.048 A 
ATOM     21  C   UNL     1      -1.813  -3.373  24.600  0.00  0.00    +0.005 A 
ATOM     22  C   UNL     1       0.541  -3.138  25.400  0.00  0.00    +0.044 C 
ATOM     23  H   UNL     1      -2.262   1.445  25.118  0.00  0.00    +0.167 HD
ENDBRANCH   6  15
BRANCH   1   5
ATOM      5  C   UNL     1      -4.481   5.188  25.541  0.00  0.00    +0.088 C 
BRANCH   5   4
ATOM      4  C   UNL     1      -2.991   4.971  25.795  0.00  0.00    +0.003 C 
ATOM      9  C   UNL     1      -2.734   3.559  26.337  0.00  0.00    +0.005 C 
ATOM     10  C   UNL     1      -2.182   5.221  24.516  0.00  0.00    +0.005 C 
ATOM     12  C   UNL     1      -1.244   3.299  26.550  0.00  0.00    +0.000 C 
ATOM     13  C   UNL     1      -0.692   4.959  24.731  0.00  0.00    +0.000 C 
ATOM     14  C   UNL     1      -0.441   3.558  25.278  0.00  0.00    +0.000 C 
ENDBRANCH   5   4
ENDBRANCH   1   5
TORSDOF 3
ENDMDL
MODEL 9
REMARK VINA RESULT:      -0.3      1.500      7.388
REMARK  Name = 51137095
REMARK  4 active torsions:
REMARK  status: ('A' for Active; 'I' for Inactive)
REMARK    1  A    between atoms: N_1  and  C_5
REMARK    2  A    between atoms: C_4  and  C_5
REMARK    3  A    between atoms: C_6  and  C_15
REMARK    4  A    between atoms: C_20  and  C_22
REMARK                            x       y       z     vdW  Elec       q    Type
REMARK                         _______ _______ _______ _____ _____    ______ ____
ROOT
ATOM      1  N   UNL     1      -4.739   0.256  24.775  0.00  0.00    -0.301 NA
ATOM      6  C   UNL     1      -2.629  -0.500  24.088  0.00  0.00    +0.070 C 
ATOM      7  C   UNL     1      -3.662   0.609  23.848  0.00  0.00    +0.095 C 
ATOM      8  C   UNL     1      -4.061  -0.126  26.014  0.00  0.00    +0.085 C 
ATOM     11  C   UNL     1      -2.912  -0.995  25.517  0.00  0.00    +0.028 C 
ENDROOT
BRANCH   6  15
ATOM      2  N   UNL     1      -0.223  -0.936  23.520  0.00  0.00    -0.342 N 
ATOM      3  N   UNL     1      -0.758   1.187  23.901  0.00  0.00    -0.232 NA
ATOM     15  C   UNL     1      -1.209  -0.046  23.842  0.00  0.00    +0.113 A 
ATOM     16  C   UNL     1       0.942  -0.230  23.360  0.00  0.00    +0.066 A 
ATOM     17  C   UNL     1       0.582   1.092  23.603  0.00  0.00    +0.089 A 
ATOM     18  C   UNL     1       2.241  -0.624  23.033  0.00  0.00    +0.031 A 
ATOM     19  C   UNL     1       1.563   2.095  23.520  0.00  0.00    +0.030 A 
ATOM     20  C   UNL     1       3.204   0.387  22.955  0.00  0.00    -0.048 A 
ATOM     21  C   UNL     1       2.873   1.723  23.194  0.00  0.00    +0.005 A 
ATOM     22  C   UNL     1       4.612   0.030  22.609  0.00  0.00    +0.044 C 
ATOM     23  H   UNL     1      -0.330  -1.936  23.416  0.00  0.00    +0.167 HD
ENDBRANCH   6  15
BRANCH   1   5
ATOM      5  C   UNL     1      -5.681   1.349  24.973  0.00  0.00    +0.088 C 
BRANCH   5   4
ATOM      4  C   UNL     1      -4.958   2.694  24.997  0.00  0.00    +0.003 C 
ATOM      9  C   UNL     1      -4.114   2.833  26.270  0.00  0.00    +0.005 C 
ATOM     10  C   UNL     1      -4.090   2.864  23.744  0.00  0.00    +0.005 C 
ATOM     12  C   UNL     1      -3.340   4.149  26.292  0.00  0.00    +0.000 C 
ATOM     13  C   UNL     1      -3.315   4.180  23.769  0.00  0.00    +0.000 C 
ATOM     14  C   UNL     1      -2.484   4.319  25.040  0.00  0.00    +0.000 C 
ENDBRANCH   5   4
ENDBRANCH   1   5
TORSDOF 3
ENDMDL
