MODEL 1
REMARK VINA RESULT:      -2.6      0.000      0.000
REMARK  Name = 25313019
REMARK  7 active torsions:
REMARK  status: ('A' for Active; 'I' for Inactive)
REMARK    1  A    between atoms: O_3  and  C_23
REMARK    2  A    between atoms: N_6  and  C_15
REMARK    3  A    between atoms: N_7  and  C_16
REMARK    4  A    between atoms: C_8  and  C_12
REMARK    5  A    between atoms: C_9  and  C_14
REMARK    6  A    between atoms: C_12  and  C_15
REMARK    7  A    between atoms: C_14  and  C_23
REMARK                            x       y       z     vdW  Elec       q    Type
REMARK                         _______ _______ _______ _____ _____    ______ ____
ROOT
ATOM      1  O   UNL     1      14.057 -10.357  28.207  0.00  0.00    -0.253 OA
ATOM      5  N   UNL     1      16.023  -9.219  27.738  0.00  0.00    -0.285 N 
ATOM      7  N   UNL     1      15.546 -10.007  29.916  0.00  0.00    -0.296 N 
ATOM      8  C   UNL     1      17.351  -7.129  27.825  0.00  0.00    +0.011 C 
ATOM      9  C   UNL     1      16.970  -6.867  26.343  0.00  0.00    +0.006 C 
ATOM     10  C   UNL     1      17.323  -8.641  28.105  0.00  0.00    +0.113 C 
ATOM     11  C   UNL     1      15.650  -7.561  25.962  0.00  0.00    +0.023 C 
ATOM     13  C   UNL     1      15.672  -9.044  26.328  0.00  0.00    +0.109 C 
ATOM     17  C   UNL     1      15.137  -9.895  28.593  0.00  0.00    +0.302 C 
ATOM     28  H   UNL     1      16.348  -9.493  30.251  0.00  0.00    +0.151 HD
ENDROOT
BRANCH   7  16
ATOM     16  C   UNL     1      14.740 -10.668  30.918  0.00  0.00    +0.074 C 
ATOM     18  C   UNL     1      15.375 -10.545  32.306  0.00  0.00    +0.022 C 
ATOM     19  C   UNL     1      13.305 -10.128  30.914  0.00  0.00    +0.022 C 
ATOM     20  C   UNL     1      15.279  -9.128  32.870  0.00  0.00    +0.002 C 
ATOM     21  C   UNL     1      13.212  -8.712  31.480  0.00  0.00    +0.002 C 
ATOM     22  C   UNL     1      13.841  -8.616  32.866  0.00  0.00    +0.000 C 
ENDBRANCH   7  16
BRANCH   8  12
ATOM     12  C   UNL     1      16.474  -6.382  28.837  0.00  0.00    +0.020 C 
BRANCH  12  15
ATOM     15  C   UNL     1      16.869  -6.734  30.263  0.00  0.00    +0.085 C 
BRANCH  15   6
ATOM      2  O   UNL     1      14.842  -3.440  31.894  0.00  0.00    -0.377 OA
ATOM      6  N   UNL     1      16.166  -5.864  31.204  0.00  0.00    -0.298 NA
ATOM     24  C   UNL     1      14.809  -5.566  30.725  0.00  0.00    +0.112 C 
ATOM     25  C   UNL     1      16.910  -4.615  31.415  0.00  0.00    +0.112 C 
ATOM     26  C   UNL     1      14.100  -4.648  31.715  0.00  0.00    +0.175 C 
ATOM     27  C   UNL     1      16.152  -3.720  32.390  0.00  0.00    +0.175 C 
ENDBRANCH  15   6
ENDBRANCH  12  15
ENDBRANCH   8  12
BRANCH   9  14
ATOM     14  C   UNL     1      16.918  -5.380  25.991  0.00  0.00    +0.124 C 
BRANCH  14  23
ATOM      4  O   UNL     1      17.405  -5.991  23.682  0.00  0.00    -0.251 OA
ATOM     23  C   UNL     1      17.263  -5.140  24.547  0.00  0.00    +0.305 C 
BRANCH  23   3
ATOM      3  O   UNL     1      17.400  -3.807  24.325  0.00  0.00    -0.481 OA
ATOM     29  H   UNL     1      16.612  -3.428  23.881  0.00  0.00    +0.295 HD
ENDBRANCH  23   3
ENDBRANCH  14  23
ENDBRANCH   9  14
TORSDOF 7
ENDMDL
MODEL 2
REMARK VINA RESULT:      -0.2     19.198     20.564
REMARK  Name = 25313019
REMARK  7 active torsions:
REMARK  status: ('A' for Active; 'I' for Inactive)
REMARK    1  A    between atoms: O_3  and  C_23
REMARK    2  A    between atoms: N_6  and  C_15
REMARK    3  A    between atoms: N_7  and  C_16
REMARK    4  A    between atoms: C_8  and  C_12
REMARK    5  A    between atoms: C_9  and  C_14
REMARK    6  A    between atoms: C_12  and  C_15
REMARK    7  A    between atoms: C_14  and  C_23
REMARK                            x       y       z     vdW  Elec       q    Type
REMARK                         _______ _______ _______ _____ _____    ______ ____
ROOT
ATOM      1  O   UNL     1      -3.952  -1.720  25.102  0.00  0.00    -0.253 OA
ATOM      5  N   UNL     1      -1.936  -0.576  25.190  0.00  0.00    -0.285 N 
ATOM      7  N   UNL     1      -4.004   0.560  25.347  0.00  0.00    -0.296 N 
ATOM      8  C   UNL     1      -0.234   0.837  24.072  0.00  0.00    +0.011 C 
ATOM      9  C   UNL     1       0.620  -0.438  23.840  0.00  0.00    +0.006 C 
ATOM     10  C   UNL     1      -1.124   0.643  25.312  0.00  0.00    +0.113 C 
ATOM     11  C   UNL     1      -0.247  -1.709  23.809  0.00  0.00    +0.023 C 
ATOM     13  C   UNL     1      -1.149  -1.801  25.038  0.00  0.00    +0.109 C 
ATOM     17  C   UNL     1      -3.338  -0.652  25.208  0.00  0.00    +0.302 C 
ATOM     28  H   UNL     1      -3.502   1.433  25.274  0.00  0.00    +0.151 HD
ENDROOT
BRANCH   7  16
ATOM     16  C   UNL     1      -5.447   0.646  25.375  0.00  0.00    +0.074 C 
ATOM     18  C   UNL     1      -5.937   1.253  26.693  0.00  0.00    +0.022 C 
ATOM     19  C   UNL     1      -5.976   1.434  24.170  0.00  0.00    +0.022 C 
ATOM     20  C   UNL     1      -5.642   2.750  26.794  0.00  0.00    +0.002 C 
ATOM     21  C   UNL     1      -5.681   2.929  24.275  0.00  0.00    +0.002 C 
ATOM     22  C   UNL     1      -6.187   3.514  25.590  0.00  0.00    +0.000 C 
ENDBRANCH   7  16
BRANCH   8  12
ATOM     12  C   UNL     1      -1.083   1.247  22.863  0.00  0.00    +0.020 C 
BRANCH  12  15
ATOM     15  C   UNL     1      -2.260   2.112  23.293  0.00  0.00    +0.085 C 
BRANCH  15   6
ATOM      2  O   UNL     1      -1.447   5.718  25.281  0.00  0.00    -0.377 OA
ATOM      6  N   UNL     1      -1.828   3.070  24.309  0.00  0.00    -0.298 NA
ATOM     24  C   UNL     1      -2.959   3.890  24.766  0.00  0.00    +0.112 C 
ATOM     25  C   UNL     1      -0.757   3.932  23.791  0.00  0.00    +0.112 C 
ATOM     26  C   UNL     1      -2.482   4.890  25.816  0.00  0.00    +0.175 C 
ATOM     27  C   UNL     1      -0.332   4.929  24.865  0.00  0.00    +0.175 C 
ENDBRANCH  15   6
ENDBRANCH  12  15
ENDBRANCH   8  12
BRANCH   9  14
ATOM     14  C   UNL     1       1.497  -0.354  22.591  0.00  0.00    +0.124 C 
BRANCH  14  23
ATOM      4  O   UNL     1       3.414   1.141  22.764  0.00  0.00    -0.251 OA
ATOM     23  C   UNL     1       2.908   0.042  22.929  0.00  0.00    +0.305 C 
BRANCH  23   3
ATOM      3  O   UNL     1       3.566  -1.020  23.461  0.00  0.00    -0.481 OA
ATOM     29  H   UNL     1       4.100  -1.494  22.788  0.00  0.00    +0.295 HD
ENDBRANCH  23   3
ENDBRANCH  14  23
ENDBRANCH   9  14
TORSDOF 7
ENDMDL
MODEL 3
REMARK VINA RESULT:       0.3     19.177     20.753
REMARK  Name = 25313019
REMARK  7 active torsions:
REMARK  status: ('A' for Active; 'I' for Inactive)
REMARK    1  A    between atoms: O_3  and  C_23
REMARK    2  A    between atoms: N_6  and  C_15
REMARK    3  A    between atoms: N_7  and  C_16
REMARK    4  A    between atoms: C_8  and  C_12
REMARK    5  A    between atoms: C_9  and  C_14
REMARK    6  A    between atoms: C_12  and  C_15
REMARK    7  A    between atoms: C_14  and  C_23
REMARK                            x       y       z     vdW  Elec       q    Type
REMARK                         _______ _______ _______ _____ _____    ______ ____
ROOT
ATOM      1  O   UNL     1      -5.442   0.664  26.109  0.00  0.00    -0.253 OA
ATOM      5  N   UNL     1      -4.417   2.119  24.622  0.00  0.00    -0.285 N 
ATOM      7  N   UNL     1      -4.162  -0.224  24.427  0.00  0.00    -0.296 N 
ATOM      8  C   UNL     1      -2.376   3.297  23.855  0.00  0.00    +0.011 C 
ATOM      9  C   UNL     1      -2.877   4.570  24.589  0.00  0.00    +0.006 C 
ATOM     10  C   UNL     1      -3.579   2.425  23.454  0.00  0.00    +0.113 C 
ATOM     11  C   UNL     1      -3.827   4.222  25.750  0.00  0.00    +0.023 C 
ATOM     13  C   UNL     1      -4.957   3.303  25.293  0.00  0.00    +0.109 C 
ATOM     17  C   UNL     1      -4.725   0.842  25.119  0.00  0.00    +0.302 C 
ATOM     28  H   UNL     1      -3.456  -0.063  23.722  0.00  0.00    +0.151 HD
ENDROOT
BRANCH   7  16
ATOM     16  C   UNL     1      -4.379  -1.598  24.820  0.00  0.00    +0.074 C 
ATOM     18  C   UNL     1      -4.017  -2.560  23.685  0.00  0.00    +0.022 C 
ATOM     19  C   UNL     1      -3.606  -1.933  26.101  0.00  0.00    +0.022 C 
ATOM     20  C   UNL     1      -2.509  -2.651  23.453  0.00  0.00    +0.002 C 
ATOM     21  C   UNL     1      -2.099  -2.025  25.866  0.00  0.00    +0.002 C 
ATOM     22  C   UNL     1      -1.762  -2.997  24.739  0.00  0.00    +0.000 C 
ENDBRANCH   7  16
BRANCH   8  12
ATOM     12  C   UNL     1      -1.361   2.473  24.656  0.00  0.00    +0.020 C 
BRANCH  12  15
ATOM     15  C   UNL     1      -1.228   1.070  24.083  0.00  0.00    +0.085 C 
BRANCH  15   6
ATOM      2  O   UNL     1       2.610  -0.006  22.768  0.00  0.00    -0.377 OA
ATOM      6  N   UNL     1      -0.013   0.975  23.276  0.00  0.00    -0.298 NA
ATOM     24  C   UNL     1       0.218  -0.410  22.843  0.00  0.00    +0.112 C 
ATOM     25  C   UNL     1       1.150   1.470  24.024  0.00  0.00    +0.112 C 
ATOM     26  C   UNL     1       1.497  -0.486  22.013  0.00  0.00    +0.175 C 
ATOM     27  C   UNL     1       2.406   1.350  23.165  0.00  0.00    +0.175 C 
ENDBRANCH  15   6
ENDBRANCH  12  15
ENDBRANCH   8  12
BRANCH   9  14
ATOM     14  C   UNL     1      -1.741   5.470  25.074  0.00  0.00    +0.124 C 
BRANCH  14  23
ATOM      4  O   UNL     1       0.109   5.170  23.517  0.00  0.00    -0.251 OA
ATOM     23  C   UNL     1      -0.401   4.971  24.608  0.00  0.00    +0.305 C 
BRANCH  23   3
ATOM      3  O   UNL     1       0.186   4.247  25.597  0.00  0.00    -0.481 OA
ATOM     29  H   UNL     1       0.902   4.748  26.041  0.00  0.00    +0.295 HD
ENDBRANCH  23   3
ENDBRANCH  14  23
ENDBRANCH   9  14
TORSDOF 7
ENDMDL
MODEL 4
REMARK VINA RESULT:       0.5     18.658     20.249
REMARK  Name = 25313019
REMARK  7 active torsions:
REMARK  status: ('A' for Active; 'I' for Inactive)
REMARK    1  A    between atoms: O_3  and  C_23
REMARK    2  A    between atoms: N_6  and  C_15
REMARK    3  A    between atoms: N_7  and  C_16
REMARK    4  A    between atoms: C_8  and  C_12
REMARK    5  A    between atoms: C_9  and  C_14
REMARK    6  A    between atoms: C_12  and  C_15
REMARK    7  A    between atoms: C_14  and  C_23
REMARK                            x       y       z     vdW  Elec       q    Type
REMARK                         _______ _______ _______ _____ _____    ______ ____
ROOT
ATOM      1  O   UNL     1      -1.393   3.830  25.549  0.00  0.00    -0.253 OA
ATOM      5  N   UNL     1      -0.849   2.253  23.938  0.00  0.00    -0.285 N 
ATOM      7  N   UNL     1      -2.831   2.075  25.215  0.00  0.00    -0.296 N 
ATOM      8  C   UNL     1       0.035   0.011  23.360  0.00  0.00    +0.011 C 
ATOM      9  C   UNL     1       1.397   0.674  23.020  0.00  0.00    +0.006 C 
ATOM     10  C   UNL     1      -1.100   1.030  23.162  0.00  0.00    +0.113 C 
ATOM     11  C   UNL     1       1.591   2.000  23.777  0.00  0.00    +0.023 C 
ATOM     13  C   UNL     1       0.398   2.934  23.586  0.00  0.00    +0.109 C 
ATOM     17  C   UNL     1      -1.673   2.792  24.939  0.00  0.00    +0.302 C 
ATOM     28  H   UNL     1      -2.969   1.153  24.826  0.00  0.00    +0.151 HD
ENDROOT
BRANCH   7  16
ATOM     16  C   UNL     1      -3.776   2.497  26.224  0.00  0.00    +0.074 C 
ATOM     18  C   UNL     1      -4.033   4.005  26.142  0.00  0.00    +0.022 C 
ATOM     19  C   UNL     1      -5.084   1.704  26.121  0.00  0.00    +0.022 C 
ATOM     20  C   UNL     1      -4.859   4.392  24.916  0.00  0.00    +0.002 C 
ATOM     21  C   UNL     1      -5.909   2.094  24.895  0.00  0.00    +0.002 C 
ATOM     22  C   UNL     1      -6.161   3.598  24.841  0.00  0.00    +0.000 C 
ENDBRANCH   7  16
BRANCH   8  12
ATOM     12  C   UNL     1      -0.029  -0.594  24.768  0.00  0.00    +0.020 C 
BRANCH  12  15
ATOM     15  C   UNL     1      -0.380  -2.074  24.708  0.00  0.00    +0.085 C 
BRANCH  15   6
ATOM      2  O   UNL     1      -4.539  -1.502  24.759  0.00  0.00    -0.377 OA
ATOM      6  N   UNL     1      -1.803  -2.259  24.985  0.00  0.00    -0.298 NA
ATOM     24  C   UNL     1      -2.556  -2.460  23.739  0.00  0.00    +0.112 C 
ATOM     25  C   UNL     1      -2.346  -1.108  25.720  0.00  0.00    +0.112 C 
ATOM     26  C   UNL     1      -4.038  -2.638  24.052  0.00  0.00    +0.175 C 
ATOM     27  C   UNL     1      -3.833  -1.319  25.987  0.00  0.00    +0.175 C 
ENDBRANCH  15   6
ENDBRANCH  12  15
ENDBRANCH   8  12
BRANCH   9  14
ATOM     14  C   UNL     1       2.590  -0.254  23.243  0.00  0.00    +0.124 C 
BRANCH  14  23
ATOM      4  O   UNL     1       4.888   0.525  23.465  0.00  0.00    -0.251 OA
ATOM     23  C   UNL     1       3.878   0.380  22.795  0.00  0.00    +0.305 C 
BRANCH  23   3
ATOM      3  O   UNL     1       3.763   0.783  21.503  0.00  0.00    -0.481 OA
ATOM     29  H   UNL     1       3.090   0.262  21.016  0.00  0.00    +0.295 HD
ENDBRANCH  23   3
ENDBRANCH  14  23
ENDBRANCH   9  14
TORSDOF 7
ENDMDL
MODEL 5
REMARK VINA RESULT:       1.0     18.172     20.074
REMARK  Name = 25313019
REMARK  7 active torsions:
REMARK  status: ('A' for Active; 'I' for Inactive)
REMARK    1  A    between atoms: O_3  and  C_23
REMARK    2  A    between atoms: N_6  and  C_15
REMARK    3  A    between atoms: N_7  and  C_16
REMARK    4  A    between atoms: C_8  and  C_12
REMARK    5  A    between atoms: C_9  and  C_14
REMARK    6  A    between atoms: C_12  and  C_15
REMARK    7  A    between atoms: C_14  and  C_23
REMARK                            x       y       z     vdW  Elec       q    Type
REMARK                         _______ _______ _______ _____ _____    ______ ____
ROOT
ATOM      1  O   UNL     1       2.167   2.693  23.438  0.00  0.00    -0.253 OA
ATOM      5  N   UNL     1       0.306   2.128  24.701  0.00  0.00    -0.285 N 
ATOM      7  N   UNL     1       1.386   0.540  23.322  0.00  0.00    -0.296 N 
ATOM      8  C   UNL     1      -2.128   1.678  24.831  0.00  0.00    +0.011 C 
ATOM      9  C   UNL     1      -2.330   3.119  25.370  0.00  0.00    +0.006 C 
ATOM     10  C   UNL     1      -0.713   1.187  25.187  0.00  0.00    +0.113 C 
ATOM     11  C   UNL     1      -1.198   4.060  24.922  0.00  0.00    +0.023 C 
ATOM     13  C   UNL     1       0.176   3.480  25.249  0.00  0.00    +0.109 C 
ATOM     17  C   UNL     1       1.344   1.845  23.799  0.00  0.00    +0.302 C 
ATOM     28  H   UNL     1       0.621  -0.096  23.498  0.00  0.00    +0.151 HD
ENDROOT
BRANCH   7  16
ATOM     16  C   UNL     1       2.390   0.096  22.381  0.00  0.00    +0.074 C 
ATOM     18  C   UNL     1       3.620   1.009  22.416  0.00  0.00    +0.022 C 
ATOM     19  C   UNL     1       2.775  -1.365  22.635  0.00  0.00    +0.022 C 
ATOM     20  C   UNL     1       4.444   0.832  23.691  0.00  0.00    +0.002 C 
ATOM     21  C   UNL     1       3.601  -1.539  23.909  0.00  0.00    +0.002 C 
ATOM     22  C   UNL     1       4.825  -0.629  23.917  0.00  0.00    +0.000 C 
ENDBRANCH   7  16
BRANCH   8  12
ATOM     12  C   UNL     1      -2.381   1.533  23.325  0.00  0.00    +0.020 C 
BRANCH  12  15
ATOM     15  C   UNL     1      -3.287   0.345  23.038  0.00  0.00    +0.085 C 
BRANCH  15   6
ATOM      2  O   UNL     1      -2.547  -3.434  24.710  0.00  0.00    -0.377 OA
ATOM      6  N   UNL     1      -3.037  -0.718  24.009  0.00  0.00    -0.298 NA
ATOM     24  C   UNL     1      -1.733  -1.352  23.766  0.00  0.00    +0.112 C 
ATOM     25  C   UNL     1      -4.103  -1.728  23.964  0.00  0.00    +0.112 C 
ATOM     26  C   UNL     1      -1.500  -2.465  24.783  0.00  0.00    +0.175 C 
ATOM     27  C   UNL     1      -3.814  -2.831  24.977  0.00  0.00    +0.175 C 
ENDBRANCH  15   6
ENDBRANCH  12  15
ENDBRANCH   8  12
BRANCH   9  14
ATOM     14  C   UNL     1      -3.694   3.708  25.011  0.00  0.00    +0.124 C 
BRANCH  14  23
ATOM      4  O   UNL     1      -4.849   1.677  25.703  0.00  0.00    -0.251 OA
ATOM     23  C   UNL     1      -4.819   2.891  25.585  0.00  0.00    +0.305 C 
BRANCH  23   3
ATOM      3  O   UNL     1      -5.831   3.713  25.966  0.00  0.00    -0.481 OA
ATOM     29  H   UNL     1      -5.564   4.656  25.946  0.00  0.00    +0.295 HD
ENDBRANCH  23   3
ENDBRANCH  14  23
ENDBRANCH   9  14
TORSDOF 7
ENDMDL
