MODEL 1
REMARK VINA RESULT:      -3.0      0.000      0.000
REMARK  Name = 7143905
REMARK  3 active torsions:
REMARK  status: ('A' for Active; 'I' for Inactive)
REMARK    1  A    between atoms: S_1  and  N_5
REMARK    2  A    between atoms: S_1  and  C_20
REMARK    3  A    between atoms: C_18  and  C_21
REMARK                            x       y       z     vdW  Elec       q    Type
REMARK                         _______ _______ _______ _____ _____    ______ ____
ROOT
ATOM      4  O   UNL     1      11.268  -7.074  31.054  0.00  0.00    -0.267 OA
ATOM      5  N   UNL     1      15.640  -9.256  30.066  0.00  0.00    -0.176 NA
ATOM      6  N   UNL     1      13.215  -8.146  31.760  0.00  0.00    -0.311 N 
ATOM      9  C   UNL     1      15.547  -7.148  31.401  0.00  0.00    +0.025 C 
ATOM     10  C   UNL     1      15.309  -9.316  32.530  0.00  0.00    +0.052 C 
ATOM     11  C   UNL     1      15.918  -7.923  32.658  0.00  0.00    +0.017 C 
ATOM     12  C   UNL     1      16.110  -7.843  30.151  0.00  0.00    +0.114 C 
ATOM     13  C   UNL     1      15.917 -10.033  31.310  0.00  0.00    +0.119 C 
ATOM     14  C   UNL     1      14.022  -6.990  31.346  0.00  0.00    +0.130 C 
ATOM     15  C   UNL     1      13.799  -9.243  32.399  0.00  0.00    +0.026 A 
ATOM     16  C   UNL     1      13.028 -10.234  32.873  0.00  0.00    +0.022 A 
ATOM     17  C   UNL     1      11.822  -8.041  31.580  0.00  0.00    +0.259 A 
ATOM     18  C   UNL     1      10.988  -9.186  32.090  0.00  0.00    +0.050 A 
ATOM     19  C   UNL     1      11.603 -10.203  32.709  0.00  0.00    +0.015 A 
ENDROOT
BRANCH  18  21
ATOM      7  N   UNL     1       7.389  -8.128  32.150  0.00  0.00    -0.243 NA
ATOM      8  N   UNL     1       7.533 -10.325  31.171  0.00  0.00    -0.243 NA
ATOM     21  C   UNL     1       9.525  -9.202  31.912  0.00  0.00    +0.024 A 
ATOM     26  C   UNL     1       8.730  -8.146  32.299  0.00  0.00    +0.122 A 
ATOM     27  C   UNL     1       8.870 -10.276  31.349  0.00  0.00    +0.122 A 
ATOM     29  C   UNL     1       6.865  -9.233  31.588  0.00  0.00    +0.221 A 
ENDBRANCH  18  21
BRANCH   5   1
ATOM      1  S   UNL     1      15.984 -10.063  28.597  0.00  0.00    +0.061 S 
ATOM      2  O   UNL     1      14.804 -10.781  28.164  0.00  0.00    -0.153 OA
ATOM      3  O   UNL     1      17.262 -10.734  28.716  0.00  0.00    -0.153 OA
BRANCH   1  20
ATOM     20  C   UNL     1      16.195  -8.676  27.525  0.00  0.00    +0.105 A 
ATOM     22  C   UNL     1      17.230  -8.683  26.605  0.00  0.00    +0.028 A 
ATOM     23  C   UNL     1      15.321  -7.606  27.621  0.00  0.00    +0.028 A 
ATOM     24  C   UNL     1      17.399  -7.588  25.758  0.00  0.00    +0.002 A 
ATOM     25  C   UNL     1      15.489  -6.510  26.773  0.00  0.00    +0.002 A 
ATOM     28  C   UNL     1      16.527  -6.501  25.843  0.00  0.00    +0.000 A 
ENDBRANCH   1  20
ENDBRANCH   5   1
TORSDOF 3
ENDMDL
MODEL 2
REMARK VINA RESULT:      -2.2      1.719      2.328
REMARK  Name = 7143905
REMARK  3 active torsions:
REMARK  status: ('A' for Active; 'I' for Inactive)
REMARK    1  A    between atoms: S_1  and  N_5
REMARK    2  A    between atoms: S_1  and  C_20
REMARK    3  A    between atoms: C_18  and  C_21
REMARK                            x       y       z     vdW  Elec       q    Type
REMARK                         _______ _______ _______ _____ _____    ______ ____
ROOT
ATOM      4  O   UNL     1      12.227  -6.284  30.651  0.00  0.00    -0.267 OA
ATOM      5  N   UNL     1      16.309  -7.736  28.186  0.00  0.00    -0.176 NA
ATOM      6  N   UNL     1      14.438  -7.025  30.630  0.00  0.00    -0.311 N 
ATOM      9  C   UNL     1      16.339  -5.665  29.581  0.00  0.00    +0.025 C 
ATOM     10  C   UNL     1      16.822  -7.840  30.617  0.00  0.00    +0.052 C 
ATOM     11  C   UNL     1      17.217  -6.365  30.609  0.00  0.00    +0.017 C 
ATOM     12  C   UNL     1      16.558  -6.266  28.183  0.00  0.00    +0.114 C 
ATOM     13  C   UNL     1      17.097  -8.454  29.232  0.00  0.00    +0.119 C 
ATOM     14  C   UNL     1      14.876  -5.755  30.034  0.00  0.00    +0.130 C 
ATOM     15  C   UNL     1      15.361  -8.011  30.989  0.00  0.00    +0.026 A 
ATOM     16  C   UNL     1      14.951  -9.112  31.639  0.00  0.00    +0.022 A 
ATOM     17  C   UNL     1      13.065  -7.147  30.919  0.00  0.00    +0.259 A 
ATOM     18  C   UNL     1      12.631  -8.409  31.616  0.00  0.00    +0.050 A 
ATOM     19  C   UNL     1      13.565  -9.312  31.950  0.00  0.00    +0.015 A 
ENDROOT
BRANCH  18  21
ATOM      7  N   UNL     1       9.042  -7.842  32.550  0.00  0.00    -0.243 NA
ATOM      8  N   UNL     1       9.379 -10.197  32.167  0.00  0.00    -0.243 NA
ATOM     21  C   UNL     1      11.213  -8.662  31.924  0.00  0.00    +0.024 A 
ATOM     26  C   UNL     1      10.346  -7.646  32.263  0.00  0.00    +0.122 A 
ATOM     27  C   UNL     1      10.672  -9.929  31.891  0.00  0.00    +0.122 A 
ATOM     29  C   UNL     1       8.632  -9.122  32.484  0.00  0.00    +0.221 A 
ENDBRANCH  18  21
BRANCH   5   1
ATOM      1  S   UNL     1      16.269  -8.483  26.648  0.00  0.00    +0.061 S 
ATOM      2  O   UNL     1      14.924  -8.948  26.381  0.00  0.00    -0.153 OA
ATOM      3  O   UNL     1      17.403  -9.376  26.527  0.00  0.00    -0.153 OA
BRANCH   1  20
ATOM     20  C   UNL     1      16.569  -7.082  25.616  0.00  0.00    +0.105 A 
ATOM     22  C   UNL     1      17.157  -7.267  24.376  0.00  0.00    +0.028 A 
ATOM     23  C   UNL     1      16.211  -5.821  26.064  0.00  0.00    +0.028 A 
ATOM     24  C   UNL     1      17.395  -6.161  23.561  0.00  0.00    +0.002 A 
ATOM     25  C   UNL     1      16.449  -4.714  25.249  0.00  0.00    +0.002 A 
ATOM     28  C   UNL     1      17.041  -4.884  23.998  0.00  0.00    +0.000 A 
ENDBRANCH   1  20
ENDBRANCH   5   1
TORSDOF 3
ENDMDL
