MODEL 1
REMARK VINA RESULT:      -1.0      0.000      0.000
REMARK  Name = 45783723
REMARK  7 active torsions:
REMARK  status: ('A' for Active; 'I' for Inactive)
REMARK    1  A    between atoms: O_2  and  C_21
REMARK    2  A    between atoms: O_2  and  C_24
REMARK    3  A    between atoms: O_3  and  C_26
REMARK    4  A    between atoms: O_3  and  C_27
REMARK    5  A    between atoms: C_10  and  C_14
REMARK    6  A    between atoms: C_16  and  C_17
REMARK    7  A    between atoms: C_24  and  C_26
REMARK                            x       y       z     vdW  Elec       q    Type
REMARK                         _______ _______ _______ _____ _____    ______ ____
ROOT
ATOM      1  O   UNL     1      -1.674  -0.306  23.116  0.00  0.00    -0.336 OA
ATOM      5  N   UNL     1      -0.117  -0.669  24.684  0.00  0.00    -0.190 NA
ATOM      8  N   UNL     1      -0.447   0.026  22.529  0.00  0.00    -0.056 NA
ATOM     14  C   UNL     1      -1.391  -0.706  24.384  0.00  0.00    +0.248 A 
ATOM     16  C   UNL     1       0.422  -0.215  23.516  0.00  0.00    +0.207 A 
ENDROOT
BRANCH  14  10
ATOM      4  N   UNL     1      -3.861  -0.584  24.780  0.00  0.00    -0.288 N 
ATOM      6  N   UNL     1      -3.400   1.571  25.507  0.00  0.00    -0.223 NA
ATOM      7  N   UNL     1      -5.578   0.974  24.669  0.00  0.00    -0.223 NA
ATOM     10  C   UNL     1      -2.572  -1.125  25.242  0.00  0.00    +0.165 C 
ATOM     11  C   UNL     1      -2.791  -2.648  25.207  0.00  0.00    +0.034 C 
ATOM     12  C   UNL     1      -3.805  -2.848  24.092  0.00  0.00    +0.021 C 
ATOM     13  C   UNL     1      -4.720  -1.635  24.227  0.00  0.00    +0.109 C 
ATOM     15  C   UNL     1      -4.299   0.709  24.995  0.00  0.00    +0.218 A 
ATOM     18  C   UNL     1      -5.972   2.245  24.892  0.00  0.00    +0.116 A 
ATOM     19  C   UNL     1      -3.859   2.824  25.704  0.00  0.00    +0.116 A 
ATOM     20  C   UNL     1      -5.148   3.223  25.413  0.00  0.00    +0.039 A 
ENDBRANCH  14  10
BRANCH  16  17
ATOM      9  N   UNL     1       3.719   1.495  23.214  0.00  0.00    -0.221 NA
ATOM     17  C   UNL     1       1.835  -0.010  23.367  0.00  0.00    +0.084 A 
ATOM     21  C   UNL     1       2.396   1.256  23.351  0.00  0.00    +0.226 A 
ATOM     22  C   UNL     1       2.685  -1.101  23.235  0.00  0.00    +0.018 A 
ATOM     23  C   UNL     1       4.054  -0.896  23.092  0.00  0.00    +0.021 A 
ATOM     25  C   UNL     1       4.516   0.410  23.088  0.00  0.00    +0.114 A 
BRANCH  21   2
ATOM      2  O   UNL     1       1.598   2.365  23.477  0.00  0.00    -0.474 OA
BRANCH   2  24
ATOM     24  C   UNL     1       0.694   2.380  24.574  0.00  0.00    +0.258 C 
BRANCH  24  26
ATOM     26  C   UNL     1      -0.451   3.324  24.258  0.00  0.00    +0.200 C 
BRANCH  26   3
ATOM      3  O   UNL     1      -0.678   4.169  25.380  0.00  0.00    -0.380 OA
ATOM     27  C   UNL     1      -1.413   5.330  25.016  0.00  0.00    +0.194 C 
ENDBRANCH  26   3
ENDBRANCH  24  26
ENDBRANCH   2  24
ENDBRANCH  21   2
ENDBRANCH  16  17
TORSDOF 6
ENDMDL
MODEL 2
REMARK VINA RESULT:      -0.7      1.633      4.454
REMARK  Name = 45783723
REMARK  7 active torsions:
REMARK  status: ('A' for Active; 'I' for Inactive)
REMARK    1  A    between atoms: O_2  and  C_21
REMARK    2  A    between atoms: O_2  and  C_24
REMARK    3  A    between atoms: O_3  and  C_26
REMARK    4  A    between atoms: O_3  and  C_27
REMARK    5  A    between atoms: C_10  and  C_14
REMARK    6  A    between atoms: C_16  and  C_17
REMARK    7  A    between atoms: C_24  and  C_26
REMARK                            x       y       z     vdW  Elec       q    Type
REMARK                         _______ _______ _______ _____ _____    ______ ____
ROOT
ATOM      1  O   UNL     1      -0.757   2.914  25.629  0.00  0.00    -0.336 OA
ATOM      5  N   UNL     1      -0.439   2.608  23.433  0.00  0.00    -0.190 NA
ATOM      8  N   UNL     1       0.352   2.067  25.511  0.00  0.00    -0.056 NA
ATOM     14  C   UNL     1      -1.162   3.185  24.360  0.00  0.00    +0.248 A 
ATOM     16  C   UNL     1       0.477   1.934  24.187  0.00  0.00    +0.207 A 
ENDROOT
BRANCH  14  10
ATOM      4  N   UNL     1      -3.380   3.914  25.268  0.00  0.00    -0.288 N 
ATOM      6  N   UNL     1      -4.127   1.887  24.421  0.00  0.00    -0.223 NA
ATOM      7  N   UNL     1      -5.268   2.979  26.242  0.00  0.00    -0.223 NA
ATOM     10  C   UNL     1      -2.368   4.098  24.214  0.00  0.00    +0.165 C 
ATOM     11  C   UNL     1      -1.981   5.580  24.345  0.00  0.00    +0.034 C 
ATOM     12  C   UNL     1      -2.196   5.888  25.818  0.00  0.00    +0.021 C 
ATOM     13  C   UNL     1      -3.431   5.066  26.172  0.00  0.00    +0.109 C 
ATOM     15  C   UNL     1      -4.298   2.882  25.312  0.00  0.00    +0.218 A 
ATOM     18  C   UNL     1      -6.146   1.955  26.256  0.00  0.00    +0.116 A 
ATOM     19  C   UNL     1      -5.041   0.896  24.491  0.00  0.00    +0.116 A 
ATOM     20  C   UNL     1      -6.082   0.876  25.397  0.00  0.00    +0.039 A 
ENDBRANCH  14  10
BRANCH  16  17
ATOM      9  N   UNL     1       2.217  -0.963  22.616  0.00  0.00    -0.221 NA
ATOM     17  C   UNL     1       1.505   1.134  23.585  0.00  0.00    +0.084 A 
ATOM     21  C   UNL     1       1.280  -0.173  23.187  0.00  0.00    +0.226 A 
ATOM     22  C   UNL     1       2.773   1.666  23.386  0.00  0.00    +0.018 A 
ATOM     23  C   UNL     1       3.765   0.885  22.801  0.00  0.00    +0.021 A 
ATOM     25  C   UNL     1       3.439  -0.411  22.438  0.00  0.00    +0.114 A 
BRANCH  21   2
ATOM      2  O   UNL     1       0.045  -0.744  23.363  0.00  0.00    -0.474 OA
BRANCH   2  24
ATOM     24  C   UNL     1      -0.231  -1.287  24.647  0.00  0.00    +0.258 C 
BRANCH  24  26
ATOM     26  C   UNL     1      -1.732  -1.306  24.865  0.00  0.00    +0.200 C 
BRANCH  26   3
ATOM      3  O   UNL     1      -2.273  -2.480  24.272  0.00  0.00    -0.380 OA
ATOM     27  C   UNL     1      -3.651  -2.633  24.584  0.00  0.00    +0.194 C 
ENDBRANCH  26   3
ENDBRANCH  24  26
ENDBRANCH   2  24
ENDBRANCH  21   2
ENDBRANCH  16  17
TORSDOF 6
ENDMDL
MODEL 3
REMARK VINA RESULT:      -0.7     17.527     19.831
REMARK  Name = 45783723
REMARK  7 active torsions:
REMARK  status: ('A' for Active; 'I' for Inactive)
REMARK    1  A    between atoms: O_2  and  C_21
REMARK    2  A    between atoms: O_2  and  C_24
REMARK    3  A    between atoms: O_3  and  C_26
REMARK    4  A    between atoms: O_3  and  C_27
REMARK    5  A    between atoms: C_10  and  C_14
REMARK    6  A    between atoms: C_16  and  C_17
REMARK    7  A    between atoms: C_24  and  C_26
REMARK                            x       y       z     vdW  Elec       q    Type
REMARK                         _______ _______ _______ _____ _____    ______ ____
ROOT
ATOM      1  O   UNL     1      13.940  -6.851  27.839  0.00  0.00    -0.336 OA
ATOM      5  N   UNL     1      16.148  -6.597  28.117  0.00  0.00    -0.190 NA
ATOM      8  N   UNL     1      14.123  -6.466  29.173  0.00  0.00    -0.056 NA
ATOM     14  C   UNL     1      15.182  -6.905  27.288  0.00  0.00    +0.248 A 
ATOM     16  C   UNL     1      15.450  -6.335  29.259  0.00  0.00    +0.207 A 
ENDROOT
BRANCH  14  10
ATOM      4  N   UNL     1      16.369  -6.675  25.095  0.00  0.00    -0.288 N 
ATOM      6  N   UNL     1      15.357  -4.587  25.035  0.00  0.00    -0.223 NA
ATOM      7  N   UNL     1      17.392  -5.026  23.821  0.00  0.00    -0.223 NA
ATOM     10  C   UNL     1      15.257  -7.306  25.825  0.00  0.00    +0.165 C 
ATOM     11  C   UNL     1      15.528  -8.811  25.658  0.00  0.00    +0.034 C 
ATOM     12  C   UNL     1      17.041  -8.901  25.538  0.00  0.00    +0.021 C 
ATOM     13  C   UNL     1      17.405  -7.650  24.744  0.00  0.00    +0.109 C 
ATOM     15  C   UNL     1      16.372  -5.373  24.630  0.00  0.00    +0.218 A 
ATOM     18  C   UNL     1      17.364  -3.749  23.386  0.00  0.00    +0.116 A 
ATOM     19  C   UNL     1      15.391  -3.324  24.563  0.00  0.00    +0.116 A 
ATOM     20  C   UNL     1      16.380  -2.844  23.727  0.00  0.00    +0.039 A 
ENDBRANCH  14  10
BRANCH  16  17
ATOM      9  N   UNL     1      17.329  -6.549  32.470  0.00  0.00    -0.221 NA
ATOM     17  C   UNL     1      16.110  -5.945  30.472  0.00  0.00    +0.084 A 
ATOM     21  C   UNL     1      16.697  -6.870  31.319  0.00  0.00    +0.226 A 
ATOM     22  C   UNL     1      16.174  -4.603  30.829  0.00  0.00    +0.018 A 
ATOM     23  C   UNL     1      16.816  -4.232  32.006  0.00  0.00    +0.021 A 
ATOM     25  C   UNL     1      17.372  -5.234  32.785  0.00  0.00    +0.114 A 
BRANCH  21   2
ATOM      2  O   UNL     1      16.659  -8.207  31.012  0.00  0.00    -0.474 OA
BRANCH   2  24
ATOM     24  C   UNL     1      15.836  -9.028  31.829  0.00  0.00    +0.258 C 
BRANCH  24  26
ATOM     26  C   UNL     1      14.733  -9.626  30.977  0.00  0.00    +0.200 C 
BRANCH  26   3
ATOM      3  O   UNL     1      15.214  -9.802  29.650  0.00  0.00    -0.380 OA
ATOM     27  C   UNL     1      14.363 -10.654  28.896  0.00  0.00    +0.194 C 
ENDBRANCH  26   3
ENDBRANCH  24  26
ENDBRANCH   2  24
ENDBRANCH  21   2
ENDBRANCH  16  17
TORSDOF 6
ENDMDL
MODEL 4
REMARK VINA RESULT:       0.4      1.654      6.231
REMARK  Name = 45783723
REMARK  7 active torsions:
REMARK  status: ('A' for Active; 'I' for Inactive)
REMARK    1  A    between atoms: O_2  and  C_21
REMARK    2  A    between atoms: O_2  and  C_24
REMARK    3  A    between atoms: O_3  and  C_26
REMARK    4  A    between atoms: O_3  and  C_27
REMARK    5  A    between atoms: C_10  and  C_14
REMARK    6  A    between atoms: C_16  and  C_17
REMARK    7  A    between atoms: C_24  and  C_26
REMARK                            x       y       z     vdW  Elec       q    Type
REMARK                         _______ _______ _______ _____ _____    ______ ____
ROOT
ATOM      1  O   UNL     1      -1.521   0.855  22.797  0.00  0.00    -0.336 OA
ATOM      5  N   UNL     1      -2.906   0.206  24.434  0.00  0.00    -0.190 NA
ATOM      8  N   UNL     1      -2.347   1.953  23.067  0.00  0.00    -0.056 NA
ATOM     14  C   UNL     1      -1.917  -0.132  23.645  0.00  0.00    +0.248 A 
ATOM     16  C   UNL     1      -3.135   1.493  24.043  0.00  0.00    +0.207 A 
ENDROOT
BRANCH  14  10
ATOM      4  N   UNL     1       0.188  -1.401  24.128  0.00  0.00    -0.288 N 
ATOM      6  N   UNL     1       1.064  -0.148  22.381  0.00  0.00    -0.223 NA
ATOM      7  N   UNL     1       2.484  -1.060  24.101  0.00  0.00    -0.223 NA
ATOM     10  C   UNL     1      -1.165  -1.449  23.550  0.00  0.00    +0.165 C 
ATOM     11  C   UNL     1      -1.858  -2.561  24.355  0.00  0.00    +0.034 C 
ATOM     12  C   UNL     1      -1.173  -2.516  25.711  0.00  0.00    +0.021 C 
ATOM     13  C   UNL     1       0.275  -2.186  25.362  0.00  0.00    +0.109 C 
ATOM     15  C   UNL     1       1.293  -0.846  23.510  0.00  0.00    +0.218 A 
ATOM     18  C   UNL     1       3.540  -0.505  23.472  0.00  0.00    +0.116 A 
ATOM     19  C   UNL     1       2.163   0.380  21.805  0.00  0.00    +0.116 A 
ATOM     20  C   UNL     1       3.440   0.233  22.309  0.00  0.00    +0.039 A 
ENDBRANCH  14  10
BRANCH  16  17
ATOM      9  N   UNL     1      -4.953   4.445  25.408  0.00  0.00    -0.221 NA
ATOM     17  C   UNL     1      -4.162   2.292  24.647  0.00  0.00    +0.084 A 
ATOM     21  C   UNL     1      -4.013   3.654  24.844  0.00  0.00    +0.226 A 
ATOM     22  C   UNL     1      -5.353   1.701  25.056  0.00  0.00    +0.018 A 
ATOM     23  C   UNL     1      -6.345   2.481  25.640  0.00  0.00    +0.021 A 
ATOM     25  C   UNL     1      -6.098   3.836  25.793  0.00  0.00    +0.114 A 
BRANCH  21   2
ATOM      2  O   UNL     1      -2.856   4.283  24.459  0.00  0.00    -0.474 OA
BRANCH   2  24
ATOM     24  C   UNL     1      -1.941   4.627  25.491  0.00  0.00    +0.258 C 
BRANCH  24  26
ATOM     26  C   UNL     1      -0.526   4.487  24.964  0.00  0.00    +0.200 C 
BRANCH  26   3
ATOM      3  O   UNL     1      -0.175   3.109  24.933  0.00  0.00    -0.380 OA
ATOM     27  C   UNL     1      -0.263   2.522  26.224  0.00  0.00    +0.194 C 
ENDBRANCH  26   3
ENDBRANCH  24  26
ENDBRANCH   2  24
ENDBRANCH  21   2
ENDBRANCH  16  17
TORSDOF 6
ENDMDL
MODEL 5
REMARK VINA RESULT:       0.4      1.841      6.895
REMARK  Name = 45783723
REMARK  7 active torsions:
REMARK  status: ('A' for Active; 'I' for Inactive)
REMARK    1  A    between atoms: O_2  and  C_21
REMARK    2  A    between atoms: O_2  and  C_24
REMARK    3  A    between atoms: O_3  and  C_26
REMARK    4  A    between atoms: O_3  and  C_27
REMARK    5  A    between atoms: C_10  and  C_14
REMARK    6  A    between atoms: C_16  and  C_17
REMARK    7  A    between atoms: C_24  and  C_26
REMARK                            x       y       z     vdW  Elec       q    Type
REMARK                         _______ _______ _______ _____ _____    ______ ____
ROOT
ATOM      1  O   UNL     1       0.556   1.712  23.884  0.00  0.00    -0.336 OA
ATOM      5  N   UNL     1      -1.571   1.081  24.190  0.00  0.00    -0.190 NA
ATOM      8  N   UNL     1      -0.118   2.840  24.367  0.00  0.00    -0.056 NA
ATOM     14  C   UNL     1      -0.372   0.721  23.809  0.00  0.00    +0.248 A 
ATOM     16  C   UNL     1      -1.367   2.388  24.523  0.00  0.00    +0.207 A 
ENDROOT
BRANCH  14  10
ATOM      4  N   UNL     1       1.383  -1.063  23.914  0.00  0.00    -0.288 N 
ATOM      6  N   UNL     1       2.666   0.459  22.721  0.00  0.00    -0.223 NA
ATOM      7  N   UNL     1       3.692  -1.242  24.085  0.00  0.00    -0.223 NA
ATOM     10  C   UNL     1       0.116  -0.627  23.305  0.00  0.00    +0.165 C 
ATOM     11  C   UNL     1      -0.861  -1.759  23.665  0.00  0.00    +0.034 C 
ATOM     12  C   UNL     1      -0.328  -2.300  24.982  0.00  0.00    +0.021 C 
ATOM     13  C   UNL     1       1.185  -2.201  24.816  0.00  0.00    +0.109 C 
ATOM     15  C   UNL     1       2.634  -0.596  23.558  0.00  0.00    +0.218 A 
ATOM     18  C   UNL     1       4.896  -0.760  23.717  0.00  0.00    +0.116 A 
ATOM     19  C   UNL     1       3.902   0.890  22.394  0.00  0.00    +0.116 A 
ATOM     20  C   UNL     1       5.065   0.314  22.866  0.00  0.00    +0.039 A 
ENDBRANCH  14  10
BRANCH  16  17
ATOM      9  N   UNL     1      -4.799   3.625  25.284  0.00  0.00    -0.221 NA
ATOM     17  C   UNL     1      -2.432   3.218  25.008  0.00  0.00    +0.084 A 
ATOM     21  C   UNL     1      -3.764   2.875  24.843  0.00  0.00    +0.226 A 
ATOM     22  C   UNL     1      -2.143   4.407  25.667  0.00  0.00    +0.018 A 
ATOM     23  C   UNL     1      -3.180   5.206  26.136  0.00  0.00    +0.021 A 
ATOM     25  C   UNL     1      -4.479   4.775  25.920  0.00  0.00    +0.114 A 
BRANCH  21   2
ATOM      2  O   UNL     1      -4.100   1.712  24.199  0.00  0.00    -0.474 OA
BRANCH   2  24
ATOM     24  C   UNL     1      -4.912   0.794  24.919  0.00  0.00    +0.258 C 
BRANCH  24  26
ATOM     26  C   UNL     1      -4.155  -0.510  25.086  0.00  0.00    +0.200 C 
BRANCH  26   3
ATOM      3  O   UNL     1      -4.372  -1.323  23.938  0.00  0.00    -0.380 OA
ATOM     27  C   UNL     1      -4.021  -2.678  24.186  0.00  0.00    +0.194 C 
ENDBRANCH  26   3
ENDBRANCH  24  26
ENDBRANCH   2  24
ENDBRANCH  21   2
ENDBRANCH  16  17
TORSDOF 6
ENDMDL
MODEL 6
REMARK VINA RESULT:       0.5      2.191      5.659
REMARK  Name = 45783723
REMARK  7 active torsions:
REMARK  status: ('A' for Active; 'I' for Inactive)
REMARK    1  A    between atoms: O_2  and  C_21
REMARK    2  A    between atoms: O_2  and  C_24
REMARK    3  A    between atoms: O_3  and  C_26
REMARK    4  A    between atoms: O_3  and  C_27
REMARK    5  A    between atoms: C_10  and  C_14
REMARK    6  A    between atoms: C_16  and  C_17
REMARK    7  A    between atoms: C_24  and  C_26
REMARK                            x       y       z     vdW  Elec       q    Type
REMARK                         _______ _______ _______ _____ _____    ______ ____
ROOT
ATOM      1  O   UNL     1      -5.785   1.331  24.892  0.00  0.00    -0.336 OA
ATOM      5  N   UNL     1      -3.678   0.752  25.386  0.00  0.00    -0.190 NA
ATOM      8  N   UNL     1      -5.600   0.047  24.365  0.00  0.00    -0.056 NA
ATOM     14  C   UNL     1      -4.605   1.672  25.476  0.00  0.00    +0.248 A 
ATOM     16  C   UNL     1      -4.334  -0.225  24.697  0.00  0.00    +0.207 A 
ENDROOT
BRANCH  14  10
ATOM      4  N   UNL     1      -3.782   4.035  25.358  0.00  0.00    -0.288 N 
ATOM      6  N   UNL     1      -1.724   3.094  25.876  0.00  0.00    -0.223 NA
ATOM      7  N   UNL     1      -1.879   5.197  24.710  0.00  0.00    -0.223 NA
ATOM     10  C   UNL     1      -4.545   3.042  26.131  0.00  0.00    +0.165 C 
ATOM     11  C   UNL     1      -5.940   3.679  26.252  0.00  0.00    +0.034 C 
ATOM     12  C   UNL     1      -6.068   4.524  24.995  0.00  0.00    +0.021 C 
ATOM     13  C   UNL     1      -4.656   5.063  24.788  0.00  0.00    +0.109 C 
ATOM     15  C   UNL     1      -2.402   4.112  25.313  0.00  0.00    +0.218 A 
ATOM     18  C   UNL     1      -0.531   5.240  24.684  0.00  0.00    +0.116 A 
ATOM     19  C   UNL     1      -0.381   3.200  25.814  0.00  0.00    +0.116 A 
ATOM     20  C   UNL     1       0.278   4.261  25.225  0.00  0.00    +0.039 A 
ENDBRANCH  14  10
BRANCH  16  17
ATOM      9  N   UNL     1      -1.685  -2.792  24.167  0.00  0.00    -0.221 NA
ATOM     17  C   UNL     1      -3.696  -1.463  24.353  0.00  0.00    +0.084 A 
ATOM     21  C   UNL     1      -2.328  -1.644  24.478  0.00  0.00    +0.226 A 
ATOM     22  C   UNL     1      -4.453  -2.528  23.879  0.00  0.00    +0.018 A 
ATOM     23  C   UNL     1      -3.828  -3.726  23.549  0.00  0.00    +0.021 A 
ATOM     25  C   UNL     1      -2.454  -3.806  23.709  0.00  0.00    +0.114 A 
BRANCH  21   2
ATOM      2  O   UNL     1      -1.538  -0.623  24.940  0.00  0.00    -0.474 OA
BRANCH   2  24
ATOM     24  C   UNL     1      -0.157  -0.683  24.610  0.00  0.00    +0.258 C 
BRANCH  24  26
ATOM     26  C   UNL     1       0.145   0.358  23.550  0.00  0.00    +0.200 C 
BRANCH  26   3
ATOM      3  O   UNL     1       0.947  -0.232  22.534  0.00  0.00    -0.380 OA
ATOM     27  C   UNL     1       2.314   0.128  22.676  0.00  0.00    +0.194 C 
ENDBRANCH  26   3
ENDBRANCH  24  26
ENDBRANCH   2  24
ENDBRANCH  21   2
ENDBRANCH  16  17
TORSDOF 6
ENDMDL
MODEL 7
REMARK VINA RESULT:       1.4      2.131      6.469
REMARK  Name = 45783723
REMARK  7 active torsions:
REMARK  status: ('A' for Active; 'I' for Inactive)
REMARK    1  A    between atoms: O_2  and  C_21
REMARK    2  A    between atoms: O_2  and  C_24
REMARK    3  A    between atoms: O_3  and  C_26
REMARK    4  A    between atoms: O_3  and  C_27
REMARK    5  A    between atoms: C_10  and  C_14
REMARK    6  A    between atoms: C_16  and  C_17
REMARK    7  A    between atoms: C_24  and  C_26
REMARK                            x       y       z     vdW  Elec       q    Type
REMARK                         _______ _______ _______ _____ _____    ______ ____
ROOT
ATOM      1  O   UNL     1      -0.636   0.463  25.700  0.00  0.00    -0.336 OA
ATOM      5  N   UNL     1      -1.027   1.571  23.793  0.00  0.00    -0.190 NA
ATOM      8  N   UNL     1      -1.084   1.735  26.074  0.00  0.00    -0.056 NA
ATOM     14  C   UNL     1      -0.632   0.449  24.341  0.00  0.00    +0.248 A 
ATOM     16  C   UNL     1      -1.294   2.329  24.896  0.00  0.00    +0.207 A 
ENDROOT
BRANCH  14  10
ATOM      4  N   UNL     1       1.154  -1.292  24.111  0.00  0.00    -0.288 N 
ATOM      6  N   UNL     1       2.276   0.355  22.920  0.00  0.00    -0.223 NA
ATOM      7  N   UNL     1       3.471  -1.425  24.022  0.00  0.00    -0.223 NA
ATOM     10  C   UNL     1      -0.178  -0.841  23.678  0.00  0.00    +0.165 C 
ATOM     11  C   UNL     1      -1.092  -2.023  24.044  0.00  0.00    +0.034 C 
ATOM     12  C   UNL     1      -0.411  -2.655  25.247  0.00  0.00    +0.021 C 
ATOM     13  C   UNL     1       1.073  -2.504  24.932  0.00  0.00    +0.109 C 
ATOM     15  C   UNL     1       2.352  -0.765  23.665  0.00  0.00    +0.218 A 
ATOM     18  C   UNL     1       4.620  -0.883  23.570  0.00  0.00    +0.116 A 
ATOM     19  C   UNL     1       3.462   0.842  22.502  0.00  0.00    +0.116 A 
ATOM     20  C   UNL     1       4.678   0.260  22.799  0.00  0.00    +0.039 A 
ENDBRANCH  14  10
BRANCH  16  17
ATOM      9  N   UNL     1      -3.575   5.226  24.360  0.00  0.00    -0.221 NA
ATOM     17  C   UNL     1      -1.768   3.678  24.784  0.00  0.00    +0.084 A 
ATOM     21  C   UNL     1      -3.086   3.971  24.474  0.00  0.00    +0.226 A 
ATOM     22  C   UNL     1      -0.896   4.741  24.990  0.00  0.00    +0.018 A 
ATOM     23  C   UNL     1      -1.361   6.047  24.881  0.00  0.00    +0.021 A 
ATOM     25  C   UNL     1      -2.698   6.235  24.567  0.00  0.00    +0.114 A 
BRANCH  21   2
ATOM      2  O   UNL     1      -3.985   2.958  24.262  0.00  0.00    -0.474 OA
BRANCH   2  24
ATOM     24  C   UNL     1      -5.044   2.834  25.202  0.00  0.00    +0.258 C 
BRANCH  24  26
ATOM     26  C   UNL     1      -5.416   1.370  25.339  0.00  0.00    +0.200 C 
BRANCH  26   3
ATOM      3  O   UNL     1      -4.474   0.583  24.621  0.00  0.00    -0.380 OA
ATOM     27  C   UNL     1      -4.003  -0.506  25.403  0.00  0.00    +0.194 C 
ENDBRANCH  26   3
ENDBRANCH  24  26
ENDBRANCH   2  24
ENDBRANCH  21   2
ENDBRANCH  16  17
TORSDOF 6
ENDMDL
MODEL 8
REMARK VINA RESULT:       2.6      2.054      6.040
REMARK  Name = 45783723
REMARK  7 active torsions:
REMARK  status: ('A' for Active; 'I' for Inactive)
REMARK    1  A    between atoms: O_2  and  C_21
REMARK    2  A    between atoms: O_2  and  C_24
REMARK    3  A    between atoms: O_3  and  C_26
REMARK    4  A    between atoms: O_3  and  C_27
REMARK    5  A    between atoms: C_10  and  C_14
REMARK    6  A    between atoms: C_16  and  C_17
REMARK    7  A    between atoms: C_24  and  C_26
REMARK                            x       y       z     vdW  Elec       q    Type
REMARK                         _______ _______ _______ _____ _____    ______ ____
ROOT
ATOM      1  O   UNL     1       0.511   2.665  24.173  0.00  0.00    -0.336 OA
ATOM      5  N   UNL     1      -1.384   1.779  24.974  0.00  0.00    -0.190 NA
ATOM      8  N   UNL     1      -0.359   3.741  24.395  0.00  0.00    -0.056 NA
ATOM     14  C   UNL     1      -0.171   1.548  24.539  0.00  0.00    +0.248 A 
ATOM     16  C   UNL     1      -1.454   3.138  24.868  0.00  0.00    +0.207 A 
ENDROOT
BRANCH  14  10
ATOM      4  N   UNL     1      -0.227  -0.821  23.725  0.00  0.00    -0.288 N 
ATOM      6  N   UNL     1      -1.606  -1.169  25.560  0.00  0.00    -0.223 NA
ATOM      7  N   UNL     1      -1.710  -2.605  23.627  0.00  0.00    -0.223 NA
ATOM     10  C   UNL     1       0.565   0.227  24.391  0.00  0.00    +0.165 C 
ATOM     11  C   UNL     1       1.806   0.361  23.492  0.00  0.00    +0.034 C 
ATOM     12  C   UNL     1       1.299  -0.012  22.108  0.00  0.00    +0.021 C 
ATOM     13  C   UNL     1       0.294  -1.124  22.390  0.00  0.00    +0.109 C 
ATOM     15  C   UNL     1      -1.223  -1.564  24.330  0.00  0.00    +0.218 A 
ATOM     18  C   UNL     1      -2.680  -3.308  24.247  0.00  0.00    +0.116 A 
ATOM     19  C   UNL     1      -2.579  -1.916  26.121  0.00  0.00    +0.116 A 
ATOM     20  C   UNL     1      -3.160  -3.007  25.506  0.00  0.00    +0.039 A 
ENDBRANCH  14  10
BRANCH  16  17
ATOM      9  N   UNL     1      -4.968   4.376  24.881  0.00  0.00    -0.221 NA
ATOM     17  C   UNL     1      -2.634   3.863  25.241  0.00  0.00    +0.084 A 
ATOM     21  C   UNL     1      -3.833   3.714  24.564  0.00  0.00    +0.226 A 
ATOM     22  C   UNL     1      -2.597   4.748  26.312  0.00  0.00    +0.018 A 
ATOM     23  C   UNL     1      -3.745   5.447  26.670  0.00  0.00    +0.021 A 
ATOM     25  C   UNL     1      -4.895   5.228  25.928  0.00  0.00    +0.114 A 
BRANCH  21   2
ATOM      2  O   UNL     1      -3.920   2.854  23.499  0.00  0.00    -0.474 OA
BRANCH   2  24
ATOM     24  C   UNL     1      -4.884   1.813  23.595  0.00  0.00    +0.258 C 
BRANCH  24  26
ATOM     26  C   UNL     1      -4.291   0.660  24.382  0.00  0.00    +0.200 C 
BRANCH  26   3
ATOM      3  O   UNL     1      -4.996   0.524  25.609  0.00  0.00    -0.380 OA
ATOM     27  C   UNL     1      -6.122   1.390  25.661  0.00  0.00    +0.194 C 
ENDBRANCH  26   3
ENDBRANCH  24  26
ENDBRANCH   2  24
ENDBRANCH  21   2
ENDBRANCH  16  17
TORSDOF 6
ENDMDL
MODEL 9
REMARK VINA RESULT:       2.7      1.727      5.731
REMARK  Name = 45783723
REMARK  7 active torsions:
REMARK  status: ('A' for Active; 'I' for Inactive)
REMARK    1  A    between atoms: O_2  and  C_21
REMARK    2  A    between atoms: O_2  and  C_24
REMARK    3  A    between atoms: O_3  and  C_26
REMARK    4  A    between atoms: O_3  and  C_27
REMARK    5  A    between atoms: C_10  and  C_14
REMARK    6  A    between atoms: C_16  and  C_17
REMARK    7  A    between atoms: C_24  and  C_26
REMARK                            x       y       z     vdW  Elec       q    Type
REMARK                         _______ _______ _______ _____ _____    ______ ____
ROOT
ATOM      1  O   UNL     1      -5.144  -0.428  24.240  0.00  0.00    -0.336 OA
ATOM      5  N   UNL     1      -3.294   0.778  24.613  0.00  0.00    -0.190 NA
ATOM      8  N   UNL     1      -5.579   0.817  24.711  0.00  0.00    -0.056 NA
ATOM     14  C   UNL     1      -3.786  -0.368  24.213  0.00  0.00    +0.248 A 
ATOM     16  C   UNL     1      -4.431   1.472  24.908  0.00  0.00    +0.207 A 
ENDROOT
BRANCH  14  10
ATOM      4  N   UNL     1      -1.711  -1.767  24.293  0.00  0.00    -0.288 N 
ATOM      6  N   UNL     1      -0.802  -0.073  22.993  0.00  0.00    -0.223 NA
ATOM      7  N   UNL     1       0.592  -1.483  24.362  0.00  0.00    -0.223 NA
ATOM     10  C   UNL     1      -3.062  -1.613  23.731  0.00  0.00    +0.165 C 
ATOM     11  C   UNL     1      -3.781  -2.899  24.173  0.00  0.00    +0.034 C 
ATOM     12  C   UNL     1      -3.100  -3.271  25.480  0.00  0.00    +0.021 C 
ATOM     13  C   UNL     1      -1.644  -2.884  25.240  0.00  0.00    +0.109 C 
ATOM     15  C   UNL     1      -0.592  -1.078  23.864  0.00  0.00    +0.218 A 
ATOM     18  C   UNL     1       1.662  -0.789  23.922  0.00  0.00    +0.116 A 
ATOM     19  C   UNL     1       0.311   0.578  22.595  0.00  0.00    +0.116 A 
ATOM     20  C   UNL     1       1.582   0.261  23.030  0.00  0.00    +0.039 A 
ENDBRANCH  14  10
BRANCH  16  17
ATOM      9  N   UNL     1      -3.176   4.595  26.506  0.00  0.00    -0.221 NA
ATOM     17  C   UNL     1      -4.385   2.818  25.400  0.00  0.00    +0.084 A 
ATOM     21  C   UNL     1      -3.264   3.334  26.028  0.00  0.00    +0.226 A 
ATOM     22  C   UNL     1      -5.489   3.650  25.252  0.00  0.00    +0.018 A 
ATOM     23  C   UNL     1      -5.438   4.956  25.730  0.00  0.00    +0.021 A 
ATOM     25  C   UNL     1      -4.269   5.376  26.344  0.00  0.00    +0.114 A 
BRANCH  21   2
ATOM      2  O   UNL     1      -2.150   2.552  26.198  0.00  0.00    -0.474 OA
BRANCH   2  24
ATOM     24  C   UNL     1      -0.897   3.223  26.233  0.00  0.00    +0.258 C 
BRANCH  24  26
ATOM     26  C   UNL     1      -0.099   2.846  24.999  0.00  0.00    +0.200 C 
BRANCH  26   3
ATOM      3  O   UNL     1      -0.344   3.805  23.977  0.00  0.00    -0.380 OA
ATOM     27  C   UNL     1      -0.551   5.102  24.520  0.00  0.00    +0.194 C 
ENDBRANCH  26   3
ENDBRANCH  24  26
ENDBRANCH   2  24
ENDBRANCH  21   2
ENDBRANCH  16  17
TORSDOF 6
ENDMDL
