MODEL 1
REMARK VINA RESULT:       6.5      0.000      0.000
REMARK  Name = 45784039
REMARK  11 active torsions:
REMARK  status: ('A' for Active; 'I' for Inactive)
REMARK    1  A    between atoms: O_3  and  C_29
REMARK    2  A    between atoms: O_3  and  C_33
REMARK    3  A    between atoms: N_4  and  C_15
REMARK    4  A    between atoms: C_10  and  C_14
REMARK    5  A    between atoms: C_11  and  C_15
REMARK    6  A    between atoms: C_13  and  C_18
REMARK    7  A    between atoms: C_14  and  C_19
REMARK    8  A    between atoms: C_14  and  C_20
REMARK    9  A    between atoms: C_17  and  C_23
REMARK   10  A    between atoms: C_18  and  C_26
REMARK   11  A    between atoms: C_28  and  C_29
REMARK                            x       y       z     vdW  Elec       q    Type
REMARK                         _______ _______ _______ _____ _____    ______ ____
ROOT
ATOM     10  C   UNL     1      -2.969  -0.250  25.113  0.00  0.00    +0.000 C 
ATOM     11  C   UNL     1      -3.476  -0.085  23.661  0.00  0.00    +0.029 C 
ATOM     12  C   UNL     1      -3.143   1.060  25.894  0.00  0.00    +0.012 C 
ATOM     13  C   UNL     1      -4.598   1.574  25.913  0.00  0.00    +0.024 C 
ATOM     16  C   UNL     1      -4.788   0.651  23.585  0.00  0.00    -0.023 C 
ATOM     17  C   UNL     1      -5.312   1.387  24.583  0.00  0.00    -0.073 C 
ATOM     23  C   UNL     1      -6.673   2.010  24.431  0.00  0.00    +0.039 C 
ENDROOT
BRANCH  10  14
ATOM     14  C   UNL     1      -3.672  -1.415  25.822  0.00  0.00    -0.013 C 
ATOM     19  C   UNL     1      -3.642  -2.666  24.948  0.00  0.00    +0.007 C 
ATOM     20  C   UNL     1      -3.023  -1.684  27.175  0.00  0.00    +0.007 C 
ENDBRANCH  10  14
BRANCH  11  15
ATOM     15  C   UNL     1      -2.445   0.629  22.781  0.00  0.00    +0.092 C 
BRANCH  15   4
ATOM      4  N   UNL     1      -1.101   0.490  23.340  0.00  0.00    -0.299 NA
ATOM      5  N   UNL     1       1.737   0.179  23.259  0.00  0.00    -0.297 N 
ATOM      8  N   UNL     1       3.556  -1.218  23.702  0.00  0.00    -0.223 NA
ATOM      9  N   UNL     1       3.882   1.082  23.062  0.00  0.00    -0.223 NA
ATOM     21  C   UNL     1      -0.506  -0.790  22.935  0.00  0.00    +0.103 C 
ATOM     22  C   UNL     1      -0.244   1.599  22.905  0.00  0.00    +0.103 C 
ATOM     24  C   UNL     1       0.878  -0.973  23.561  0.00  0.00    +0.123 C 
ATOM     25  C   UNL     1       1.150   1.494  23.528  0.00  0.00    +0.123 C 
ATOM     27  C   UNL     1       3.123   0.006  23.345  0.00  0.00    +0.218 A 
ATOM     30  C   UNL     1       4.896  -1.350  23.775  0.00  0.00    +0.116 A 
ATOM     31  C   UNL     1       5.212   0.880  23.155  0.00  0.00    +0.116 A 
ATOM     32  C   UNL     1       5.783  -0.325  23.510  0.00  0.00    +0.039 A 
ENDBRANCH  15   4
ENDBRANCH  11  15
BRANCH  13  18
ATOM     18  C   UNL     1      -4.597   3.032  26.389  0.00  0.00    +0.105 C 
BRANCH  18  26
ATOM      2  O   UNL     1      -2.202   3.448  26.172  0.00  0.00    -0.421 OA
ATOM      6  N   UNL     1      -3.483   4.796  24.928  0.00  0.00    -0.112 NA
ATOM      7  N   UNL     1      -2.161   5.139  24.709  0.00  0.00    -0.109 NA
ATOM     26  C   UNL     1      -3.459   3.805  25.787  0.00  0.00    +0.218 A 
ATOM     28  C   UNL     1      -1.450   4.326  25.455  0.00  0.00    +0.254 A 
BRANCH  28  29
ATOM     29  C   UNL     1       0.006   4.237  25.614  0.00  0.00    +0.326 C 
BRANCH  29   3
ATOM      3  O   UNL     1       0.386   2.900  25.956  0.00  0.00    -0.483 OA
BRANCH   3  33
ATOM      1  F   UNL     1       2.296   2.123  31.051  0.00  0.00    -0.205 F 
ATOM     33  C   UNL     1       0.862   2.707  27.222  0.00  0.00    +0.121 A 
ATOM     34  C   UNL     1       2.178   3.048  27.534  0.00  0.00    +0.048 A 
ATOM     35  C   UNL     1       0.029   2.170  28.204  0.00  0.00    +0.048 A 
ATOM     36  C   UNL     1       2.663   2.850  28.827  0.00  0.00    +0.042 A 
ATOM     37  C   UNL     1       0.513   1.974  29.498  0.00  0.00    +0.042 A 
ATOM     38  C   UNL     1       1.830   2.313  29.809  0.00  0.00    +0.124 A 
ENDBRANCH   3  33
ENDBRANCH  29   3
ENDBRANCH  28  29
ENDBRANCH  18  26
ENDBRANCH  13  18
TORSDOF 8
ENDMDL
MODEL 2
REMARK VINA RESULT:       6.7      2.722      4.915
REMARK  Name = 45784039
REMARK  11 active torsions:
REMARK  status: ('A' for Active; 'I' for Inactive)
REMARK    1  A    between atoms: O_3  and  C_29
REMARK    2  A    between atoms: O_3  and  C_33
REMARK    3  A    between atoms: N_4  and  C_15
REMARK    4  A    between atoms: C_10  and  C_14
REMARK    5  A    between atoms: C_11  and  C_15
REMARK    6  A    between atoms: C_13  and  C_18
REMARK    7  A    between atoms: C_14  and  C_19
REMARK    8  A    between atoms: C_14  and  C_20
REMARK    9  A    between atoms: C_17  and  C_23
REMARK   10  A    between atoms: C_18  and  C_26
REMARK   11  A    between atoms: C_28  and  C_29
REMARK                            x       y       z     vdW  Elec       q    Type
REMARK                         _______ _______ _______ _____ _____    ______ ____
ROOT
ATOM     10  C   UNL     1      -1.971   4.484  23.760  0.00  0.00    +0.000 C 
ATOM     11  C   UNL     1      -1.352   3.335  24.590  0.00  0.00    +0.029 C 
ATOM     12  C   UNL     1      -3.492   4.534  23.963  0.00  0.00    +0.012 C 
ATOM     13  C   UNL     1      -3.908   4.686  25.442  0.00  0.00    +0.024 C 
ATOM     16  C   UNL     1      -1.913   3.262  25.987  0.00  0.00    -0.023 C 
ATOM     17  C   UNL     1      -3.045   3.867  26.390  0.00  0.00    -0.073 C 
ATOM     23  C   UNL     1      -3.469   3.800  27.832  0.00  0.00    +0.039 C 
ENDROOT
BRANCH  10  14
ATOM     14  C   UNL     1      -1.323   5.832  24.099  0.00  0.00    -0.013 C 
ATOM     19  C   UNL     1      -2.233   6.646  25.013  0.00  0.00    +0.007 C 
ATOM     20  C   UNL     1       0.042   5.618  24.747  0.00  0.00    +0.007 C 
ENDBRANCH  10  14
BRANCH  11  15
ATOM     15  C   UNL     1      -1.535   1.978  23.902  0.00  0.00    +0.092 C 
BRANCH  15   4
ATOM      4  N   UNL     1      -0.259   1.484  23.385  0.00  0.00    -0.299 NA
ATOM      5  N   UNL     1       2.373   0.386  23.554  0.00  0.00    -0.297 N 
ATOM      8  N   UNL     1       4.659   0.756  23.257  0.00  0.00    -0.223 NA
ATOM      9  N   UNL     1       3.809  -1.448  23.731  0.00  0.00    -0.223 NA
ATOM     21  C   UNL     1       0.853   2.295  23.898  0.00  0.00    +0.103 C 
ATOM     22  C   UNL     1      -0.063   0.078  23.755  0.00  0.00    +0.103 C 
ATOM     24  C   UNL     1       2.188   1.824  23.320  0.00  0.00    +0.123 C 
ATOM     25  C   UNL     1       1.243  -0.468  23.174  0.00  0.00    +0.123 C 
ATOM     27  C   UNL     1       3.674  -0.125  23.512  0.00  0.00    +0.218 A 
ATOM     30  C   UNL     1       5.901   0.230  23.225  0.00  0.00    +0.116 A 
ATOM     31  C   UNL     1       5.076  -1.907  23.683  0.00  0.00    +0.116 A 
ATOM     32  C   UNL     1       6.172  -1.108  23.432  0.00  0.00    +0.039 A 
ENDBRANCH  15   4
ENDBRANCH  11  15
BRANCH  13  18
ATOM     18  C   UNL     1      -5.402   4.364  25.566  0.00  0.00    +0.105 C 
BRANCH  18  26
ATOM      2  O   UNL     1      -5.038   2.173  24.555  0.00  0.00    -0.421 OA
ATOM      6  N   UNL     1      -6.376   2.144  26.347  0.00  0.00    -0.112 NA
ATOM      7  N   UNL     1      -6.258   0.847  25.880  0.00  0.00    -0.109 NA
ATOM     26  C   UNL     1      -5.648   2.883  25.544  0.00  0.00    +0.218 A 
ATOM     28  C   UNL     1      -5.468   0.913  24.834  0.00  0.00    +0.254 A 
BRANCH  28  29
ATOM     29  C   UNL     1      -4.997  -0.160  23.950  0.00  0.00    +0.326 C 
BRANCH  29   3
ATOM      3  O   UNL     1      -4.733  -1.345  24.706  0.00  0.00    -0.483 OA
BRANCH   3  33
ATOM      1  F   UNL     1       0.534  -2.367  25.899  0.00  0.00    -0.205 F 
ATOM     33  C   UNL     1      -3.423  -1.600  25.003  0.00  0.00    +0.121 A 
ATOM     34  C   UNL     1      -2.736  -2.605  24.322  0.00  0.00    +0.048 A 
ATOM     35  C   UNL     1      -2.773  -0.854  25.986  0.00  0.00    +0.048 A 
ATOM     36  C   UNL     1      -1.399  -2.864  24.624  0.00  0.00    +0.042 A 
ATOM     37  C   UNL     1      -1.437  -1.112  26.288  0.00  0.00    +0.042 A 
ATOM     38  C   UNL     1      -0.749  -2.118  25.608  0.00  0.00    +0.124 A 
ENDBRANCH   3  33
ENDBRANCH  29   3
ENDBRANCH  28  29
ENDBRANCH  18  26
ENDBRANCH  13  18
TORSDOF 8
ENDMDL
MODEL 3
REMARK VINA RESULT:       6.9      2.071      3.160
REMARK  Name = 45784039
REMARK  11 active torsions:
REMARK  status: ('A' for Active; 'I' for Inactive)
REMARK    1  A    between atoms: O_3  and  C_29
REMARK    2  A    between atoms: O_3  and  C_33
REMARK    3  A    between atoms: N_4  and  C_15
REMARK    4  A    between atoms: C_10  and  C_14
REMARK    5  A    between atoms: C_11  and  C_15
REMARK    6  A    between atoms: C_13  and  C_18
REMARK    7  A    between atoms: C_14  and  C_19
REMARK    8  A    between atoms: C_14  and  C_20
REMARK    9  A    between atoms: C_17  and  C_23
REMARK   10  A    between atoms: C_18  and  C_26
REMARK   11  A    between atoms: C_28  and  C_29
REMARK                            x       y       z     vdW  Elec       q    Type
REMARK                         _______ _______ _______ _____ _____    ______ ____
ROOT
ATOM     10  C   UNL     1      -1.854   0.065  25.407  0.00  0.00    +0.000 C 
ATOM     11  C   UNL     1      -1.602  -0.494  23.987  0.00  0.00    +0.029 C 
ATOM     12  C   UNL     1      -3.280   0.622  25.520  0.00  0.00    +0.012 C 
ATOM     13  C   UNL     1      -4.371  -0.414  25.173  0.00  0.00    +0.024 C 
ATOM     16  C   UNL     1      -2.757  -1.314  23.473  0.00  0.00    -0.023 C 
ATOM     17  C   UNL     1      -3.997  -1.301  23.996  0.00  0.00    -0.073 C 
ATOM     23  C   UNL     1      -5.055  -2.226  23.459  0.00  0.00    +0.039 C 
ENDROOT
BRANCH  10  14
ATOM     14  C   UNL     1      -1.588  -0.997  26.481  0.00  0.00    -0.013 C 
ATOM     19  C   UNL     1      -2.897  -1.635  26.936  0.00  0.00    +0.007 C 
ATOM     20  C   UNL     1      -0.624  -2.056  25.955  0.00  0.00    +0.007 C 
ENDBRANCH  10  14
BRANCH  11  15
ATOM     15  C   UNL     1      -1.293   0.625  22.986  0.00  0.00    +0.092 C 
BRANCH  15   4
ATOM      4  N   UNL     1       0.142   0.693  22.713  0.00  0.00    -0.299 NA
ATOM      5  N   UNL     1       2.915   0.215  23.203  0.00  0.00    -0.297 N 
ATOM      8  N   UNL     1       4.986   1.150  23.742  0.00  0.00    -0.223 NA
ATOM      9  N   UNL     1       4.800  -1.158  23.077  0.00  0.00    -0.223 NA
ATOM     21  C   UNL     1       0.839   1.404  23.791  0.00  0.00    +0.103 C 
ATOM     22  C   UNL     1       0.702  -0.655  22.561  0.00  0.00    +0.103 C 
ATOM     24  C   UNL     1       2.333   1.532  23.489  0.00  0.00    +0.123 C 
ATOM     25  C   UNL     1       2.193  -0.597  22.219  0.00  0.00    +0.123 C 
ATOM     27  C   UNL     1       4.298   0.062  23.347  0.00  0.00    +0.218 A 
ATOM     30  C   UNL     1       6.316   0.968  23.872  0.00  0.00    +0.116 A 
ATOM     31  C   UNL     1       6.136  -1.270  23.226  0.00  0.00    +0.116 A 
ATOM     32  C   UNL     1       6.953  -0.232  23.625  0.00  0.00    +0.039 A 
ENDBRANCH  15   4
ENDBRANCH  11  15
BRANCH  13  18
ATOM     18  C   UNL     1      -5.699   0.324  24.965  0.00  0.00    +0.105 C 
BRANCH  18  26
ATOM      2  O   UNL     1      -4.762   2.436  24.179  0.00  0.00    -0.421 OA
ATOM      6  N   UNL     1      -6.019   2.621  26.021  0.00  0.00    -0.112 NA
ATOM      7  N   UNL     1      -5.557   3.881  25.689  0.00  0.00    -0.109 NA
ATOM     26  C   UNL     1      -5.531   1.809  25.112  0.00  0.00    +0.218 A 
ATOM     28  C   UNL     1      -4.828   3.725  24.609  0.00  0.00    +0.254 A 
BRANCH  28  29
ATOM     29  C   UNL     1      -4.098   4.725  23.822  0.00  0.00    +0.326 C 
BRANCH  29   3
ATOM      3  O   UNL     1      -3.153   5.413  24.647  0.00  0.00    -0.483 OA
BRANCH   3  33
ATOM      1  F   UNL     1       0.845   2.359  26.861  0.00  0.00    -0.205 F 
ATOM     33  C   UNL     1      -2.159   4.653  25.198  0.00  0.00    +0.121 A 
ATOM     34  C   UNL     1      -2.411   3.899  26.344  0.00  0.00    +0.048 A 
ATOM     35  C   UNL     1      -0.893   4.633  24.614  0.00  0.00    +0.048 A 
ATOM     36  C   UNL     1      -1.396   3.124  26.905  0.00  0.00    +0.042 A 
ATOM     37  C   UNL     1       0.122   3.857  25.174  0.00  0.00    +0.042 A 
ATOM     38  C   UNL     1      -0.130   3.103  26.321  0.00  0.00    +0.124 A 
ENDBRANCH   3  33
ENDBRANCH  29   3
ENDBRANCH  28  29
ENDBRANCH  18  26
ENDBRANCH  13  18
TORSDOF 8
ENDMDL
MODEL 4
REMARK VINA RESULT:       6.9      2.727      5.650
REMARK  Name = 45784039
REMARK  11 active torsions:
REMARK  status: ('A' for Active; 'I' for Inactive)
REMARK    1  A    between atoms: O_3  and  C_29
REMARK    2  A    between atoms: O_3  and  C_33
REMARK    3  A    between atoms: N_4  and  C_15
REMARK    4  A    between atoms: C_10  and  C_14
REMARK    5  A    between atoms: C_11  and  C_15
REMARK    6  A    between atoms: C_13  and  C_18
REMARK    7  A    between atoms: C_14  and  C_19
REMARK    8  A    between atoms: C_14  and  C_20
REMARK    9  A    between atoms: C_17  and  C_23
REMARK   10  A    between atoms: C_18  and  C_26
REMARK   11  A    between atoms: C_28  and  C_29
REMARK                            x       y       z     vdW  Elec       q    Type
REMARK                         _______ _______ _______ _____ _____    ______ ____
ROOT
ATOM     10  C   UNL     1      -2.961   2.801  22.916  0.00  0.00    +0.000 C 
ATOM     11  C   UNL     1      -3.864   3.834  23.630  0.00  0.00    +0.029 C 
ATOM     12  C   UNL     1      -2.743   1.570  23.808  0.00  0.00    +0.012 C 
ATOM     13  C   UNL     1      -4.058   0.889  24.244  0.00  0.00    +0.024 C 
ATOM     16  C   UNL     1      -5.048   3.196  24.311  0.00  0.00    -0.023 C 
ATOM     17  C   UNL     1      -5.159   1.883  24.583  0.00  0.00    -0.073 C 
ATOM     23  C   UNL     1      -6.425   1.339  25.188  0.00  0.00    +0.039 C 
ENDROOT
BRANCH  10  14
ATOM     14  C   UNL     1      -3.539   2.401  21.553  0.00  0.00    -0.013 C 
ATOM     19  C   UNL     1      -4.025   3.635  20.798  0.00  0.00    +0.007 C 
ATOM     20  C   UNL     1      -2.499   1.642  20.735  0.00  0.00    +0.007 C 
ENDBRANCH  10  14
BRANCH  11  15
ATOM     15  C   UNL     1      -3.078   4.659  24.654  0.00  0.00    +0.092 C 
BRANCH  15   4
ATOM      4  N   UNL     1      -2.065   3.836  25.314  0.00  0.00    -0.299 NA
ATOM      5  N   UNL     1      -0.069   3.223  27.263  0.00  0.00    -0.297 N 
ATOM      8  N   UNL     1       2.196   2.831  27.672  0.00  0.00    -0.223 NA
ATOM      9  N   UNL     1       0.542   2.461  29.385  0.00  0.00    -0.223 NA
ATOM     21  C   UNL     1      -0.755   4.497  25.269  0.00  0.00    +0.103 C 
ATOM     22  C   UNL     1      -2.443   3.572  26.708  0.00  0.00    +0.103 C 
ATOM     24  C   UNL     1       0.324   3.621  25.906  0.00  0.00    +0.123 C 
ATOM     25  C   UNL     1      -1.419   2.666  27.394  0.00  0.00    +0.123 C 
ATOM     27  C   UNL     1       0.937   2.819  28.148  0.00  0.00    +0.218 A 
ATOM     30  C   UNL     1       3.141   2.437  28.551  0.00  0.00    +0.116 A 
ATOM     31  C   UNL     1       1.537   2.077  30.211  0.00  0.00    +0.116 A 
ATOM     32  C   UNL     1       2.867   2.045  29.847  0.00  0.00    +0.039 A 
ENDBRANCH  15   4
ENDBRANCH  11  15
BRANCH  13  18
ATOM     18  C   UNL     1      -3.752  -0.076  25.396  0.00  0.00    +0.105 C 
BRANCH  18  26
ATOM      2  O   UNL     1      -1.756  -0.636  24.108  0.00  0.00    -0.421 OA
ATOM      6  N   UNL     1      -1.539  -0.944  26.313  0.00  0.00    -0.112 NA
ATOM      7  N   UNL     1      -0.344  -1.296  25.712  0.00  0.00    -0.109 NA
ATOM     26  C   UNL     1      -2.333  -0.565  25.339  0.00  0.00    +0.218 A 
ATOM     28  C   UNL     1      -0.517  -1.101  24.426  0.00  0.00    +0.254 A 
BRANCH  28  29
ATOM     29  C   UNL     1       0.419  -1.306  23.315  0.00  0.00    +0.326 C 
BRANCH  29   3
ATOM      3  O   UNL     1       1.087  -0.082  22.996  0.00  0.00    -0.483 OA
BRANCH   3  33
ATOM      1  F   UNL     1       6.561  -0.073  23.495  0.00  0.00    -0.205 F 
ATOM     33  C   UNL     1       2.448  -0.080  23.120  0.00  0.00    +0.121 A 
ATOM     34  C   UNL     1       3.108  -1.215  23.592  0.00  0.00    +0.048 A 
ATOM     35  C   UNL     1       3.178   1.058  22.775  0.00  0.00    +0.048 A 
ATOM     36  C   UNL     1       4.497  -1.213  23.718  0.00  0.00    +0.042 A 
ATOM     37  C   UNL     1       4.567   1.060  22.900  0.00  0.00    +0.042 A 
ATOM     38  C   UNL     1       5.226  -0.075  23.373  0.00  0.00    +0.124 A 
ENDBRANCH   3  33
ENDBRANCH  29   3
ENDBRANCH  28  29
ENDBRANCH  18  26
ENDBRANCH  13  18
TORSDOF 8
ENDMDL
MODEL 5
REMARK VINA RESULT:       7.6      2.763      4.893
REMARK  Name = 45784039
REMARK  11 active torsions:
REMARK  status: ('A' for Active; 'I' for Inactive)
REMARK    1  A    between atoms: O_3  and  C_29
REMARK    2  A    between atoms: O_3  and  C_33
REMARK    3  A    between atoms: N_4  and  C_15
REMARK    4  A    between atoms: C_10  and  C_14
REMARK    5  A    between atoms: C_11  and  C_15
REMARK    6  A    between atoms: C_13  and  C_18
REMARK    7  A    between atoms: C_14  and  C_19
REMARK    8  A    between atoms: C_14  and  C_20
REMARK    9  A    between atoms: C_17  and  C_23
REMARK   10  A    between atoms: C_18  and  C_26
REMARK   11  A    between atoms: C_28  and  C_29
REMARK                            x       y       z     vdW  Elec       q    Type
REMARK                         _______ _______ _______ _____ _____    ______ ____
ROOT
ATOM     10  C   UNL     1      -4.060   2.404  25.111  0.00  0.00    +0.000 C 
ATOM     11  C   UNL     1      -3.964   2.973  23.676  0.00  0.00    +0.029 C 
ATOM     12  C   UNL     1      -2.727   2.583  25.850  0.00  0.00    +0.012 C 
ATOM     13  C   UNL     1      -2.252   4.051  25.909  0.00  0.00    +0.024 C 
ATOM     16  C   UNL     1      -3.267   4.308  23.627  0.00  0.00    -0.023 C 
ATOM     17  C   UNL     1      -2.509   4.812  24.618  0.00  0.00    -0.073 C 
ATOM     23  C   UNL     1      -1.928   6.195  24.500  0.00  0.00    +0.039 C 
ENDROOT
BRANCH  10  14
ATOM     14  C   UNL     1      -5.216   3.045  25.890  0.00  0.00    -0.013 C 
ATOM     19  C   UNL     1      -5.804   4.214  25.105  0.00  0.00    +0.007 C 
ATOM     20  C   UNL     1      -6.290   2.006  26.200  0.00  0.00    +0.007 C 
ENDBRANCH  10  14
BRANCH  11  15
ATOM     15  C   UNL     1      -3.256   1.999  22.728  0.00  0.00    +0.092 C 
BRANCH  15   4
ATOM      4  N   UNL     1      -1.952   1.612  23.264  0.00  0.00    -0.299 NA
ATOM      5  N   UNL     1       0.801   0.858  23.136  0.00  0.00    -0.297 N 
ATOM      8  N   UNL     1       2.372  -0.836  23.473  0.00  0.00    -0.223 NA
ATOM      9  N   UNL     1       3.062   1.418  22.975  0.00  0.00    -0.223 NA
ATOM     21  C   UNL     1      -1.568   0.282  22.775  0.00  0.00    +0.103 C 
ATOM     22  C   UNL     1      -0.928   2.595  22.891  0.00  0.00    +0.103 C 
ATOM     24  C   UNL     1      -0.232  -0.159  23.374  0.00  0.00    +0.123 C 
ATOM     25  C   UNL     1       0.431   2.231  23.493  0.00  0.00    +0.123 C 
ATOM     27  C   UNL     1       2.141   0.461  23.198  0.00  0.00    +0.218 A 
ATOM     30  C   UNL     1       3.675  -1.184  23.525  0.00  0.00    +0.116 A 
ATOM     31  C   UNL     1       4.343   1.002  23.042  0.00  0.00    +0.116 A 
ATOM     32  C   UNL     1       4.714  -0.299  23.315  0.00  0.00    +0.039 A 
ENDBRANCH  15   4
ENDBRANCH  11  15
BRANCH  13  18
ATOM     18  C   UNL     1      -0.778   4.072  26.332  0.00  0.00    +0.105 C 
BRANCH  18  26
ATOM      2  O   UNL     1      -0.848   1.634  26.246  0.00  0.00    -0.421 OA
ATOM      6  N   UNL     1       0.477   2.457  27.850  0.00  0.00    -0.112 NA
ATOM      7  N   UNL     1       0.532   1.076  27.916  0.00  0.00    -0.109 NA
ATOM     26  C   UNL     1      -0.340   2.737  26.862  0.00  0.00    +0.218 A 
ATOM     28  C   UNL     1      -0.256   0.639  26.962  0.00  0.00    +0.254 A 
BRANCH  28  29
ATOM     29  C   UNL     1      -0.575  -0.739  26.570  0.00  0.00    +0.326 C 
BRANCH  29   3
ATOM      3  O   UNL     1      -1.948  -1.029  26.849  0.00  0.00    -0.483 OA
BRANCH   3  33
ATOM      1  F   UNL     1      -4.984  -2.804  22.626  0.00  0.00    -0.205 F 
ATOM     33  C   UNL     1      -2.702  -1.471  25.799  0.00  0.00    +0.121 A 
ATOM     34  C   UNL     1      -2.366  -2.657  25.148  0.00  0.00    +0.048 A 
ATOM     35  C   UNL     1      -3.810  -0.734  25.379  0.00  0.00    +0.048 A 
ATOM     36  C   UNL     1      -3.136  -3.108  24.076  0.00  0.00    +0.042 A 
ATOM     37  C   UNL     1      -4.582  -1.185  24.308  0.00  0.00    +0.042 A 
ATOM     38  C   UNL     1      -4.244  -2.372  23.656  0.00  0.00    +0.124 A 
ENDBRANCH   3  33
ENDBRANCH  29   3
ENDBRANCH  28  29
ENDBRANCH  18  26
ENDBRANCH  13  18
TORSDOF 8
ENDMDL
MODEL 6
REMARK VINA RESULT:       7.8      1.863      2.375
REMARK  Name = 45784039
REMARK  11 active torsions:
REMARK  status: ('A' for Active; 'I' for Inactive)
REMARK    1  A    between atoms: O_3  and  C_29
REMARK    2  A    between atoms: O_3  and  C_33
REMARK    3  A    between atoms: N_4  and  C_15
REMARK    4  A    between atoms: C_10  and  C_14
REMARK    5  A    between atoms: C_11  and  C_15
REMARK    6  A    between atoms: C_13  and  C_18
REMARK    7  A    between atoms: C_14  and  C_19
REMARK    8  A    between atoms: C_14  and  C_20
REMARK    9  A    between atoms: C_17  and  C_23
REMARK   10  A    between atoms: C_18  and  C_26
REMARK   11  A    between atoms: C_28  and  C_29
REMARK                            x       y       z     vdW  Elec       q    Type
REMARK                         _______ _______ _______ _____ _____    ______ ____
ROOT
ATOM     10  C   UNL     1      -3.090  -0.569  24.936  0.00  0.00    +0.000 C 
ATOM     11  C   UNL     1      -3.364   0.011  23.528  0.00  0.00    +0.029 C 
ATOM     12  C   UNL     1      -3.735   0.312  26.015  0.00  0.00    +0.012 C 
ATOM     13  C   UNL     1      -5.255   0.501  25.823  0.00  0.00    +0.024 C 
ATOM     16  C   UNL     1      -4.791   0.464  23.355  0.00  0.00    -0.023 C 
ATOM     17  C   UNL     1      -5.654   0.676  24.365  0.00  0.00    -0.073 C 
ATOM     23  C   UNL     1      -7.084   1.043  24.076  0.00  0.00    +0.039 C 
ENDROOT
BRANCH  10  14
ATOM     14  C   UNL     1      -3.571  -2.021  25.046  0.00  0.00    -0.013 C 
ATOM     19  C   UNL     1      -4.243  -2.459  23.747  0.00  0.00    +0.007 C 
ATOM     20  C   UNL     1      -2.406  -2.944  25.389  0.00  0.00    +0.007 C 
ENDBRANCH  10  14
BRANCH  11  15
ATOM     15  C   UNL     1      -2.423   1.176  23.204  0.00  0.00    +0.092 C 
BRANCH  15   4
ATOM      4  N   UNL     1      -1.067   0.893  23.675  0.00  0.00    -0.299 NA
ATOM      5  N   UNL     1       1.714   0.300  23.410  0.00  0.00    -0.297 N 
ATOM      8  N   UNL     1       3.406  -1.279  23.724  0.00  0.00    -0.223 NA
ATOM      9  N   UNL     1       3.923   0.985  23.084  0.00  0.00    -0.223 NA
ATOM     21  C   UNL     1      -0.631  -0.433  23.222  0.00  0.00    +0.103 C 
ATOM     22  C   UNL     1      -0.131   1.917  23.196  0.00  0.00    +0.103 C 
ATOM     24  C   UNL     1       0.763  -0.765  23.756  0.00  0.00    +0.123 C 
ATOM     25  C   UNL     1       1.281   1.664  23.728  0.00  0.00    +0.123 C 
ATOM     27  C   UNL     1       3.078  -0.013  23.407  0.00  0.00    +0.218 A 
ATOM     30  C   UNL     1       4.728  -1.546  23.711  0.00  0.00    +0.116 A 
ATOM     31  C   UNL     1       5.229   0.650  23.091  0.00  0.00    +0.116 A 
ATOM     32  C   UNL     1       5.696  -0.612  23.398  0.00  0.00    +0.039 A 
ENDBRANCH  15   4
ENDBRANCH  11  15
BRANCH  13  18
ATOM     18  C   UNL     1      -5.721   1.660  26.712  0.00  0.00    +0.105 C 
BRANCH  18  26
ATOM      2  O   UNL     1      -4.552   3.146  25.170  0.00  0.00    -0.421 OA
ATOM      6  N   UNL     1      -6.421   4.015  26.040  0.00  0.00    -0.112 NA
ATOM      7  N   UNL     1      -5.866   4.956  25.191  0.00  0.00    -0.109 NA
ATOM     26  C   UNL     1      -5.621   2.976  25.996  0.00  0.00    +0.218 A 
ATOM     28  C   UNL     1      -4.778   4.406  24.706  0.00  0.00    +0.254 A 
BRANCH  28  29
ATOM     29  C   UNL     1      -3.800   4.948  23.756  0.00  0.00    +0.326 C 
BRANCH  29   3
ATOM      3  O   UNL     1      -2.729   5.586  24.457  0.00  0.00    -0.483 OA
BRANCH   3  33
ATOM      1  F   UNL     1       0.831   2.279  27.026  0.00  0.00    -0.205 F 
ATOM     33  C   UNL     1      -1.843   4.764  25.096  0.00  0.00    +0.121 A 
ATOM     34  C   UNL     1      -0.476   4.880  24.842  0.00  0.00    +0.048 A 
ATOM     35  C   UNL     1      -2.307   3.810  26.001  0.00  0.00    +0.048 A 
ATOM     36  C   UNL     1       0.427   4.040  25.494  0.00  0.00    +0.042 A 
ATOM     37  C   UNL     1      -1.404   2.971  26.654  0.00  0.00    +0.042 A 
ATOM     38  C   UNL     1      -0.036   3.086  26.400  0.00  0.00    +0.124 A 
ENDBRANCH   3  33
ENDBRANCH  29   3
ENDBRANCH  28  29
ENDBRANCH  18  26
ENDBRANCH  13  18
TORSDOF 8
ENDMDL
MODEL 7
REMARK VINA RESULT:       9.1      2.814      6.529
REMARK  Name = 45784039
REMARK  11 active torsions:
REMARK  status: ('A' for Active; 'I' for Inactive)
REMARK    1  A    between atoms: O_3  and  C_29
REMARK    2  A    between atoms: O_3  and  C_33
REMARK    3  A    between atoms: N_4  and  C_15
REMARK    4  A    between atoms: C_10  and  C_14
REMARK    5  A    between atoms: C_11  and  C_15
REMARK    6  A    between atoms: C_13  and  C_18
REMARK    7  A    between atoms: C_14  and  C_19
REMARK    8  A    between atoms: C_14  and  C_20
REMARK    9  A    between atoms: C_17  and  C_23
REMARK   10  A    between atoms: C_18  and  C_26
REMARK   11  A    between atoms: C_28  and  C_29
REMARK                            x       y       z     vdW  Elec       q    Type
REMARK                         _______ _______ _______ _____ _____    ______ ____
ROOT
ATOM     10  C   UNL     1      -2.561   4.978  25.669  0.00  0.00    +0.000 C 
ATOM     11  C   UNL     1      -3.715   4.572  24.723  0.00  0.00    +0.029 C 
ATOM     12  C   UNL     1      -1.847   3.731  26.212  0.00  0.00    +0.012 C 
ATOM     13  C   UNL     1      -1.302   2.806  25.102  0.00  0.00    +0.024 C 
ATOM     16  C   UNL     1      -3.323   3.472  23.769  0.00  0.00    -0.023 C 
ATOM     17  C   UNL     1      -2.244   2.682  23.915  0.00  0.00    -0.073 C 
ATOM     23  C   UNL     1      -1.898   1.670  22.856  0.00  0.00    +0.039 C 
ENDROOT
BRANCH  10  14
ATOM     14  C   UNL     1      -1.572   5.922  24.973  0.00  0.00    -0.013 C 
ATOM     19  C   UNL     1      -0.311   5.167  24.565  0.00  0.00    +0.007 C 
ATOM     20  C   UNL     1      -2.226   6.578  23.761  0.00  0.00    +0.007 C 
ENDBRANCH  10  14
BRANCH  11  15
ATOM     15  C   UNL     1      -4.961   4.143  25.503  0.00  0.00    +0.092 C 
BRANCH  15   4
ATOM      4  N   UNL     1      -5.155   2.696  25.414  0.00  0.00    -0.299 NA
ATOM      5  N   UNL     1      -4.393  -0.011  24.913  0.00  0.00    -0.297 N 
ATOM      8  N   UNL     1      -4.660  -1.887  23.547  0.00  0.00    -0.223 NA
ATOM      9  N   UNL     1      -3.413  -2.014  25.605  0.00  0.00    -0.223 NA
ATOM     21  C   UNL     1      -4.932   2.230  24.040  0.00  0.00    +0.103 C 
ATOM     22  C   UNL     1      -4.248   1.997  26.332  0.00  0.00    +0.103 C 
ATOM     24  C   UNL     1      -5.187   0.727  23.922  0.00  0.00    +0.123 C 
ATOM     25  C   UNL     1      -4.480   0.485  26.289  0.00  0.00    +0.123 C 
ATOM     27  C   UNL     1      -4.144  -1.367  24.677  0.00  0.00    +0.218 A 
ATOM     30  C   UNL     1      -4.400  -3.196  23.352  0.00  0.00    +0.116 A 
ATOM     31  C   UNL     1      -3.192  -3.319  25.347  0.00  0.00    +0.116 A 
ATOM     32  C   UNL     1      -3.664  -3.971  24.226  0.00  0.00    +0.039 A 
ENDBRANCH  15   4
ENDBRANCH  11  15
BRANCH  13  18
ATOM     18  C   UNL     1      -0.945   1.452  25.726  0.00  0.00    +0.105 C 
BRANCH  18  26
ATOM      2  O   UNL     1       0.369   0.879  23.750  0.00  0.00    -0.421 OA
ATOM      6  N   UNL     1      -0.916  -0.787  24.510  0.00  0.00    -0.112 NA
ATOM      7  N   UNL     1      -0.233  -1.246  23.398  0.00  0.00    -0.109 NA
ATOM     26  C   UNL     1      -0.534   0.457  24.678  0.00  0.00    +0.218 A 
ATOM     28  C   UNL     1       0.505  -0.241  22.989  0.00  0.00    +0.254 A 
BRANCH  28  29
ATOM     29  C   UNL     1       1.432  -0.163  21.855  0.00  0.00    +0.326 C 
BRANCH  29   3
ATOM      3  O   UNL     1       2.494   0.752  22.144  0.00  0.00    -0.483 OA
BRANCH   3  33
ATOM      1  F   UNL     1       6.746  -1.252  24.993  0.00  0.00    -0.205 F 
ATOM     33  C   UNL     1       3.551   0.253  22.853  0.00  0.00    +0.121 A 
ATOM     34  C   UNL     1       3.533  -1.070  23.294  0.00  0.00    +0.048 A 
ATOM     35  C   UNL     1       4.648   1.067  23.134  0.00  0.00    +0.048 A 
ATOM     36  C   UNL     1       4.613  -1.579  24.017  0.00  0.00    +0.042 A 
ATOM     37  C   UNL     1       5.727   0.559  23.855  0.00  0.00    +0.042 A 
ATOM     38  C   UNL     1       5.709  -0.764  24.298  0.00  0.00    +0.124 A 
ENDBRANCH   3  33
ENDBRANCH  29   3
ENDBRANCH  28  29
ENDBRANCH  18  26
ENDBRANCH  13  18
TORSDOF 8
ENDMDL
MODEL 8
REMARK VINA RESULT:       9.3      2.513      3.671
REMARK  Name = 45784039
REMARK  11 active torsions:
REMARK  status: ('A' for Active; 'I' for Inactive)
REMARK    1  A    between atoms: O_3  and  C_29
REMARK    2  A    between atoms: O_3  and  C_33
REMARK    3  A    between atoms: N_4  and  C_15
REMARK    4  A    between atoms: C_10  and  C_14
REMARK    5  A    between atoms: C_11  and  C_15
REMARK    6  A    between atoms: C_13  and  C_18
REMARK    7  A    between atoms: C_14  and  C_19
REMARK    8  A    between atoms: C_14  and  C_20
REMARK    9  A    between atoms: C_17  and  C_23
REMARK   10  A    between atoms: C_18  and  C_26
REMARK   11  A    between atoms: C_28  and  C_29
REMARK                            x       y       z     vdW  Elec       q    Type
REMARK                         _______ _______ _______ _____ _____    ______ ____
ROOT
ATOM     10  C   UNL     1      -1.558  -0.006  24.998  0.00  0.00    +0.000 C 
ATOM     11  C   UNL     1      -1.318  -0.876  23.742  0.00  0.00    +0.029 C 
ATOM     12  C   UNL     1      -2.996   0.533  25.012  0.00  0.00    +0.012 C 
ATOM     13  C   UNL     1      -4.066  -0.578  24.943  0.00  0.00    +0.024 C 
ATOM     16  C   UNL     1      -2.461  -1.817  23.462  0.00  0.00    -0.023 C 
ATOM     17  C   UNL     1      -3.691  -1.708  23.997  0.00  0.00    -0.073 C 
ATOM     23  C   UNL     1      -4.735  -2.755  23.717  0.00  0.00    +0.039 C 
ENDROOT
BRANCH  10  14
ATOM     14  C   UNL     1      -1.245  -0.781  26.284  0.00  0.00    -0.013 C 
ATOM     19  C   UNL     1      -0.337  -1.970  25.981  0.00  0.00    +0.007 C 
ATOM     20  C   UNL     1      -0.603   0.139  27.318  0.00  0.00    +0.007 C 
ENDBRANCH  10  14
BRANCH  11  15
ATOM     15  C   UNL     1      -1.057  -0.017  22.501  0.00  0.00    +0.092 C 
BRANCH  15   4
ATOM      4  N   UNL     1       0.351   0.375  22.430  0.00  0.00    -0.299 NA
ATOM      5  N   UNL     1       3.151   0.142  22.942  0.00  0.00    -0.297 N 
ATOM      8  N   UNL     1       5.010   1.036  24.038  0.00  0.00    -0.223 NA
ATOM      9  N   UNL     1       5.251  -0.742  22.429  0.00  0.00    -0.223 NA
ATOM     21  C   UNL     1       0.883   0.631  23.773  0.00  0.00    +0.103 C 
ATOM     22  C   UNL     1       1.143  -0.669  21.769  0.00  0.00    +0.103 C 
ATOM     24  C   UNL     1       2.339   1.096  23.708  0.00  0.00    +0.123 C 
ATOM     25  C   UNL     1       2.608  -0.248  21.638  0.00  0.00    +0.123 C 
ATOM     27  C   UNL     1       4.535   0.146  23.146  0.00  0.00    +0.218 A 
ATOM     30  C   UNL     1       6.348   1.012  24.210  0.00  0.00    +0.116 A 
ATOM     31  C   UNL     1       6.581  -0.710  22.649  0.00  0.00    +0.116 A 
ATOM     32  C   UNL     1       7.192   0.152  23.536  0.00  0.00    +0.039 A 
ENDBRANCH  15   4
ENDBRANCH  11  15
BRANCH  13  18
ATOM     18  C   UNL     1      -5.416   0.063  24.601  0.00  0.00    +0.105 C 
BRANCH  18  26
ATOM      2  O   UNL     1      -4.478   1.941  25.846  0.00  0.00    -0.421 OA
ATOM      6  N   UNL     1      -6.295   2.454  24.647  0.00  0.00    -0.112 NA
ATOM      7  N   UNL     1      -5.872   3.600  25.295  0.00  0.00    -0.109 NA
ATOM     26  C   UNL     1      -5.452   1.512  24.997  0.00  0.00    +0.218 A 
ATOM     28  C   UNL     1      -4.810   3.254  25.983  0.00  0.00    +0.254 A 
BRANCH  28  29
ATOM     29  C   UNL     1      -3.953   4.067  26.852  0.00  0.00    +0.326 C 
BRANCH  29   3
ATOM      3  O   UNL     1      -2.611   3.571  26.831  0.00  0.00    -0.483 OA
BRANCH   3  33
ATOM      1  F   UNL     1       0.586   5.327  22.719  0.00  0.00    -0.205 F 
ATOM     33  C   UNL     1      -1.816   4.008  25.808  0.00  0.00    +0.121 A 
ATOM     34  C   UNL     1      -1.895   5.334  25.381  0.00  0.00    +0.048 A 
ATOM     35  C   UNL     1      -0.926   3.128  25.192  0.00  0.00    +0.048 A 
ATOM     36  C   UNL     1      -1.083   5.779  24.337  0.00  0.00    +0.042 A 
ATOM     37  C   UNL     1      -0.114   3.574  24.150  0.00  0.00    +0.042 A 
ATOM     38  C   UNL     1      -0.193   4.900  23.721  0.00  0.00    +0.124 A 
ENDBRANCH   3  33
ENDBRANCH  29   3
ENDBRANCH  28  29
ENDBRANCH  18  26
ENDBRANCH  13  18
TORSDOF 8
ENDMDL
MODEL 9
REMARK VINA RESULT:       9.5      2.786      5.955
REMARK  Name = 45784039
REMARK  11 active torsions:
REMARK  status: ('A' for Active; 'I' for Inactive)
REMARK    1  A    between atoms: O_3  and  C_29
REMARK    2  A    between atoms: O_3  and  C_33
REMARK    3  A    between atoms: N_4  and  C_15
REMARK    4  A    between atoms: C_10  and  C_14
REMARK    5  A    between atoms: C_11  and  C_15
REMARK    6  A    between atoms: C_13  and  C_18
REMARK    7  A    between atoms: C_14  and  C_19
REMARK    8  A    between atoms: C_14  and  C_20
REMARK    9  A    between atoms: C_17  and  C_23
REMARK   10  A    between atoms: C_18  and  C_26
REMARK   11  A    between atoms: C_28  and  C_29
REMARK                            x       y       z     vdW  Elec       q    Type
REMARK                         _______ _______ _______ _____ _____    ______ ____
ROOT
ATOM     10  C   UNL     1      -3.893   3.603  25.154  0.00  0.00    +0.000 C 
ATOM     11  C   UNL     1      -3.931   4.668  24.033  0.00  0.00    +0.029 C 
ATOM     12  C   UNL     1      -2.471   3.047  25.319  0.00  0.00    +0.012 C 
ATOM     13  C   UNL     1      -1.417   4.137  25.608  0.00  0.00    +0.024 C 
ATOM     16  C   UNL     1      -2.768   5.624  24.101  0.00  0.00    -0.023 C 
ATOM     17  C   UNL     1      -1.643   5.411  24.807  0.00  0.00    -0.073 C 
ATOM     23  C   UNL     1      -0.578   6.472  24.876  0.00  0.00    +0.039 C 
ENDROOT
BRANCH  10  14
ATOM     14  C   UNL     1      -4.423   4.167  26.479  0.00  0.00    -0.013 C 
ATOM     19  C   UNL     1      -5.728   3.476  26.867  0.00  0.00    +0.007 C 
ATOM     20  C   UNL     1      -3.380   4.010  27.580  0.00  0.00    +0.007 C 
ENDBRANCH  10  14
BRANCH  11  15
ATOM     15  C   UNL     1      -3.974   4.023  22.644  0.00  0.00    +0.092 C 
BRANCH  15   4
ATOM      4  N   UNL     1      -4.041   2.567  22.750  0.00  0.00    -0.299 NA
ATOM      5  N   UNL     1      -3.444   0.003  23.861  0.00  0.00    -0.297 N 
ATOM      8  N   UNL     1      -2.375  -2.050  23.554  0.00  0.00    -0.223 NA
ATOM      9  N   UNL     1      -3.838  -1.679  25.432  0.00  0.00    -0.223 NA
ATOM     21  C   UNL     1      -2.707   1.976  22.580  0.00  0.00    +0.103 C 
ATOM     22  C   UNL     1      -4.600   2.170  24.048  0.00  0.00    +0.103 C 
ATOM     24  C   UNL     1      -2.773   0.449  22.633  0.00  0.00    +0.123 C 
ATOM     25  C   UNL     1      -4.728   0.649  24.151  0.00  0.00    +0.123 C 
ATOM     27  C   UNL     1      -3.208  -1.303  24.303  0.00  0.00    +0.218 A 
ATOM     30  C   UNL     1      -2.170  -3.304  24.008  0.00  0.00    +0.116 A 
ATOM     31  C   UNL     1      -3.589  -2.944  25.828  0.00  0.00    +0.116 A 
ATOM     32  C   UNL     1      -2.756  -3.810  25.151  0.00  0.00    +0.039 A 
ENDBRANCH  15   4
ENDBRANCH  11  15
BRANCH  13  18
ATOM     18  C   UNL     1      -0.022   3.538  25.394  0.00  0.00    +0.105 C 
BRANCH  18  26
ATOM      2  O   UNL     1       0.433   1.604  23.977  0.00  0.00    -0.421 OA
ATOM      6  N   UNL     1      -0.591   1.107  25.902  0.00  0.00    -0.112 NA
ATOM      7  N   UNL     1      -0.396  -0.071  25.205  0.00  0.00    -0.109 NA
ATOM     26  C   UNL     1      -0.092   2.058  25.148  0.00  0.00    +0.218 A 
ATOM     28  C   UNL     1       0.205   0.267  24.088  0.00  0.00    +0.254 A 
BRANCH  28  29
ATOM     29  C   UNL     1       0.654  -0.578  22.975  0.00  0.00    +0.326 C 
BRANCH  29   3
ATOM      3  O   UNL     1       1.714   0.065  22.262  0.00  0.00    -0.483 OA
BRANCH   3  33
ATOM      1  F   UNL     1       6.755  -0.429  24.394  0.00  0.00    -0.205 F 
ATOM     33  C   UNL     1       2.968  -0.058  22.792  0.00  0.00    +0.121 A 
ATOM     34  C   UNL     1       3.365  -1.263  23.373  0.00  0.00    +0.048 A 
ATOM     35  C   UNL     1       3.850   1.021  22.752  0.00  0.00    +0.048 A 
ATOM     36  C   UNL     1       4.644  -1.388  23.914  0.00  0.00    +0.042 A 
ATOM     37  C   UNL     1       5.130   0.896  23.292  0.00  0.00    +0.042 A 
ATOM     38  C   UNL     1       5.527  -0.309  23.874  0.00  0.00    +0.124 A 
ENDBRANCH   3  33
ENDBRANCH  29   3
ENDBRANCH  28  29
ENDBRANCH  18  26
ENDBRANCH  13  18
TORSDOF 8
ENDMDL
MODEL 10
REMARK VINA RESULT:      10.1      1.370      2.466
REMARK  Name = 45784039
REMARK  11 active torsions:
REMARK  status: ('A' for Active; 'I' for Inactive)
REMARK    1  A    between atoms: O_3  and  C_29
REMARK    2  A    between atoms: O_3  and  C_33
REMARK    3  A    between atoms: N_4  and  C_15
REMARK    4  A    between atoms: C_10  and  C_14
REMARK    5  A    between atoms: C_11  and  C_15
REMARK    6  A    between atoms: C_13  and  C_18
REMARK    7  A    between atoms: C_14  and  C_19
REMARK    8  A    between atoms: C_14  and  C_20
REMARK    9  A    between atoms: C_17  and  C_23
REMARK   10  A    between atoms: C_18  and  C_26
REMARK   11  A    between atoms: C_28  and  C_29
REMARK                            x       y       z     vdW  Elec       q    Type
REMARK                         _______ _______ _______ _____ _____    ______ ____
ROOT
ATOM     10  C   UNL     1      -5.028   0.993  25.650  0.00  0.00    +0.000 C 
ATOM     11  C   UNL     1      -3.971   0.305  24.755  0.00  0.00    +0.029 C 
ATOM     12  C   UNL     1      -4.644   2.457  25.906  0.00  0.00    +0.012 C 
ATOM     13  C   UNL     1      -4.454   3.276  24.612  0.00  0.00    +0.024 C 
ATOM     16  C   UNL     1      -3.541   1.168  23.597  0.00  0.00    -0.023 C 
ATOM     17  C   UNL     1      -3.757   2.494  23.509  0.00  0.00    -0.073 C 
ATOM     23  C   UNL     1      -3.362   3.245  22.267  0.00  0.00    +0.039 C 
ENDROOT
BRANCH  10  14
ATOM     14  C   UNL     1      -6.432   0.888  25.040  0.00  0.00    -0.013 C 
ATOM     19  C   UNL     1      -6.929   2.265  24.608  0.00  0.00    +0.007 C 
ATOM     20  C   UNL     1      -6.429  -0.080  23.861  0.00  0.00    +0.007 C 
ENDBRANCH  10  14
BRANCH  11  15
ATOM     15  C   UNL     1      -2.736  -0.113  25.558  0.00  0.00    +0.092 C 
BRANCH  15   4
ATOM      4  N   UNL     1      -1.589  -0.320  24.675  0.00  0.00    -0.299 NA
ATOM      5  N   UNL     1       1.161  -0.231  23.909  0.00  0.00    -0.297 N 
ATOM      8  N   UNL     1       2.757   0.716  22.490  0.00  0.00    -0.223 NA
ATOM      9  N   UNL     1       3.310  -1.145  23.917  0.00  0.00    -0.223 NA
ATOM     21  C   UNL     1      -0.949   0.962  24.354  0.00  0.00    +0.103 C 
ATOM     22  C   UNL     1      -0.614  -1.222  25.299  0.00  0.00    +0.103 C 
ATOM     24  C   UNL     1       0.218   0.765  23.384  0.00  0.00    +0.123 C 
ATOM     25  C   UNL     1       0.565  -1.491  24.362  0.00  0.00    +0.123 C 
ATOM     27  C   UNL     1       2.470  -0.219  23.415  0.00  0.00    +0.218 A 
ATOM     30  C   UNL     1       4.027   0.699  22.037  0.00  0.00    +0.116 A 
ATOM     31  C   UNL     1       4.563  -1.106  23.420  0.00  0.00    +0.116 A 
ATOM     32  C   UNL     1       4.984  -0.198  22.470  0.00  0.00    +0.039 A 
ENDBRANCH  15   4
ENDBRANCH  11  15
BRANCH  13  18
ATOM     18  C   UNL     1      -3.734   4.584  24.960  0.00  0.00    +0.105 C 
BRANCH  18  26
ATOM      2  O   UNL     1      -1.847   3.302  25.825  0.00  0.00    -0.421 OA
ATOM      6  N   UNL     1      -1.261   5.084  24.608  0.00  0.00    -0.112 NA
ATOM      7  N   UNL     1      -0.104   4.455  25.030  0.00  0.00    -0.109 NA
ATOM     26  C   UNL     1      -2.253   4.377  25.095  0.00  0.00    +0.218 A 
ATOM     28  C   UNL     1      -0.494   3.421  25.737  0.00  0.00    +0.254 A 
BRANCH  28  29
ATOM     29  C   UNL     1       0.308   2.402  26.423  0.00  0.00    +0.326 C 
BRANCH  29   3
ATOM      3  O   UNL     1       1.318   3.022  27.224  0.00  0.00    -0.483 OA
BRANCH   3  33
ATOM      1  F   UNL     1       1.285   1.800  32.583  0.00  0.00    -0.205 F 
ATOM     33  C   UNL     1       1.310   2.718  28.557  0.00  0.00    +0.121 A 
ATOM     34  C   UNL     1       2.408   2.078  29.133  0.00  0.00    +0.048 A 
ATOM     35  C   UNL     1       0.205   3.048  29.340  0.00  0.00    +0.048 A 
ATOM     36  C   UNL     1       2.400   1.768  30.493  0.00  0.00    +0.042 A 
ATOM     37  C   UNL     1       0.196   2.739  30.700  0.00  0.00    +0.042 A 
ATOM     38  C   UNL     1       1.294   2.098  31.277  0.00  0.00    +0.124 A 
ENDBRANCH   3  33
ENDBRANCH  29   3
ENDBRANCH  28  29
ENDBRANCH  18  26
ENDBRANCH  13  18
TORSDOF 8
ENDMDL
