MODEL 1
REMARK VINA RESULT:       0.7      0.000      0.000
REMARK  Name = 44716917
REMARK  16 active torsions:
REMARK  status: ('A' for Active; 'I' for Inactive)
REMARK    1  A    between atoms: O_1  and  C_15
REMARK    2  A    between atoms: O_1  and  C_24
REMARK    3  A    between atoms: O_2  and  C_16
REMARK    4  A    between atoms: O_3  and  C_20
REMARK    5  A    between atoms: O_6  and  C_34
REMARK    6  A    between atoms: O_6  and  C_35
REMARK    7  A    between atoms: N_7  and  C_25
REMARK    8  A    between atoms: N_8  and  C_26
REMARK    9  A    between atoms: C_9  and  C_19
REMARK   10  A    between atoms: C_11  and  C_20
REMARK   11  A    between atoms: C_11  and  C_21
REMARK   12  A    between atoms: C_12  and  C_22
REMARK   13  A    between atoms: C_22  and  C_23
REMARK   14  A    between atoms: C_25  and  C_27
REMARK   15  A    between atoms: C_26  and  C_28
REMARK   16  A    between atoms: C_28  and  C_31
REMARK                            x       y       z     vdW  Elec       q    Type
REMARK                         _______ _______ _______ _____ _____    ______ ____
ROOT
ATOM      9  C   UNL     1      -3.479   3.195  24.596  0.00  0.00    -0.023 C 
ATOM     10  C   UNL     1      -2.191   3.186  25.509  0.00  0.00    +0.007 C 
ATOM     11  C   UNL     1      -0.806   3.010  24.777  0.00  0.00    +0.031 C 
ATOM     12  C   UNL     1      -4.730   3.058  25.560  0.00  0.00    +0.032 C 
ATOM     13  C   UNL     1      -3.422   1.961  23.656  0.00  0.00    +0.011 C 
ATOM     14  C   UNL     1      -2.235   4.340  26.534  0.00  0.00    +0.007 C 
ATOM     15  C   UNL     1      -0.901   1.794  23.806  0.00  0.00    +0.186 C 
ATOM     16  C   UNL     1      -4.776   4.140  26.665  0.00  0.00    +0.119 C 
ATOM     17  C   UNL     1      -2.113   1.836  22.883  0.00  0.00    +0.046 C 
ATOM     18  C   UNL     1      -3.464   4.232  27.440  0.00  0.00    +0.032 C 
ATOM     19  C   UNL     1      -3.606   4.462  23.717  0.00  0.00    +0.012 C 
ATOM     21  C   UNL     1       0.288   2.679  25.833  0.00  0.00    +0.017 C 
ENDROOT
BRANCH  16   2
ATOM      2  O   UNL     1      -5.103   5.412  26.118  0.00  0.00    -0.391 OA
ATOM     36  H   UNL     1      -5.385   5.276  25.197  0.00  0.00    +0.210 HD
ENDBRANCH  16   2
BRANCH  15   1
ATOM      1  O   UNL     1       0.255   1.689  22.975  0.00  0.00    -0.446 OA
BRANCH   1  24
ATOM      5  O   UNL     1       0.456  -0.586  23.220  0.00  0.00    -0.226 OA
ATOM      8  N   UNL     1       2.314   0.785  22.995  0.00  0.00    -0.281 N 
ATOM     24  C   UNL     1       0.963   0.522  23.078  0.00  0.00    +0.401 C 
ATOM     39  H   UNL     1       2.606   1.751  22.873  0.00  0.00    +0.152 HD
BRANCH   8  26
ATOM     26  C   UNL     1       3.336  -0.233  23.070  0.00  0.00    +0.107 C 
BRANCH  26  28
ATOM     28  C   UNL     1       4.739   0.356  23.149  0.00  0.00    +0.015 C 
ATOM     31  C   UNL     1       5.623  -0.362  24.158  0.00  0.00    +0.005 C 
ENDBRANCH  26  28
ENDBRANCH   8  26
ENDBRANCH   1  24
ENDBRANCH  15   1
BRANCH  11  20
ATOM     20  C   UNL     1      -0.314   4.276  24.047  0.00  0.00    +0.166 C 
BRANCH  20   3
ATOM      3  O   UNL     1      -0.530   5.380  24.899  0.00  0.00    -0.394 OA
ATOM     37  H   UNL     1      -1.490   5.530  24.939  0.00  0.00    +0.209 HD
ENDBRANCH  20   3
ENDBRANCH  11  20
BRANCH  12  22
ATOM     22  C   UNL     1      -6.089   2.983  24.848  0.00  0.00    +0.102 C 
BRANCH  22  23
ATOM      4  O   UNL     1      -7.576   1.232  24.087  0.00  0.00    -0.276 OA
ATOM      7  N   UNL     1      -5.413   0.696  24.746  0.00  0.00    -0.311 N 
ATOM     23  C   UNL     1      -6.471   1.561  24.511  0.00  0.00    +0.214 C 
ATOM     38  H   UNL     1      -4.545   1.059  25.128  0.00  0.00    +0.149 HD
BRANCH   7  25
ATOM     25  C   UNL     1      -5.492  -0.729  24.513  0.00  0.00    +0.139 C 
BRANCH  25  27
ATOM     27  C   UNL     1      -4.152  -1.393  24.635  0.00  0.00    -0.030 A 
ATOM     29  C   UNL     1      -3.152  -0.812  25.415  0.00  0.00    +0.009 A 
ATOM     30  C   UNL     1      -3.906  -2.595  23.970  0.00  0.00    +0.009 A 
ATOM     32  C   UNL     1      -1.908  -1.430  25.529  0.00  0.00    +0.046 A 
ATOM     33  C   UNL     1      -2.661  -3.213  24.084  0.00  0.00    +0.046 A 
ATOM     34  C   UNL     1      -1.662  -2.631  24.864  0.00  0.00    +0.120 A 
BRANCH  34   6
ATOM      6  O   UNL     1      -0.448  -3.236  24.977  0.00  0.00    -0.495 OA
ATOM     35  C   UNL     1       0.558  -2.541  25.712  0.00  0.00    +0.277 C 
ENDBRANCH  34   6
ENDBRANCH  25  27
ENDBRANCH   7  25
ENDBRANCH  22  23
ENDBRANCH  12  22
TORSDOF 12
ENDMDL
MODEL 2
REMARK VINA RESULT:       2.5      1.823      4.649
REMARK  Name = 44716917
REMARK  16 active torsions:
REMARK  status: ('A' for Active; 'I' for Inactive)
REMARK    1  A    between atoms: O_1  and  C_15
REMARK    2  A    between atoms: O_1  and  C_24
REMARK    3  A    between atoms: O_2  and  C_16
REMARK    4  A    between atoms: O_3  and  C_20
REMARK    5  A    between atoms: O_6  and  C_34
REMARK    6  A    between atoms: O_6  and  C_35
REMARK    7  A    between atoms: N_7  and  C_25
REMARK    8  A    between atoms: N_8  and  C_26
REMARK    9  A    between atoms: C_9  and  C_19
REMARK   10  A    between atoms: C_11  and  C_20
REMARK   11  A    between atoms: C_11  and  C_21
REMARK   12  A    between atoms: C_12  and  C_22
REMARK   13  A    between atoms: C_22  and  C_23
REMARK   14  A    between atoms: C_25  and  C_27
REMARK   15  A    between atoms: C_26  and  C_28
REMARK   16  A    between atoms: C_28  and  C_31
REMARK                            x       y       z     vdW  Elec       q    Type
REMARK                         _______ _______ _______ _____ _____    ______ ____
ROOT
ATOM      9  C   UNL     1      -2.988   0.862  24.152  0.00  0.00    -0.023 C 
ATOM     10  C   UNL     1      -2.775  -0.702  24.136  0.00  0.00    +0.007 C 
ATOM     11  C   UNL     1      -1.297  -1.216  24.327  0.00  0.00    +0.031 C 
ATOM     12  C   UNL     1      -4.459   1.133  23.628  0.00  0.00    +0.032 C 
ATOM     13  C   UNL     1      -1.971   1.506  23.172  0.00  0.00    +0.011 C 
ATOM     14  C   UNL     1      -3.823  -1.410  25.022  0.00  0.00    +0.007 C 
ATOM     15  C   UNL     1      -0.363  -0.441  23.349  0.00  0.00    +0.186 C 
ATOM     16  C   UNL     1      -5.546   0.376  24.427  0.00  0.00    +0.119 C 
ATOM     17  C   UNL     1      -0.528   1.073  23.410  0.00  0.00    +0.046 C 
ATOM     18  C   UNL     1      -5.245  -1.116  24.542  0.00  0.00    +0.032 C 
ATOM     19  C   UNL     1      -2.781   1.501  25.546  0.00  0.00    +0.012 C 
ATOM     21  C   UNL     1      -1.229  -2.723  23.940  0.00  0.00    +0.017 C 
ENDROOT
BRANCH  16   2
ATOM      2  O   UNL     1      -5.706   0.936  25.726  0.00  0.00    -0.391 OA
ATOM     36  H   UNL     1      -5.715   0.204  26.365  0.00  0.00    +0.210 HD
ENDBRANCH  16   2
BRANCH  15   1
ATOM      1  O   UNL     1       1.015  -0.723  23.596  0.00  0.00    -0.446 OA
BRANCH   1  24
ATOM      5  O   UNL     1       1.715  -0.302  21.450  0.00  0.00    -0.226 OA
ATOM      8  N   UNL     1       3.012   0.263  23.288  0.00  0.00    -0.281 N 
ATOM     24  C   UNL     1       1.899  -0.257  22.661  0.00  0.00    +0.401 C 
ATOM     39  H   UNL     1       3.041   0.243  24.304  0.00  0.00    +0.152 HD
BRANCH   8  26
ATOM     26  C   UNL     1       4.135   0.837  22.584  0.00  0.00    +0.107 C 
BRANCH  26  28
ATOM     28  C   UNL     1       5.470   0.449  23.206  0.00  0.00    +0.015 C 
ATOM     31  C   UNL     1       5.348  -0.705  24.191  0.00  0.00    +0.005 C 
ENDBRANCH  26  28
ENDBRANCH   8  26
ENDBRANCH   1  24
ENDBRANCH  15   1
BRANCH  11  20
ATOM     20  C   UNL     1      -0.784  -1.134  25.779  0.00  0.00    +0.166 C 
BRANCH  20   3
ATOM      3  O   UNL     1       0.335  -1.986  25.892  0.00  0.00    -0.394 OA
ATOM     37  H   UNL     1       0.539  -2.315  25.000  0.00  0.00    +0.209 HD
ENDBRANCH  20   3
ENDBRANCH  11  20
BRANCH  12  22
ATOM     22  C   UNL     1      -4.839   2.617  23.510  0.00  0.00    +0.102 C 
BRANCH  22  23
ATOM      4  O   UNL     1      -4.618   3.553  25.730  0.00  0.00    -0.276 OA
ATOM      7  N   UNL     1      -3.050   4.084  24.098  0.00  0.00    -0.311 N 
ATOM     23  C   UNL     1      -4.187   3.454  24.584  0.00  0.00    +0.214 C 
ATOM     38  H   UNL     1      -2.790   3.966  23.124  0.00  0.00    +0.149 HD
BRANCH   7  25
ATOM     25  C   UNL     1      -2.223   4.952  24.906  0.00  0.00    +0.139 C 
BRANCH  25  27
ATOM     27  C   UNL     1      -1.251   4.178  25.747  0.00  0.00    -0.030 A 
ATOM     29  C   UNL     1       0.013   3.867  25.245  0.00  0.00    +0.009 A 
ATOM     30  C   UNL     1      -1.608   3.772  27.033  0.00  0.00    +0.009 A 
ATOM     32  C   UNL     1       0.918   3.150  26.027  0.00  0.00    +0.046 A 
ATOM     33  C   UNL     1      -0.704   3.055  27.815  0.00  0.00    +0.046 A 
ATOM     34  C   UNL     1       0.559   2.744  27.312  0.00  0.00    +0.120 A 
BRANCH  34   6
ATOM      6  O   UNL     1       1.443   2.045  28.077  0.00  0.00    -0.495 OA
ATOM     35  C   UNL     1       1.572   2.439  29.443  0.00  0.00    +0.277 C 
ENDBRANCH  34   6
ENDBRANCH  25  27
ENDBRANCH   7  25
ENDBRANCH  22  23
ENDBRANCH  12  22
TORSDOF 12
ENDMDL
MODEL 3
REMARK VINA RESULT:       3.2      2.012      5.853
REMARK  Name = 44716917
REMARK  16 active torsions:
REMARK  status: ('A' for Active; 'I' for Inactive)
REMARK    1  A    between atoms: O_1  and  C_15
REMARK    2  A    between atoms: O_1  and  C_24
REMARK    3  A    between atoms: O_2  and  C_16
REMARK    4  A    between atoms: O_3  and  C_20
REMARK    5  A    between atoms: O_6  and  C_34
REMARK    6  A    between atoms: O_6  and  C_35
REMARK    7  A    between atoms: N_7  and  C_25
REMARK    8  A    between atoms: N_8  and  C_26
REMARK    9  A    between atoms: C_9  and  C_19
REMARK   10  A    between atoms: C_11  and  C_20
REMARK   11  A    between atoms: C_11  and  C_21
REMARK   12  A    between atoms: C_12  and  C_22
REMARK   13  A    between atoms: C_22  and  C_23
REMARK   14  A    between atoms: C_25  and  C_27
REMARK   15  A    between atoms: C_26  and  C_28
REMARK   16  A    between atoms: C_28  and  C_31
REMARK                            x       y       z     vdW  Elec       q    Type
REMARK                         _______ _______ _______ _____ _____    ______ ____
ROOT
ATOM      9  C   UNL     1      -2.360   2.475  24.556  0.00  0.00    -0.023 C 
ATOM     10  C   UNL     1      -3.905   2.758  24.413  0.00  0.00    +0.007 C 
ATOM     11  C   UNL     1      -4.875   1.546  24.691  0.00  0.00    +0.031 C 
ATOM     12  C   UNL     1      -1.603   3.718  23.927  0.00  0.00    +0.032 C 
ATOM     13  C   UNL     1      -2.016   1.201  23.739  0.00  0.00    +0.011 C 
ATOM     14  C   UNL     1      -4.294   4.070  25.128  0.00  0.00    +0.007 C 
ATOM     15  C   UNL     1      -4.380   0.310  23.880  0.00  0.00    +0.186 C 
ATOM     16  C   UNL     1      -2.020   5.071  24.547  0.00  0.00    +0.119 C 
ATOM     17  C   UNL     1      -2.899   0.002  24.068  0.00  0.00    +0.046 C 
ATOM     18  C   UNL     1      -3.534   5.265  24.548  0.00  0.00    +0.032 C 
ATOM     19  C   UNL     1      -1.904   2.245  26.017  0.00  0.00    +0.012 C 
ATOM     21  C   UNL     1      -6.298   1.904  24.172  0.00  0.00    +0.017 C 
ENDROOT
BRANCH  16   2
ATOM      2  O   UNL     1      -1.517   5.201  25.872  0.00  0.00    -0.391 OA
ATOM     36  H   UNL     1      -1.059   4.373  26.098  0.00  0.00    +0.210 HD
ENDBRANCH  16   2
BRANCH  15   1
ATOM      1  O   UNL     1      -5.101  -0.874  24.226  0.00  0.00    -0.446 OA
BRANCH   1  24
ATOM      5  O   UNL     1      -4.584  -2.933  23.352  0.00  0.00    -0.226 OA
ATOM      8  N   UNL     1      -3.447  -2.063  25.177  0.00  0.00    -0.281 N 
ATOM     24  C   UNL     1      -4.393  -2.044  24.175  0.00  0.00    +0.401 C 
ATOM     39  H   UNL     1      -3.388  -1.258  25.794  0.00  0.00    +0.152 HD
BRANCH   8  26
ATOM     26  C   UNL     1      -2.534  -3.161  25.397  0.00  0.00    +0.107 C 
BRANCH  26  28
ATOM     28  C   UNL     1      -1.152  -2.892  24.812  0.00  0.00    +0.015 C 
ATOM     31  C   UNL     1      -0.440  -1.732  25.494  0.00  0.00    +0.005 C 
ENDBRANCH  26  28
ENDBRANCH   8  26
ENDBRANCH   1  24
ENDBRANCH  15   1
BRANCH  11  20
ATOM     20  C   UNL     1      -5.048   1.207  26.185  0.00  0.00    +0.166 C 
BRANCH  20   3
ATOM      3  O   UNL     1      -6.282   1.742  26.612  0.00  0.00    -0.394 OA
ATOM     37  H   UNL     1      -6.253   2.700  26.448  0.00  0.00    +0.209 HD
ENDBRANCH  20   3
ENDBRANCH  11  20
BRANCH  12  22
ATOM     22  C   UNL     1      -0.070   3.602  23.913  0.00  0.00    +0.102 C 
BRANCH  22  23
ATOM      4  O   UNL     1       0.597   1.671  25.210  0.00  0.00    -0.276 OA
ATOM      7  N   UNL     1       0.540   1.532  22.891  0.00  0.00    -0.311 N 
ATOM     23  C   UNL     1       0.389   2.176  24.111  0.00  0.00    +0.214 C 
ATOM     38  H   UNL     1       0.374   2.045  22.030  0.00  0.00    +0.149 HD
BRANCH   7  25
ATOM     25  C   UNL     1       0.972   0.158  22.773  0.00  0.00    +0.139 C 
BRANCH  25  27
ATOM     27  C   UNL     1       2.438   0.004  23.053  0.00  0.00    -0.030 A 
ATOM     29  C   UNL     1       3.315   1.054  22.781  0.00  0.00    +0.009 A 
ATOM     30  C   UNL     1       2.926  -1.189  23.588  0.00  0.00    +0.009 A 
ATOM     32  C   UNL     1       4.677   0.912  23.042  0.00  0.00    +0.046 A 
ATOM     33  C   UNL     1       4.288  -1.331  23.849  0.00  0.00    +0.046 A 
ATOM     34  C   UNL     1       5.164  -0.281  23.577  0.00  0.00    +0.120 A 
BRANCH  34   6
ATOM      6  O   UNL     1       6.494  -0.420  23.834  0.00  0.00    -0.495 OA
ATOM     35  C   UNL     1       7.359  -0.581  22.710  0.00  0.00    +0.277 C 
ENDBRANCH  34   6
ENDBRANCH  25  27
ENDBRANCH   7  25
ENDBRANCH  22  23
ENDBRANCH  12  22
TORSDOF 12
ENDMDL
MODEL 4
REMARK VINA RESULT:       3.2      1.511      5.217
REMARK  Name = 44716917
REMARK  16 active torsions:
REMARK  status: ('A' for Active; 'I' for Inactive)
REMARK    1  A    between atoms: O_1  and  C_15
REMARK    2  A    between atoms: O_1  and  C_24
REMARK    3  A    between atoms: O_2  and  C_16
REMARK    4  A    between atoms: O_3  and  C_20
REMARK    5  A    between atoms: O_6  and  C_34
REMARK    6  A    between atoms: O_6  and  C_35
REMARK    7  A    between atoms: N_7  and  C_25
REMARK    8  A    between atoms: N_8  and  C_26
REMARK    9  A    between atoms: C_9  and  C_19
REMARK   10  A    between atoms: C_11  and  C_20
REMARK   11  A    between atoms: C_11  and  C_21
REMARK   12  A    between atoms: C_12  and  C_22
REMARK   13  A    between atoms: C_22  and  C_23
REMARK   14  A    between atoms: C_25  and  C_27
REMARK   15  A    between atoms: C_26  and  C_28
REMARK   16  A    between atoms: C_28  and  C_31
REMARK                            x       y       z     vdW  Elec       q    Type
REMARK                         _______ _______ _______ _____ _____    ______ ____
ROOT
ATOM      9  C   UNL     1      -2.409  -0.568  24.549  0.00  0.00    -0.023 C 
ATOM     10  C   UNL     1      -1.316  -1.346  23.718  0.00  0.00    +0.007 C 
ATOM     11  C   UNL     1       0.143  -0.747  23.734  0.00  0.00    +0.031 C 
ATOM     12  C   UNL     1      -3.818  -1.158  24.125  0.00  0.00    +0.032 C 
ATOM     13  C   UNL     1      -2.346   0.933  24.159  0.00  0.00    +0.011 C 
ATOM     14  C   UNL     1      -1.391  -2.863  23.993  0.00  0.00    +0.007 C 
ATOM     15  C   UNL     1       0.066   0.776  23.408  0.00  0.00    +0.186 C 
ATOM     16  C   UNL     1      -3.919  -2.692  24.296  0.00  0.00    +0.119 C 
ATOM     17  C   UNL     1      -0.949   1.536  24.254  0.00  0.00    +0.046 C 
ATOM     18  C   UNL     1      -2.764  -3.427  23.621  0.00  0.00    +0.032 C 
ATOM     19  C   UNL     1      -2.215  -0.673  26.081  0.00  0.00    +0.012 C 
ATOM     21  C   UNL     1       0.981  -1.422  22.609  0.00  0.00    +0.017 C 
ENDROOT
BRANCH  16   2
ATOM      2  O   UNL     1      -3.978  -3.048  25.673  0.00  0.00    -0.391 OA
ATOM     36  H   UNL     1      -3.725  -2.265  26.192  0.00  0.00    +0.210 HD
ENDBRANCH  16   2
BRANCH  15   1
ATOM      1  O   UNL     1       1.327   1.420  23.586  0.00  0.00    -0.446 OA
BRANCH   1  24
ATOM      5  O   UNL     1       2.248   0.301  21.804  0.00  0.00    -0.226 OA
ATOM      8  N   UNL     1       3.561   1.171  23.507  0.00  0.00    -0.281 N 
ATOM     24  C   UNL     1       2.370   0.906  22.864  0.00  0.00    +0.401 C 
ATOM     39  H   UNL     1       3.526   1.687  24.382  0.00  0.00    +0.152 HD
BRANCH   8  26
ATOM     26  C   UNL     1       4.852   0.762  23.006  0.00  0.00    +0.107 C 
BRANCH  26  28
ATOM     28  C   UNL     1       5.505  -0.299  23.883  0.00  0.00    +0.015 C 
ATOM     31  C   UNL     1       4.712  -1.597  23.926  0.00  0.00    +0.005 C 
ENDBRANCH  26  28
ENDBRANCH   8  26
ENDBRANCH   1  24
ENDBRANCH  15   1
BRANCH  11  20
ATOM     20  C   UNL     1       0.916  -1.004  25.043  0.00  0.00    +0.166 C 
BRANCH  20   3
ATOM      3  O   UNL     1       0.530  -2.270  25.534  0.00  0.00    -0.394 OA
ATOM     37  H   UNL     1      -0.347  -2.468  25.163  0.00  0.00    +0.209 HD
ENDBRANCH  20   3
ENDBRANCH  11  20
BRANCH  12  22
ATOM     22  C   UNL     1      -5.028  -0.479  24.785  0.00  0.00    +0.102 C 
BRANCH  22  23
ATOM      4  O   UNL     1      -4.615   1.594  23.607  0.00  0.00    -0.276 OA
ATOM      7  N   UNL     1      -5.423   1.653  25.785  0.00  0.00    -0.311 N 
ATOM     23  C   UNL     1      -4.987   1.023  24.629  0.00  0.00    +0.214 C 
ATOM     38  H   UNL     1      -5.682   1.094  26.592  0.00  0.00    +0.149 HD
BRANCH   7  25
ATOM     25  C   UNL     1      -5.488   3.090  25.924  0.00  0.00    +0.139 C 
BRANCH  25  27
ATOM     27  C   UNL     1      -4.173   3.744  25.617  0.00  0.00    -0.030 A 
ATOM     29  C   UNL     1      -3.119   3.654  26.527  0.00  0.00    +0.009 A 
ATOM     30  C   UNL     1      -4.002   4.440  24.420  0.00  0.00    +0.009 A 
ATOM     32  C   UNL     1      -1.896   4.260  26.241  0.00  0.00    +0.046 A 
ATOM     33  C   UNL     1      -2.779   5.046  24.134  0.00  0.00    +0.046 A 
ATOM     34  C   UNL     1      -1.726   4.956  25.045  0.00  0.00    +0.120 A 
BRANCH  34   6
ATOM      6  O   UNL     1      -0.532   5.547  24.764  0.00  0.00    -0.495 OA
ATOM     35  C   UNL     1       0.235   4.986  23.699  0.00  0.00    +0.277 C 
ENDBRANCH  34   6
ENDBRANCH  25  27
ENDBRANCH   7  25
ENDBRANCH  22  23
ENDBRANCH  12  22
TORSDOF 12
ENDMDL
MODEL 5
REMARK VINA RESULT:       3.4      2.099      6.545
REMARK  Name = 44716917
REMARK  16 active torsions:
REMARK  status: ('A' for Active; 'I' for Inactive)
REMARK    1  A    between atoms: O_1  and  C_15
REMARK    2  A    between atoms: O_1  and  C_24
REMARK    3  A    between atoms: O_2  and  C_16
REMARK    4  A    between atoms: O_3  and  C_20
REMARK    5  A    between atoms: O_6  and  C_34
REMARK    6  A    between atoms: O_6  and  C_35
REMARK    7  A    between atoms: N_7  and  C_25
REMARK    8  A    between atoms: N_8  and  C_26
REMARK    9  A    between atoms: C_9  and  C_19
REMARK   10  A    between atoms: C_11  and  C_20
REMARK   11  A    between atoms: C_11  and  C_21
REMARK   12  A    between atoms: C_12  and  C_22
REMARK   13  A    between atoms: C_22  and  C_23
REMARK   14  A    between atoms: C_25  and  C_27
REMARK   15  A    between atoms: C_26  and  C_28
REMARK   16  A    between atoms: C_28  and  C_31
REMARK                            x       y       z     vdW  Elec       q    Type
REMARK                         _______ _______ _______ _____ _____    ______ ____
ROOT
ATOM      9  C   UNL     1      -2.600   0.216  24.975  0.00  0.00    -0.023 C 
ATOM     10  C   UNL     1      -4.178   0.203  24.970  0.00  0.00    +0.007 C 
ATOM     11  C   UNL     1      -4.896   1.590  24.759  0.00  0.00    +0.031 C 
ATOM     12  C   UNL     1      -2.127  -1.197  25.515  0.00  0.00    +0.032 C 
ATOM     13  C   UNL     1      -2.122   1.322  25.953  0.00  0.00    +0.011 C 
ATOM     14  C   UNL     1      -4.717  -0.942  24.085  0.00  0.00    +0.007 C 
ATOM     15  C   UNL     1      -4.276   2.633  25.739  0.00  0.00    +0.186 C 
ATOM     16  C   UNL     1      -2.710  -2.387  24.717  0.00  0.00    +0.119 C 
ATOM     17  C   UNL     1      -2.753   2.686  25.697  0.00  0.00    +0.046 C 
ATOM     18  C   UNL     1      -4.228  -2.304  24.581  0.00  0.00    +0.032 C 
ATOM     19  C   UNL     1      -1.979   0.503  23.587  0.00  0.00    +0.012 C 
ATOM     21  C   UNL     1      -6.402   1.444  25.128  0.00  0.00    +0.017 C 
ENDROOT
BRANCH  16   2
ATOM      2  O   UNL     1      -2.116  -2.474  23.427  0.00  0.00    -0.391 OA
ATOM     36  H   UNL     1      -1.540  -3.258  23.418  0.00  0.00    +0.210 HD
ENDBRANCH  16   2
BRANCH  15   1
ATOM      1  O   UNL     1      -4.749   3.954  25.476  0.00  0.00    -0.446 OA
BRANCH   1  24
ATOM      5  O   UNL     1      -4.157   5.302  23.713  0.00  0.00    -0.226 OA
ATOM      8  N   UNL     1      -2.710   4.902  25.482  0.00  0.00    -0.281 N 
ATOM     24  C   UNL     1      -3.894   4.772  24.787  0.00  0.00    +0.401 C 
ATOM     39  H   UNL     1      -2.620   4.411  26.367  0.00  0.00    +0.152 HD
BRANCH   8  26
ATOM     26  C   UNL     1      -1.596   5.700  25.025  0.00  0.00    +0.107 C 
BRANCH  26  28
ATOM     28  C   UNL     1      -0.308   4.893  24.922  0.00  0.00    +0.015 C 
ATOM     31  C   UNL     1      -0.346   3.865  23.800  0.00  0.00    +0.005 C 
ENDBRANCH  26  28
ENDBRANCH   8  26
ENDBRANCH   1  24
ENDBRANCH  15   1
BRANCH  11  20
ATOM     20  C   UNL     1      -4.870   2.100  23.304  0.00  0.00    +0.166 C 
BRANCH  20   3
ATOM      3  O   UNL     1      -3.621   2.719  23.084  0.00  0.00    -0.394 OA
ATOM     37  H   UNL     1      -3.545   2.885  22.129  0.00  0.00    +0.209 HD
ENDBRANCH  20   3
ENDBRANCH  11  20
BRANCH  12  22
ATOM     22  C   UNL     1      -0.605  -1.359  25.655  0.00  0.00    +0.102 C 
BRANCH  22  23
ATOM      4  O   UNL     1       0.369   0.776  25.069  0.00  0.00    -0.276 OA
ATOM      7  N   UNL     1       0.547  -1.011  23.594  0.00  0.00    -0.311 N 
ATOM     23  C   UNL     1       0.148  -0.395  24.771  0.00  0.00    +0.214 C 
ATOM     38  H   UNL     1       0.289  -1.978  23.423  0.00  0.00    +0.149 HD
BRANCH   7  25
ATOM     25  C   UNL     1       1.287  -0.327  22.557  0.00  0.00    +0.139 C 
BRANCH  25  27
ATOM     27  C   UNL     1       2.744  -0.207  22.893  0.00  0.00    -0.030 A 
ATOM     29  C   UNL     1       3.427   0.980  22.627  0.00  0.00    +0.009 A 
ATOM     30  C   UNL     1       3.418  -1.282  23.475  0.00  0.00    +0.009 A 
ATOM     32  C   UNL     1       4.781   1.093  22.941  0.00  0.00    +0.046 A 
ATOM     33  C   UNL     1       4.772  -1.169  23.789  0.00  0.00    +0.046 A 
ATOM     34  C   UNL     1       5.453   0.018  23.522  0.00  0.00    +0.120 A 
BRANCH  34   6
ATOM      6  O   UNL     1       6.775   0.128  23.830  0.00  0.00    -0.495 OA
ATOM     35  C   UNL     1       7.699  -0.543  22.974  0.00  0.00    +0.277 C 
ENDBRANCH  34   6
ENDBRANCH  25  27
ENDBRANCH   7  25
ENDBRANCH  22  23
ENDBRANCH  12  22
TORSDOF 12
ENDMDL
MODEL 6
REMARK VINA RESULT:       4.7      2.194      5.986
REMARK  Name = 44716917
REMARK  16 active torsions:
REMARK  status: ('A' for Active; 'I' for Inactive)
REMARK    1  A    between atoms: O_1  and  C_15
REMARK    2  A    between atoms: O_1  and  C_24
REMARK    3  A    between atoms: O_2  and  C_16
REMARK    4  A    between atoms: O_3  and  C_20
REMARK    5  A    between atoms: O_6  and  C_34
REMARK    6  A    between atoms: O_6  and  C_35
REMARK    7  A    between atoms: N_7  and  C_25
REMARK    8  A    between atoms: N_8  and  C_26
REMARK    9  A    between atoms: C_9  and  C_19
REMARK   10  A    between atoms: C_11  and  C_20
REMARK   11  A    between atoms: C_11  and  C_21
REMARK   12  A    between atoms: C_12  and  C_22
REMARK   13  A    between atoms: C_22  and  C_23
REMARK   14  A    between atoms: C_25  and  C_27
REMARK   15  A    between atoms: C_26  and  C_28
REMARK   16  A    between atoms: C_28  and  C_31
REMARK                            x       y       z     vdW  Elec       q    Type
REMARK                         _______ _______ _______ _____ _____    ______ ____
ROOT
ATOM      9  C   UNL     1      -2.168   0.771  25.044  0.00  0.00    -0.023 C 
ATOM     10  C   UNL     1      -3.500   1.570  25.324  0.00  0.00    +0.007 C 
ATOM     11  C   UNL     1      -3.505   3.097  24.932  0.00  0.00    +0.031 C 
ATOM     12  C   UNL     1      -2.293  -0.616  25.801  0.00  0.00    +0.032 C 
ATOM     13  C   UNL     1      -0.981   1.573  25.641  0.00  0.00    +0.011 C 
ATOM     14  C   UNL     1      -4.731   0.776  24.835  0.00  0.00    +0.007 C 
ATOM     15  C   UNL     1      -2.228   3.772  25.520  0.00  0.00    +0.186 C 
ATOM     16  C   UNL     1      -3.559  -1.416  25.414  0.00  0.00    +0.119 C 
ATOM     17  C   UNL     1      -0.936   3.031  25.196  0.00  0.00    +0.046 C 
ATOM     18  C   UNL     1      -4.831  -0.581  25.536  0.00  0.00    +0.032 C 
ATOM     19  C   UNL     1      -1.885   0.546  23.539  0.00  0.00    +0.012 C 
ATOM     21  C   UNL     1      -4.738   3.785  25.587  0.00  0.00    +0.017 C 
ENDROOT
BRANCH  16   2
ATOM      2  O   UNL     1      -3.448  -1.936  24.093  0.00  0.00    -0.391 OA
ATOM     36  H   UNL     1      -3.148  -1.214  23.515  0.00  0.00    +0.210 HD
ENDBRANCH  16   2
BRANCH  15   1
ATOM      1  O   UNL     1      -2.073   5.111  25.049  0.00  0.00    -0.446 OA
BRANCH   1  24
ATOM      5  O   UNL     1      -0.095   6.271  25.181  0.00  0.00    -0.226 OA
ATOM      8  N   UNL     1      -0.505   4.748  23.479  0.00  0.00    -0.281 N 
ATOM     24  C   UNL     1      -0.819   5.455  24.621  0.00  0.00    +0.401 C 
ATOM     39  H   UNL     1      -1.194   4.096  23.117  0.00  0.00    +0.152 HD
BRANCH   8  26
ATOM     26  C   UNL     1       0.749   4.880  22.775  0.00  0.00    +0.107 C 
BRANCH  26  28
ATOM     28  C   UNL     1       0.755   6.067  21.819  0.00  0.00    +0.015 C 
ATOM     31  C   UNL     1       1.950   6.056  20.875  0.00  0.00    +0.005 C 
ENDBRANCH  26  28
ENDBRANCH   8  26
ENDBRANCH   1  24
ENDBRANCH  15   1
BRANCH  11  20
ATOM     20  C   UNL     1      -3.634   3.359  23.418  0.00  0.00    +0.166 C 
BRANCH  20   3
ATOM      3  O   UNL     1      -4.066   4.691  23.244  0.00  0.00    -0.394 OA
ATOM     37  H   UNL     1      -4.206   4.826  22.291  0.00  0.00    +0.209 HD
ENDBRANCH  20   3
ENDBRANCH  11  20
BRANCH  12  22
ATOM     22  C   UNL     1      -1.054  -1.520  25.701  0.00  0.00    +0.102 C 
BRANCH  22  23
ATOM      4  O   UNL     1      -0.918  -2.351  23.432  0.00  0.00    -0.276 OA
ATOM      7  N   UNL     1       0.502  -0.644  24.117  0.00  0.00    -0.311 N 
ATOM     23  C   UNL     1      -0.509  -1.577  24.293  0.00  0.00    +0.214 C 
ATOM     38  H   UNL     1       0.793  -0.067  24.900  0.00  0.00    +0.149 HD
BRANCH   7  25
ATOM     25  C   UNL     1       1.209  -0.474  22.868  0.00  0.00    +0.139 C 
BRANCH  25  27
ATOM     27  C   UNL     1       2.687  -0.310  23.076  0.00  0.00    -0.030 A 
ATOM     29  C   UNL     1       3.318   0.874  22.693  0.00  0.00    +0.009 A 
ATOM     30  C   UNL     1       3.429  -1.339  23.656  0.00  0.00    +0.009 A 
ATOM     32  C   UNL     1       4.690   1.027  22.889  0.00  0.00    +0.046 A 
ATOM     33  C   UNL     1       4.801  -1.185  23.851  0.00  0.00    +0.046 A 
ATOM     34  C   UNL     1       5.431  -0.002  23.468  0.00  0.00    +0.120 A 
BRANCH  34   6
ATOM      6  O   UNL     1       6.771   0.148  23.661  0.00  0.00    -0.495 OA
ATOM     35  C   UNL     1       7.637  -0.621  22.827  0.00  0.00    +0.277 C 
ENDBRANCH  34   6
ENDBRANCH  25  27
ENDBRANCH   7  25
ENDBRANCH  22  23
ENDBRANCH  12  22
TORSDOF 12
ENDMDL
