MODEL 1
REMARK VINA RESULT:      -4.2      0.000      0.000
REMARK  Name = 75536692
REMARK  9 active torsions:
REMARK  status: ('A' for Active; 'I' for Inactive)
REMARK    1  A    between atoms: S_1  and  N_7
REMARK    2  A    between atoms: S_1  and  C_16
REMARK    3  A    between atoms: O_3  and  C_10
REMARK    4  A    between atoms: N_6  and  C_9
REMARK    5  A    between atoms: N_6  and  C_14
REMARK    6  A    between atoms: N_7  and  C_13
REMARK    7  A    between atoms: C_11  and  C_13
REMARK    8  A    between atoms: C_14  and  C_15
REMARK    9  A    between atoms: C_21  and  C_27
REMARK                            x       y       z     vdW  Elec       q    Type
REMARK                         _______ _______ _______ _____ _____    ______ ____
ROOT
ATOM      2  O   UNL     1      -2.603   3.114  23.349  0.00  0.00    -0.371 OA
ATOM      9  C   UNL     1      -4.738   2.475  24.170  0.00  0.00    +0.111 C 
ATOM     10  C   UNL     1      -4.022   3.287  25.234  0.00  0.00    +0.164 C 
ATOM     11  C   UNL     1      -2.988   4.024  24.392  0.00  0.00    +0.164 C 
ATOM     12  C   UNL     1      -3.580   2.061  23.276  0.00  0.00    +0.181 C 
ENDROOT
BRANCH  10   3
ATOM      3  O   UNL     1      -4.884   4.180  25.911  0.00  0.00    -0.388 OA
ATOM     29  H   UNL     1      -5.760   4.140  25.490  0.00  0.00    +0.210 HD
ENDBRANCH  10   3
BRANCH   9   6
ATOM      6  N   UNL     1      -5.477   1.341  24.701  0.00  0.00    -0.305 NA
ATOM     28  H   UNL     1      -5.694   0.699  23.937  0.00  0.00    +0.123 HD
BRANCH   6  14
ATOM     14  C   UNL     1      -4.698   0.631  25.708  0.00  0.00    +0.116 C 
BRANCH  14  15
ATOM     15  C   UNL     1      -4.010  -0.579  25.134  0.00  0.00    -0.032 A 
ATOM     17  C   UNL     1      -2.701  -0.881  25.507  0.00  0.00    +0.023 A 
ATOM     18  C   UNL     1      -4.685  -1.400  24.231  0.00  0.00    +0.005 A 
ATOM     21  C   UNL     1      -2.065  -2.003  24.976  0.00  0.00    +0.052 A 
ATOM     22  C   UNL     1      -4.049  -2.522  23.700  0.00  0.00    +0.002 A 
ATOM     23  C   UNL     1      -2.739  -2.824  24.072  0.00  0.00    +0.019 A 
BRANCH  21  27
ATOM      8  N   UNL     1       0.367  -2.564  25.669  0.00  0.00    -0.191 NA
ATOM     27  C   UNL     1      -0.723  -2.313  25.358  0.00  0.00    +0.099 C 
ENDBRANCH  21  27
ENDBRANCH  14  15
ENDBRANCH   6  14
ENDBRANCH   9   6
BRANCH  11  13
ATOM     13  C   UNL     1      -1.763   4.447  25.182  0.00  0.00    +0.140 C 
BRANCH  13   7
ATOM      7  N   UNL     1      -0.583   3.698  24.706  0.00  0.00    -0.187 NA
ATOM     30  H   UNL     1      -0.376   3.783  23.703  0.00  0.00    +0.148 HD
BRANCH   7   1
ATOM      1  S   UNL     1      -0.081   2.292  25.520  0.00  0.00    +0.058 S 
ATOM      4  O   UNL     1      -1.245   1.574  26.003  0.00  0.00    -0.153 OA
ATOM      5  O   UNL     1       0.994   2.633  26.432  0.00  0.00    -0.153 OA
BRANCH   1  16
ATOM     16  C   UNL     1       0.636   1.349  24.207  0.00  0.00    +0.105 A 
ATOM     19  C   UNL     1      -0.142   0.431  23.502  0.00  0.00    +0.028 A 
ATOM     20  C   UNL     1       1.981   1.523  23.879  0.00  0.00    +0.028 A 
ATOM     24  C   UNL     1       0.426  -0.313  22.467  0.00  0.00    +0.002 A 
ATOM     25  C   UNL     1       2.548   0.778  22.845  0.00  0.00    +0.002 A 
ATOM     26  C   UNL     1       1.770  -0.140  22.139  0.00  0.00    +0.000 A 
ENDBRANCH   1  16
ENDBRANCH   7   1
ENDBRANCH  13   7
ENDBRANCH  11  13
TORSDOF 9
ENDMDL
MODEL 2
REMARK VINA RESULT:      -4.0      2.215      5.169
REMARK  Name = 75536692
REMARK  9 active torsions:
REMARK  status: ('A' for Active; 'I' for Inactive)
REMARK    1  A    between atoms: S_1  and  N_7
REMARK    2  A    between atoms: S_1  and  C_16
REMARK    3  A    between atoms: O_3  and  C_10
REMARK    4  A    between atoms: N_6  and  C_9
REMARK    5  A    between atoms: N_6  and  C_14
REMARK    6  A    between atoms: N_7  and  C_13
REMARK    7  A    between atoms: C_11  and  C_13
REMARK    8  A    between atoms: C_14  and  C_15
REMARK    9  A    between atoms: C_21  and  C_27
REMARK                            x       y       z     vdW  Elec       q    Type
REMARK                         _______ _______ _______ _____ _____    ______ ____
ROOT
ATOM      2  O   UNL     1      -2.202   4.145  26.005  0.00  0.00    -0.371 OA
ATOM      9  C   UNL     1      -0.701   2.488  25.200  0.00  0.00    +0.111 C 
ATOM     10  C   UNL     1      -1.937   2.506  24.320  0.00  0.00    +0.164 C 
ATOM     11  C   UNL     1      -2.491   3.893  24.620  0.00  0.00    +0.164 C 
ATOM     12  C   UNL     1      -1.207   3.203  26.443  0.00  0.00    +0.181 C 
ENDROOT
BRANCH  10   3
ATOM      3  O   UNL     1      -1.632   2.346  22.948  0.00  0.00    -0.388 OA
ATOM     29  H   UNL     1      -2.349   2.745  22.426  0.00  0.00    +0.210 HD
ENDBRANCH  10   3
BRANCH   9   6
ATOM      6  N   UNL     1      -0.202   1.152  25.480  0.00  0.00    -0.305 NA
ATOM     28  H   UNL     1      -0.613   0.820  26.352  0.00  0.00    +0.123 HD
BRANCH   6  14
ATOM     14  C   UNL     1      -0.553   0.226  24.409  0.00  0.00    +0.116 C 
BRANCH  14  15
ATOM     15  C   UNL     1       0.568   0.069  23.415  0.00  0.00    -0.032 A 
ATOM     17  C   UNL     1       1.873   0.403  23.775  0.00  0.00    +0.023 A 
ATOM     18  C   UNL     1       0.299  -0.413  22.134  0.00  0.00    +0.005 A 
ATOM     21  C   UNL     1       2.910   0.256  22.853  0.00  0.00    +0.052 A 
ATOM     22  C   UNL     1       1.336  -0.560  21.213  0.00  0.00    +0.002 A 
ATOM     23  C   UNL     1       2.641  -0.226  21.572  0.00  0.00    +0.019 A 
BRANCH  21  27
ATOM      8  N   UNL     1       5.334   0.878  23.520  0.00  0.00    -0.191 NA
ATOM     27  C   UNL     1       4.247   0.599  23.221  0.00  0.00    +0.099 C 
ENDBRANCH  21  27
ENDBRANCH  14  15
ENDBRANCH   6  14
ENDBRANCH   9   6
BRANCH  11  13
ATOM     13  C   UNL     1      -3.985   4.007  24.378  0.00  0.00    +0.140 C 
BRANCH  13   7
ATOM      7  N   UNL     1      -4.522   2.695  23.967  0.00  0.00    -0.187 NA
ATOM     30  H   UNL     1      -4.697   2.579  22.961  0.00  0.00    +0.148 HD
BRANCH   7   1
ATOM      1  S   UNL     1      -5.441   1.770  25.060  0.00  0.00    +0.058 S 
ATOM      4  O   UNL     1      -6.777   1.583  24.526  0.00  0.00    -0.153 OA
ATOM      5  O   UNL     1      -5.259   2.301  26.397  0.00  0.00    -0.153 OA
BRANCH   1  16
ATOM     16  C   UNL     1      -4.608   0.212  25.006  0.00  0.00    +0.105 A 
ATOM     19  C   UNL     1      -4.679  -0.578  23.859  0.00  0.00    +0.028 A 
ATOM     20  C   UNL     1      -3.883  -0.229  26.114  0.00  0.00    +0.028 A 
ATOM     24  C   UNL     1      -4.022  -1.808  23.818  0.00  0.00    +0.002 A 
ATOM     25  C   UNL     1      -3.228  -1.459  26.073  0.00  0.00    +0.002 A 
ATOM     26  C   UNL     1      -3.297  -2.249  24.925  0.00  0.00    +0.000 A 
ENDBRANCH   1  16
ENDBRANCH   7   1
ENDBRANCH  13   7
ENDBRANCH  11  13
TORSDOF 9
ENDMDL
MODEL 3
REMARK VINA RESULT:      -3.9      2.448      5.036
REMARK  Name = 75536692
REMARK  9 active torsions:
REMARK  status: ('A' for Active; 'I' for Inactive)
REMARK    1  A    between atoms: S_1  and  N_7
REMARK    2  A    between atoms: S_1  and  C_16
REMARK    3  A    between atoms: O_3  and  C_10
REMARK    4  A    between atoms: N_6  and  C_9
REMARK    5  A    between atoms: N_6  and  C_14
REMARK    6  A    between atoms: N_7  and  C_13
REMARK    7  A    between atoms: C_11  and  C_13
REMARK    8  A    between atoms: C_14  and  C_15
REMARK    9  A    between atoms: C_21  and  C_27
REMARK                            x       y       z     vdW  Elec       q    Type
REMARK                         _______ _______ _______ _____ _____    ______ ____
ROOT
ATOM      2  O   UNL     1      -1.029  -1.214  25.816  0.00  0.00    -0.371 OA
ATOM      9  C   UNL     1      -3.401  -1.324  25.771  0.00  0.00    +0.111 C 
ATOM     10  C   UNL     1      -2.861  -1.719  24.409  0.00  0.00    +0.164 C 
ATOM     11  C   UNL     1      -1.430  -2.103  24.761  0.00  0.00    +0.164 C 
ATOM     12  C   UNL     1      -2.206  -0.601  26.370  0.00  0.00    +0.181 C 
ENDROOT
BRANCH  10   3
ATOM      3  O   UNL     1      -3.570  -2.800  23.834  0.00  0.00    -0.388 OA
ATOM     29  H   UNL     1      -3.125  -3.054  23.008  0.00  0.00    +0.210 HD
ENDBRANCH  10   3
BRANCH   9   6
ATOM      6  N   UNL     1      -4.592  -0.494  25.709  0.00  0.00    -0.305 NA
ATOM     28  H   UNL     1      -4.625   0.104  26.536  0.00  0.00    +0.123 HD
BRANCH   6  14
ATOM     14  C   UNL     1      -4.585   0.347  24.518  0.00  0.00    +0.116 C 
BRANCH  14  15
ATOM     15  C   UNL     1      -4.469   1.809  24.865  0.00  0.00    -0.032 A 
ATOM     17  C   UNL     1      -3.230   2.446  24.800  0.00  0.00    +0.023 A 
ATOM     18  C   UNL     1      -5.603   2.524  25.249  0.00  0.00    +0.005 A 
ATOM     21  C   UNL     1      -3.125   3.800  25.121  0.00  0.00    +0.052 A 
ATOM     22  C   UNL     1      -5.497   3.878  25.570  0.00  0.00    +0.002 A 
ATOM     23  C   UNL     1      -4.259   4.516  25.506  0.00  0.00    +0.019 A 
BRANCH  21  27
ATOM      8  N   UNL     1      -0.825   4.984  25.001  0.00  0.00    -0.191 NA
ATOM     27  C   UNL     1      -1.856   4.454  25.055  0.00  0.00    +0.099 C 
ENDBRANCH  21  27
ENDBRANCH  14  15
ENDBRANCH   6  14
ENDBRANCH   9   6
BRANCH  11  13
ATOM     13  C   UNL     1      -0.471  -1.978  23.591  0.00  0.00    +0.140 C 
BRANCH  13   7
ATOM      7  N   UNL     1       0.691  -1.157  23.989  0.00  0.00    -0.187 NA
ATOM     30  H   UNL     1       0.806  -1.008  24.999  0.00  0.00    +0.148 HD
BRANCH   7   1
ATOM      1  S   UNL     1       1.315   0.010  22.921  0.00  0.00    +0.058 S 
ATOM      4  O   UNL     1       0.887   1.329  23.346  0.00  0.00    -0.153 OA
ATOM      5  O   UNL     1       1.084  -0.427  21.558  0.00  0.00    -0.153 OA
BRANCH   1  16
ATOM     16  C   UNL     1       3.053  -0.121  23.218  0.00  0.00    +0.105 A 
ATOM     19  C   UNL     1       3.592  -1.315  23.697  0.00  0.00    +0.028 A 
ATOM     20  C   UNL     1       3.885   0.972  22.974  0.00  0.00    +0.028 A 
ATOM     24  C   UNL     1       4.963  -1.416  23.932  0.00  0.00    +0.002 A 
ATOM     25  C   UNL     1       5.256   0.871  23.211  0.00  0.00    +0.002 A 
ATOM     26  C   UNL     1       5.795  -0.323  23.689  0.00  0.00    +0.000 A 
ENDBRANCH   1  16
ENDBRANCH   7   1
ENDBRANCH  13   7
ENDBRANCH  11  13
TORSDOF 9
ENDMDL
MODEL 4
REMARK VINA RESULT:      -3.7      2.235      2.711
REMARK  Name = 75536692
REMARK  9 active torsions:
REMARK  status: ('A' for Active; 'I' for Inactive)
REMARK    1  A    between atoms: S_1  and  N_7
REMARK    2  A    between atoms: S_1  and  C_16
REMARK    3  A    between atoms: O_3  and  C_10
REMARK    4  A    between atoms: N_6  and  C_9
REMARK    5  A    between atoms: N_6  and  C_14
REMARK    6  A    between atoms: N_7  and  C_13
REMARK    7  A    between atoms: C_11  and  C_13
REMARK    8  A    between atoms: C_14  and  C_15
REMARK    9  A    between atoms: C_21  and  C_27
REMARK                            x       y       z     vdW  Elec       q    Type
REMARK                         _______ _______ _______ _____ _____    ______ ____
ROOT
ATOM      2  O   UNL     1      -1.400   2.029  22.638  0.00  0.00    -0.371 OA
ATOM      9  C   UNL     1      -3.346   2.729  23.807  0.00  0.00    +0.111 C 
ATOM     10  C   UNL     1      -2.211   2.548  24.798  0.00  0.00    +0.164 C 
ATOM     11  C   UNL     1      -1.001   2.637  23.878  0.00  0.00    +0.164 C 
ATOM     12  C   UNL     1      -2.835   1.933  22.616  0.00  0.00    +0.181 C 
ENDROOT
BRANCH  10   3
ATOM      3  O   UNL     1      -2.191   3.553  25.793  0.00  0.00    -0.388 OA
ATOM     29  H   UNL     1      -3.019   3.500  26.300  0.00  0.00    +0.210 HD
ENDBRANCH  10   3
BRANCH   9   6
ATOM      6  N   UNL     1      -4.630   2.254  24.296  0.00  0.00    -0.305 NA
ATOM     28  H   UNL     1      -5.106   1.752  23.546  0.00  0.00    +0.123 HD
BRANCH   6  14
ATOM     14  C   UNL     1      -4.460   1.356  25.432  0.00  0.00    +0.116 C 
BRANCH  14  15
ATOM     15  C   UNL     1      -3.999  -0.011  25.001  0.00  0.00    -0.032 A 
ATOM     17  C   UNL     1      -2.757  -0.492  25.415  0.00  0.00    +0.023 A 
ATOM     18  C   UNL     1      -4.816  -0.797  24.189  0.00  0.00    +0.005 A 
ATOM     21  C   UNL     1      -2.332  -1.759  25.016  0.00  0.00    +0.052 A 
ATOM     22  C   UNL     1      -4.391  -2.065  23.790  0.00  0.00    +0.002 A 
ATOM     23  C   UNL     1      -3.149  -2.546  24.204  0.00  0.00    +0.019 A 
BRANCH  21  27
ATOM      8  N   UNL     1      -0.026  -2.655  25.785  0.00  0.00    -0.191 NA
ATOM     27  C   UNL     1      -1.060  -2.253  25.440  0.00  0.00    +0.099 C 
ENDBRANCH  21  27
ENDBRANCH  14  15
ENDBRANCH   6  14
ENDBRANCH   9   6
BRANCH  11  13
ATOM     13  C   UNL     1       0.223   1.926  24.427  0.00  0.00    +0.140 C 
BRANCH  13   7
ATOM      7  N   UNL     1       1.163   1.637  23.326  0.00  0.00    -0.187 NA
ATOM     30  H   UNL     1       1.270   2.380  22.624  0.00  0.00    +0.148 HD
BRANCH   7   1
ATOM      1  S   UNL     1       1.454   0.029  22.854  0.00  0.00    +0.058 S 
ATOM      4  O   UNL     1       1.295  -0.088  21.417  0.00  0.00    -0.153 OA
ATOM      5  O   UNL     1       0.731  -0.861  23.741  0.00  0.00    -0.153 OA
BRANCH   1  16
ATOM     16  C   UNL     1       3.172  -0.154  23.230  0.00  0.00    +0.105 A 
ATOM     19  C   UNL     1       3.661  -1.378  23.686  0.00  0.00    +0.028 A 
ATOM     20  C   UNL     1       4.038   0.929  23.072  0.00  0.00    +0.028 A 
ATOM     24  C   UNL     1       5.017  -1.520  23.983  0.00  0.00    +0.002 A 
ATOM     25  C   UNL     1       5.393   0.787  23.371  0.00  0.00    +0.002 A 
ATOM     26  C   UNL     1       5.882  -0.438  23.826  0.00  0.00    +0.000 A 
ENDBRANCH   1  16
ENDBRANCH   7   1
ENDBRANCH  13   7
ENDBRANCH  11  13
TORSDOF 9
ENDMDL
MODEL 5
REMARK VINA RESULT:      -3.3      2.463      5.138
REMARK  Name = 75536692
REMARK  9 active torsions:
REMARK  status: ('A' for Active; 'I' for Inactive)
REMARK    1  A    between atoms: S_1  and  N_7
REMARK    2  A    between atoms: S_1  and  C_16
REMARK    3  A    between atoms: O_3  and  C_10
REMARK    4  A    between atoms: N_6  and  C_9
REMARK    5  A    between atoms: N_6  and  C_14
REMARK    6  A    between atoms: N_7  and  C_13
REMARK    7  A    between atoms: C_11  and  C_13
REMARK    8  A    between atoms: C_14  and  C_15
REMARK    9  A    between atoms: C_21  and  C_27
REMARK                            x       y       z     vdW  Elec       q    Type
REMARK                         _______ _______ _______ _____ _____    ______ ____
ROOT
ATOM      2  O   UNL     1      -1.021  -1.022  26.432  0.00  0.00    -0.371 OA
ATOM      9  C   UNL     1      -3.058  -1.955  25.642  0.00  0.00    +0.111 C 
ATOM     10  C   UNL     1      -2.014  -2.048  24.546  0.00  0.00    +0.164 C 
ATOM     11  C   UNL     1      -0.728  -1.926  25.354  0.00  0.00    +0.164 C 
ATOM     12  C   UNL     1      -2.449  -0.897  26.549  0.00  0.00    +0.181 C 
ENDROOT
BRANCH  10   3
ATOM      3  O   UNL     1      -2.076  -3.269  23.835  0.00  0.00    -0.388 OA
ATOM     29  H   UNL     1      -1.401  -3.251  23.135  0.00  0.00    +0.210 HD
ENDBRANCH  10   3
BRANCH   9   6
ATOM      6  N   UNL     1      -4.381  -1.593  25.160  0.00  0.00    -0.305 NA
ATOM     28  H   UNL     1      -4.758  -0.850  25.750  0.00  0.00    +0.123 HD
BRANCH   6  14
ATOM     14  C   UNL     1      -4.326  -1.121  23.782  0.00  0.00    +0.116 C 
BRANCH  14  15
ATOM     15  C   UNL     1      -4.158   0.374  23.708  0.00  0.00    -0.032 A 
ATOM     17  C   UNL     1      -4.886   1.202  24.561  0.00  0.00    +0.023 A 
ATOM     18  C   UNL     1      -3.270   0.929  22.787  0.00  0.00    +0.005 A 
ATOM     21  C   UNL     1      -4.728   2.586  24.492  0.00  0.00    +0.052 A 
ATOM     22  C   UNL     1      -3.112   2.313  22.718  0.00  0.00    +0.002 A 
ATOM     23  C   UNL     1      -3.840   3.143  23.571  0.00  0.00    +0.019 A 
BRANCH  21  27
ATOM      8  N   UNL     1      -6.082   4.125  26.076  0.00  0.00    -0.191 NA
ATOM     27  C   UNL     1      -5.475   3.436  25.366  0.00  0.00    +0.099 C 
ENDBRANCH  21  27
ENDBRANCH  14  15
ENDBRANCH   6  14
ENDBRANCH   9   6
BRANCH  11  13
ATOM     13  C   UNL     1       0.442  -1.398  24.544  0.00  0.00    +0.140 C 
BRANCH  13   7
ATOM      7  N   UNL     1       0.698   0.011  24.905  0.00  0.00    -0.187 NA
ATOM     30  H   UNL     1       0.419   0.285  25.856  0.00  0.00    +0.148 HD
BRANCH   7   1
ATOM      1  S   UNL     1       0.741   1.206  23.696  0.00  0.00    +0.058 S 
ATOM      4  O   UNL     1      -0.027   0.759  22.550  0.00  0.00    -0.153 OA
ATOM      5  O   UNL     1       2.108   1.657  23.526  0.00  0.00    -0.153 OA
BRANCH   1  16
ATOM     16  C   UNL     1      -0.146   2.529  24.464  0.00  0.00    +0.105 A 
ATOM     19  C   UNL     1      -0.076   3.817  23.933  0.00  0.00    +0.028 A 
ATOM     20  C   UNL     1      -0.914   2.285  25.603  0.00  0.00    +0.028 A 
ATOM     24  C   UNL     1      -0.775   4.860  24.540  0.00  0.00    +0.002 A 
ATOM     25  C   UNL     1      -1.611   3.328  26.211  0.00  0.00    +0.002 A 
ATOM     26  C   UNL     1      -1.542   4.616  25.679  0.00  0.00    +0.000 A 
ENDBRANCH   1  16
ENDBRANCH   7   1
ENDBRANCH  13   7
ENDBRANCH  11  13
TORSDOF 9
ENDMDL
MODEL 6
REMARK VINA RESULT:      -3.1      2.122      4.679
REMARK  Name = 75536692
REMARK  9 active torsions:
REMARK  status: ('A' for Active; 'I' for Inactive)
REMARK    1  A    between atoms: S_1  and  N_7
REMARK    2  A    between atoms: S_1  and  C_16
REMARK    3  A    between atoms: O_3  and  C_10
REMARK    4  A    between atoms: N_6  and  C_9
REMARK    5  A    between atoms: N_6  and  C_14
REMARK    6  A    between atoms: N_7  and  C_13
REMARK    7  A    between atoms: C_11  and  C_13
REMARK    8  A    between atoms: C_14  and  C_15
REMARK    9  A    between atoms: C_21  and  C_27
REMARK                            x       y       z     vdW  Elec       q    Type
REMARK                         _______ _______ _______ _____ _____    ______ ____
ROOT
ATOM      2  O   UNL     1      -3.875   3.470  26.188  0.00  0.00    -0.371 OA
ATOM      9  C   UNL     1      -2.230   3.962  24.546  0.00  0.00    +0.111 C 
ATOM     10  C   UNL     1      -3.199   2.937  23.986  0.00  0.00    +0.164 C 
ATOM     11  C   UNL     1      -4.405   3.146  24.893  0.00  0.00    +0.164 C 
ATOM     12  C   UNL     1      -2.492   3.838  26.039  0.00  0.00    +0.181 C 
ENDROOT
BRANCH  10   3
ATOM      3  O   UNL     1      -3.515   3.171  22.627  0.00  0.00    -0.388 OA
ATOM     29  H   UNL     1      -3.736   4.112  22.521  0.00  0.00    +0.210 HD
ENDBRANCH  10   3
BRANCH   9   6
ATOM      6  N   UNL     1      -0.843   3.709  24.192  0.00  0.00    -0.305 NA
ATOM     28  H   UNL     1      -0.285   4.529  24.431  0.00  0.00    +0.123 HD
BRANCH   6  14
ATOM     14  C   UNL     1      -0.319   2.555  24.912  0.00  0.00    +0.116 C 
BRANCH  14  15
ATOM     15  C   UNL     1       0.370   1.585  23.989  0.00  0.00    -0.032 A 
ATOM     17  C   UNL     1       1.763   1.528  23.949  0.00  0.00    +0.023 A 
ATOM     18  C   UNL     1      -0.386   0.740  23.176  0.00  0.00    +0.005 A 
ATOM     21  C   UNL     1       2.400   0.629  23.094  0.00  0.00    +0.052 A 
ATOM     22  C   UNL     1       0.252  -0.159  22.322  0.00  0.00    +0.002 A 
ATOM     23  C   UNL     1       1.645  -0.216  22.280  0.00  0.00    +0.019 A 
BRANCH  21  27
ATOM      8  N   UNL     1       4.987   0.523  23.018  0.00  0.00    -0.191 NA
ATOM     27  C   UNL     1       3.828   0.571  23.052  0.00  0.00    +0.099 C 
ENDBRANCH  21  27
ENDBRANCH  14  15
ENDBRANCH   6  14
ENDBRANCH   9   6
BRANCH  11  13
ATOM     13  C   UNL     1      -5.297   1.922  24.995  0.00  0.00    +0.140 C 
BRANCH  13   7
ATOM      7  N   UNL     1      -4.483   0.743  25.350  0.00  0.00    -0.187 NA
ATOM     30  H   UNL     1      -3.845   0.865  26.146  0.00  0.00    +0.148 HD
BRANCH   7   1
ATOM      1  S   UNL     1      -4.084  -0.406  24.160  0.00  0.00    +0.058 S 
ATOM      4  O   UNL     1      -3.787   0.275  22.914  0.00  0.00    -0.153 OA
ATOM      5  O   UNL     1      -5.063  -1.475  24.190  0.00  0.00    -0.153 OA
BRANCH   1  16
ATOM     16  C   UNL     1      -2.573  -1.072  24.792  0.00  0.00    +0.105 A 
ATOM     19  C   UNL     1      -2.030  -2.226  24.230  0.00  0.00    +0.028 A 
ATOM     20  C   UNL     1      -1.926  -0.442  25.856  0.00  0.00    +0.028 A 
ATOM     24  C   UNL     1      -0.839  -2.752  24.730  0.00  0.00    +0.002 A 
ATOM     25  C   UNL     1      -0.735  -0.969  26.357  0.00  0.00    +0.002 A 
ATOM     26  C   UNL     1      -0.192  -2.123  25.794  0.00  0.00    +0.000 A 
ENDBRANCH   1  16
ENDBRANCH   7   1
ENDBRANCH  13   7
ENDBRANCH  11  13
TORSDOF 9
ENDMDL
MODEL 7
REMARK VINA RESULT:      -3.0      2.480      4.097
REMARK  Name = 75536692
REMARK  9 active torsions:
REMARK  status: ('A' for Active; 'I' for Inactive)
REMARK    1  A    between atoms: S_1  and  N_7
REMARK    2  A    between atoms: S_1  and  C_16
REMARK    3  A    between atoms: O_3  and  C_10
REMARK    4  A    between atoms: N_6  and  C_9
REMARK    5  A    between atoms: N_6  and  C_14
REMARK    6  A    between atoms: N_7  and  C_13
REMARK    7  A    between atoms: C_11  and  C_13
REMARK    8  A    between atoms: C_14  and  C_15
REMARK    9  A    between atoms: C_21  and  C_27
REMARK                            x       y       z     vdW  Elec       q    Type
REMARK                         _______ _______ _______ _____ _____    ______ ____
ROOT
ATOM      2  O   UNL     1       0.177   3.617  23.861  0.00  0.00    -0.371 OA
ATOM      9  C   UNL     1      -1.420   4.559  25.346  0.00  0.00    +0.111 C 
ATOM     10  C   UNL     1      -1.183   3.110  25.728  0.00  0.00    +0.164 C 
ATOM     11  C   UNL     1       0.170   2.852  25.077  0.00  0.00    +0.164 C 
ATOM     12  C   UNL     1      -0.883   4.587  23.924  0.00  0.00    +0.181 C 
ENDROOT
BRANCH  10   3
ATOM      3  O   UNL     1      -1.140   2.915  27.128  0.00  0.00    -0.388 OA
ATOM     29  H   UNL     1      -0.699   2.067  27.306  0.00  0.00    +0.210 HD
ENDBRANCH  10   3
BRANCH   9   6
ATOM      6  N   UNL     1      -2.812   4.967  25.434  0.00  0.00    -0.305 NA
ATOM     28  H   UNL     1      -2.864   5.985  25.388  0.00  0.00    +0.123 HD
BRANCH   6  14
ATOM     14  C   UNL     1      -3.594   4.405  24.338  0.00  0.00    +0.116 C 
BRANCH  14  15
ATOM     15  C   UNL     1      -4.352   3.175  24.765  0.00  0.00    -0.032 A 
ATOM     17  C   UNL     1      -3.952   1.917  24.314  0.00  0.00    +0.023 A 
ATOM     18  C   UNL     1      -5.452   3.295  25.612  0.00  0.00    +0.005 A 
ATOM     21  C   UNL     1      -4.654   0.779  24.710  0.00  0.00    +0.052 A 
ATOM     22  C   UNL     1      -6.154   2.157  26.009  0.00  0.00    +0.002 A 
ATOM     23  C   UNL     1      -5.756   0.898  25.558  0.00  0.00    +0.019 A 
BRANCH  21  27
ATOM      8  N   UNL     1      -3.914  -1.558  23.873  0.00  0.00    -0.191 NA
ATOM     27  C   UNL     1      -4.245  -0.510  24.249  0.00  0.00    +0.099 C 
ENDBRANCH  21  27
ENDBRANCH  14  15
ENDBRANCH   6  14
ENDBRANCH   9   6
BRANCH  11  13
ATOM     13  C   UNL     1       0.415   1.387  24.763  0.00  0.00    +0.140 C 
BRANCH  13   7
ATOM      7  N   UNL     1       0.848   1.247  23.359  0.00  0.00    -0.187 NA
ATOM     30  H   UNL     1       0.451   1.927  22.700  0.00  0.00    +0.148 HD
BRANCH   7   1
ATOM      1  S   UNL     1       1.331  -0.272  22.764  0.00  0.00    +0.058 S 
ATOM      4  O   UNL     1       1.199  -0.286  21.319  0.00  0.00    -0.153 OA
ATOM      5  O   UNL     1       0.709  -1.310  23.562  0.00  0.00    -0.153 OA
BRANCH   1  16
ATOM     16  C   UNL     1       3.055  -0.283  23.154  0.00  0.00    +0.105 A 
ATOM     19  C   UNL     1       3.639  -1.425  23.701  0.00  0.00    +0.028 A 
ATOM     20  C   UNL     1       3.830   0.853  22.918  0.00  0.00    +0.028 A 
ATOM     24  C   UNL     1       5.000  -1.432  24.010  0.00  0.00    +0.002 A 
ATOM     25  C   UNL     1       5.190   0.846  23.228  0.00  0.00    +0.002 A 
ATOM     26  C   UNL     1       5.774  -0.297  23.774  0.00  0.00    +0.000 A 
ENDBRANCH   1  16
ENDBRANCH   7   1
ENDBRANCH  13   7
ENDBRANCH  11  13
TORSDOF 9
ENDMDL
MODEL 8
REMARK VINA RESULT:      -2.8      2.059      5.092
REMARK  Name = 75536692
REMARK  9 active torsions:
REMARK  status: ('A' for Active; 'I' for Inactive)
REMARK    1  A    between atoms: S_1  and  N_7
REMARK    2  A    between atoms: S_1  and  C_16
REMARK    3  A    between atoms: O_3  and  C_10
REMARK    4  A    between atoms: N_6  and  C_9
REMARK    5  A    between atoms: N_6  and  C_14
REMARK    6  A    between atoms: N_7  and  C_13
REMARK    7  A    between atoms: C_11  and  C_13
REMARK    8  A    between atoms: C_14  and  C_15
REMARK    9  A    between atoms: C_21  and  C_27
REMARK                            x       y       z     vdW  Elec       q    Type
REMARK                         _______ _______ _______ _____ _____    ______ ____
ROOT
ATOM      2  O   UNL     1       0.279   3.462  23.436  0.00  0.00    -0.371 OA
ATOM      9  C   UNL     1      -0.638   4.203  25.498  0.00  0.00    +0.111 C 
ATOM     10  C   UNL     1      -0.428   2.702  25.561  0.00  0.00    +0.164 C 
ATOM     11  C   UNL     1       0.602   2.503  24.457  0.00  0.00    +0.164 C 
ATOM     12  C   UNL     1      -0.603   4.450  23.999  0.00  0.00    +0.181 C 
ENDROOT
BRANCH  10   3
ATOM      3  O   UNL     1       0.058   2.271  26.818  0.00  0.00    -0.388 OA
ATOM     29  H   UNL     1       0.570   1.456  26.685  0.00  0.00    +0.210 HD
ENDBRANCH  10   3
BRANCH   9   6
ATOM      6  N   UNL     1      -1.877   4.646  26.116  0.00  0.00    -0.305 NA
ATOM     28  H   UNL     1      -1.692   5.482  26.672  0.00  0.00    +0.123 HD
BRANCH   6  14
ATOM     14  C   UNL     1      -2.882   4.963  25.108  0.00  0.00    +0.116 C 
BRANCH  14  15
ATOM     15  C   UNL     1      -3.818   3.808  24.868  0.00  0.00    -0.032 A 
ATOM     17  C   UNL     1      -4.674   3.380  25.882  0.00  0.00    +0.023 A 
ATOM     18  C   UNL     1      -3.831   3.169  23.628  0.00  0.00    +0.005 A 
ATOM     21  C   UNL     1      -5.541   2.311  25.658  0.00  0.00    +0.052 A 
ATOM     22  C   UNL     1      -4.698   2.100  23.404  0.00  0.00    +0.002 A 
ATOM     23  C   UNL     1      -5.554   1.670  24.418  0.00  0.00    +0.019 A 
BRANCH  21  27
ATOM      8  N   UNL     1      -7.130   1.515  27.542  0.00  0.00    -0.191 NA
ATOM     27  C   UNL     1      -6.418   1.871  26.697  0.00  0.00    +0.099 C 
ENDBRANCH  21  27
ENDBRANCH  14  15
ENDBRANCH   6  14
ENDBRANCH   9   6
BRANCH  11  13
ATOM     13  C   UNL     1       0.588   1.104  23.868  0.00  0.00    +0.140 C 
BRANCH  13   7
ATOM      7  N   UNL     1      -0.710   0.460  24.151  0.00  0.00    -0.187 NA
ATOM     30  H   UNL     1      -1.533   1.074  24.097  0.00  0.00    +0.148 HD
BRANCH   7   1
ATOM      1  S   UNL     1      -0.782  -0.904  25.164  0.00  0.00    +0.058 S 
ATOM      4  O   UNL     1      -0.973  -0.476  26.536  0.00  0.00    -0.153 OA
ATOM      5  O   UNL     1       0.306  -1.801  24.825  0.00  0.00    -0.153 OA
BRANCH   1  16
ATOM     16  C   UNL     1      -2.276  -1.679  24.622  0.00  0.00    +0.105 A 
ATOM     19  C   UNL     1      -3.368  -0.900  24.240  0.00  0.00    +0.028 A 
ATOM     20  C   UNL     1      -2.363  -3.071  24.579  0.00  0.00    +0.028 A 
ATOM     24  C   UNL     1      -4.547  -1.512  23.814  0.00  0.00    +0.002 A 
ATOM     25  C   UNL     1      -3.543  -3.683  24.155  0.00  0.00    +0.002 A 
ATOM     26  C   UNL     1      -4.634  -2.904  23.772  0.00  0.00    +0.000 A 
ENDBRANCH   1  16
ENDBRANCH   7   1
ENDBRANCH  13   7
ENDBRANCH  11  13
TORSDOF 9
ENDMDL
MODEL 9
REMARK VINA RESULT:      -2.5      2.216      4.055
REMARK  Name = 75536692
REMARK  9 active torsions:
REMARK  status: ('A' for Active; 'I' for Inactive)
REMARK    1  A    between atoms: S_1  and  N_7
REMARK    2  A    between atoms: S_1  and  C_16
REMARK    3  A    between atoms: O_3  and  C_10
REMARK    4  A    between atoms: N_6  and  C_9
REMARK    5  A    between atoms: N_6  and  C_14
REMARK    6  A    between atoms: N_7  and  C_13
REMARK    7  A    between atoms: C_11  and  C_13
REMARK    8  A    between atoms: C_14  and  C_15
REMARK    9  A    between atoms: C_21  and  C_27
REMARK                            x       y       z     vdW  Elec       q    Type
REMARK                         _______ _______ _______ _____ _____    ______ ____
ROOT
ATOM      2  O   UNL     1       0.159   4.052  24.910  0.00  0.00    -0.371 OA
ATOM      9  C   UNL     1      -2.013   4.941  25.276  0.00  0.00    +0.111 C 
ATOM     10  C   UNL     1      -1.916   3.581  25.943  0.00  0.00    +0.164 C 
ATOM     11  C   UNL     1      -0.407   3.426  26.073  0.00  0.00    +0.164 C 
ATOM     12  C   UNL     1      -0.846   4.883  24.303  0.00  0.00    +0.181 C 
ENDROOT
BRANCH  10   3
ATOM      3  O   UNL     1      -2.561   3.544  27.201  0.00  0.00    -0.388 OA
ATOM     29  H   UNL     1      -2.898   4.434  27.400  0.00  0.00    +0.210 HD
ENDBRANCH  10   3
BRANCH   9   6
ATOM      6  N   UNL     1      -3.287   5.179  24.617  0.00  0.00    -0.305 NA
ATOM     28  H   UNL     1      -3.241   6.067  24.115  0.00  0.00    +0.123 HD
BRANCH   6  14
ATOM     14  C   UNL     1      -3.595   4.116  23.668  0.00  0.00    +0.116 C 
BRANCH  14  15
ATOM     15  C   UNL     1      -4.362   2.992  24.316  0.00  0.00    -0.032 A 
ATOM     17  C   UNL     1      -4.162   1.677  23.896  0.00  0.00    +0.023 A 
ATOM     18  C   UNL     1      -5.270   3.268  25.338  0.00  0.00    +0.005 A 
ATOM     21  C   UNL     1      -4.872   0.638  24.497  0.00  0.00    +0.052 A 
ATOM     22  C   UNL     1      -5.980   2.229  25.939  0.00  0.00    +0.002 A 
ATOM     23  C   UNL     1      -5.781   0.913  25.519  0.00  0.00    +0.019 A 
BRANCH  21  27
ATOM      8  N   UNL     1      -4.503  -1.804  23.717  0.00  0.00    -0.191 NA
ATOM     27  C   UNL     1      -4.668  -0.709  24.067  0.00  0.00    +0.099 C 
ENDBRANCH  21  27
ENDBRANCH  14  15
ENDBRANCH   6  14
ENDBRANCH   9   6
BRANCH  11  13
ATOM     13  C   UNL     1       0.043   1.978  26.147  0.00  0.00    +0.140 C 
BRANCH  13   7
ATOM      7  N   UNL     1       0.804   1.633  24.929  0.00  0.00    -0.187 NA
ATOM     30  H   UNL     1       1.594   2.251  24.708  0.00  0.00    +0.148 HD
BRANCH   7   1
ATOM      1  S   UNL     1       0.042   0.804  23.655  0.00  0.00    +0.058 S 
ATOM      4  O   UNL     1       1.047   0.155  22.835  0.00  0.00    -0.153 OA
ATOM      5  O   UNL     1      -0.943   1.676  23.045  0.00  0.00    -0.153 OA
BRANCH   1  16
ATOM     16  C   UNL     1      -0.849  -0.453  24.522  0.00  0.00    +0.105 A 
ATOM     19  C   UNL     1      -0.894  -1.752  24.017  0.00  0.00    +0.028 A 
ATOM     20  C   UNL     1      -1.510  -0.143  25.712  0.00  0.00    +0.028 A 
ATOM     24  C   UNL     1      -1.599  -2.742  24.702  0.00  0.00    +0.002 A 
ATOM     25  C   UNL     1      -2.216  -1.133  26.395  0.00  0.00    +0.002 A 
ATOM     26  C   UNL     1      -2.260  -2.433  25.890  0.00  0.00    +0.000 A 
ENDBRANCH   1  16
ENDBRANCH   7   1
ENDBRANCH  13   7
ENDBRANCH  11  13
TORSDOF 9
ENDMDL
MODEL 10
REMARK VINA RESULT:      -2.5      2.453      6.133
REMARK  Name = 75536692
REMARK  9 active torsions:
REMARK  status: ('A' for Active; 'I' for Inactive)
REMARK    1  A    between atoms: S_1  and  N_7
REMARK    2  A    between atoms: S_1  and  C_16
REMARK    3  A    between atoms: O_3  and  C_10
REMARK    4  A    between atoms: N_6  and  C_9
REMARK    5  A    between atoms: N_6  and  C_14
REMARK    6  A    between atoms: N_7  and  C_13
REMARK    7  A    between atoms: C_11  and  C_13
REMARK    8  A    between atoms: C_14  and  C_15
REMARK    9  A    between atoms: C_21  and  C_27
REMARK                            x       y       z     vdW  Elec       q    Type
REMARK                         _______ _______ _______ _____ _____    ______ ____
ROOT
ATOM      2  O   UNL     1       0.349  -1.631  23.396  0.00  0.00    -0.371 OA
ATOM      9  C   UNL     1       0.661   0.488  24.424  0.00  0.00    +0.111 C 
ATOM     10  C   UNL     1      -0.534  -0.199  25.058  0.00  0.00    +0.164 C 
ATOM     11  C   UNL     1      -0.263  -1.653  24.696  0.00  0.00    +0.164 C 
ATOM     12  C   UNL     1       0.804  -0.293  23.127  0.00  0.00    +0.181 C 
ENDROOT
BRANCH  10   3
ATOM      3  O   UNL     1      -0.594  -0.008  26.458  0.00  0.00    -0.388 OA
ATOM     29  H   UNL     1      -0.912  -0.831  26.867  0.00  0.00    +0.210 HD
ENDBRANCH  10   3
BRANCH   9   6
ATOM      6  N   UNL     1       0.470   1.913  24.209  0.00  0.00    -0.305 NA
ATOM     28  H   UNL     1      -0.384   2.056  23.668  0.00  0.00    +0.123 HD
BRANCH   6  14
ATOM     14  C   UNL     1       0.351   2.624  25.476  0.00  0.00    +0.116 C 
BRANCH  14  15
ATOM     15  C   UNL     1      -0.804   3.590  25.470  0.00  0.00    -0.032 A 
ATOM     17  C   UNL     1      -2.058   3.183  25.924  0.00  0.00    +0.023 A 
ATOM     18  C   UNL     1      -0.618   4.894  25.011  0.00  0.00    +0.005 A 
ATOM     21  C   UNL     1      -3.127   4.080  25.919  0.00  0.00    +0.052 A 
ATOM     22  C   UNL     1      -1.686   5.791  25.006  0.00  0.00    +0.002 A 
ATOM     23  C   UNL     1      -2.941   5.384  25.460  0.00  0.00    +0.019 A 
BRANCH  21  27
ATOM      8  N   UNL     1      -5.456   3.324  26.762  0.00  0.00    -0.191 NA
ATOM     27  C   UNL     1      -4.412   3.663  26.384  0.00  0.00    +0.099 C 
ENDBRANCH  21  27
ENDBRANCH  14  15
ENDBRANCH   6  14
ENDBRANCH   9   6
BRANCH  11  13
ATOM     13  C   UNL     1      -1.519  -2.506  24.656  0.00  0.00    +0.140 C 
BRANCH  13   7
ATOM      7  N   UNL     1      -2.532  -1.855  23.802  0.00  0.00    -0.187 NA
ATOM     30  H   UNL     1      -2.201  -1.531  22.885  0.00  0.00    +0.148 HD
BRANCH   7   1
ATOM      1  S   UNL     1      -3.862  -1.065  24.509  0.00  0.00    +0.058 S 
ATOM      4  O   UNL     1      -3.636  -0.924  25.934  0.00  0.00    -0.153 OA
ATOM      5  O   UNL     1      -5.085  -1.672  24.022  0.00  0.00    -0.153 OA
BRANCH   1  16
ATOM     16  C   UNL     1      -3.758   0.542  23.779  0.00  0.00    +0.105 A 
ATOM     19  C   UNL     1      -4.759   1.483  24.017  0.00  0.00    +0.028 A 
ATOM     20  C   UNL     1      -2.674   0.867  22.962  0.00  0.00    +0.028 A 
ATOM     24  C   UNL     1      -4.677   2.750  23.439  0.00  0.00    +0.002 A 
ATOM     25  C   UNL     1      -2.592   2.134  22.384  0.00  0.00    +0.002 A 
ATOM     26  C   UNL     1      -3.594   3.075  22.623  0.00  0.00    +0.000 A 
ENDBRANCH   1  16
ENDBRANCH   7   1
ENDBRANCH  13   7
ENDBRANCH  11  13
TORSDOF 9
ENDMDL
