MODEL 1
REMARK VINA RESULT:      -1.3      0.000      0.000
REMARK  Name = 9424347
REMARK  5 active torsions:
REMARK  status: ('A' for Active; 'I' for Inactive)
REMARK    1  A    between atoms: O_4  and  C_27
REMARK    2  A    between atoms: C_15  and  C_20
REMARK    3  A    between atoms: C_17  and  C_21
REMARK    4  A    between atoms: C_21  and  C_22
REMARK    5  A    between atoms: C_22  and  C_27
REMARK                            x       y       z     vdW  Elec       q    Type
REMARK                         _______ _______ _______ _____ _____    ______ ____
ROOT
ATOM      2  O   UNL     1      17.076 -10.386  32.175  0.00  0.00    -0.268 OA
ATOM      3  O   UNL     1      12.902  -7.246  32.856  0.00  0.00    -0.276 OA
ATOM      6  N   UNL     1      14.551  -6.113  31.676  0.00  0.00    -0.301 N 
ATOM      7  N   UNL     1      16.867  -8.251  31.234  0.00  0.00    -0.311 N 
ATOM      8  C   UNL     1      16.825  -6.142  32.691  0.00  0.00    +0.027 C 
ATOM      9  C   UNL     1      16.587  -5.954  30.252  0.00  0.00    +0.054 C 
ATOM     10  C   UNL     1      17.383  -5.453  31.455  0.00  0.00    +0.018 C 
ATOM     11  C   UNL     1      15.334  -5.813  32.873  0.00  0.00    +0.113 C 
ATOM     12  C   UNL     1      17.065  -7.647  32.559  0.00  0.00    +0.130 C 
ATOM     13  C   UNL     1      15.101  -5.574  30.425  0.00  0.00    +0.117 C 
ATOM     14  C   UNL     1      16.729  -7.468  30.071  0.00  0.00    +0.034 A 
ATOM     15  C   UNL     1      16.699  -8.066  28.852  0.00  0.00    +0.005 A 
ATOM     16  C   UNL     1      16.943  -9.656  31.194  0.00  0.00    +0.252 A 
ATOM     17  C   UNL     1      13.344  -6.802  31.793  0.00  0.00    +0.216 C 
ATOM     18  C   UNL     1      16.772  -9.514  28.771  0.00  0.00    +0.015 A 
ATOM     19  C   UNL     1      16.871 -10.283  29.855  0.00  0.00    +0.071 A 
ENDROOT
BRANCH  15  20
ATOM      1  F   UNL     1      14.828  -8.706  26.835  0.00  0.00    -0.205 F 
ATOM     20  C   UNL     1      16.575  -7.285  27.602  0.00  0.00    +0.019 A 
ATOM     23  C   UNL     1      15.633  -7.650  26.644  0.00  0.00    +0.131 A 
ATOM     24  C   UNL     1      17.404  -6.187  27.393  0.00  0.00    +0.011 A 
ATOM     25  C   UNL     1      15.519  -6.911  25.467  0.00  0.00    +0.039 A 
ATOM     26  C   UNL     1      17.292  -5.448  26.215  0.00  0.00    +0.001 A 
ATOM     28  C   UNL     1      16.349  -5.810  25.253  0.00  0.00    +0.003 A 
ENDBRANCH  15  20
BRANCH  17  21
ATOM     21  C   UNL     1      12.559  -7.011  30.523  0.00  0.00    +0.107 C 
BRANCH  21  22
ATOM     22  C   UNL     1      12.844  -8.390  29.962  0.00  0.00    +0.129 C 
BRANCH  22  27
ATOM      5  O   UNL     1      11.738 -10.126  31.226  0.00  0.00    -0.251 OA
ATOM     27  C   UNL     1      12.738  -9.447  31.031  0.00  0.00    +0.305 C 
BRANCH  27   4
ATOM      4  O   UNL     1      13.867  -9.552  31.775  0.00  0.00    -0.481 OA
ATOM     29  H   UNL     1      14.431  -8.753  31.700  0.00  0.00    +0.295 HD
ENDBRANCH  27   4
ENDBRANCH  22  27
ENDBRANCH  21  22
ENDBRANCH  17  21
TORSDOF 5
ENDMDL
MODEL 2
REMARK VINA RESULT:      -0.8     18.183     20.531
REMARK  Name = 9424347
REMARK  5 active torsions:
REMARK  status: ('A' for Active; 'I' for Inactive)
REMARK    1  A    between atoms: O_4  and  C_27
REMARK    2  A    between atoms: C_15  and  C_20
REMARK    3  A    between atoms: C_17  and  C_21
REMARK    4  A    between atoms: C_21  and  C_22
REMARK    5  A    between atoms: C_22  and  C_27
REMARK                            x       y       z     vdW  Elec       q    Type
REMARK                         _______ _______ _______ _____ _____    ______ ____
ROOT
ATOM      2  O   UNL     1      -2.586   4.780  26.710  0.00  0.00    -0.268 OA
ATOM      3  O   UNL     1      -5.286   0.307  26.042  0.00  0.00    -0.276 OA
ATOM      6  N   UNL     1      -3.950   0.702  24.182  0.00  0.00    -0.301 N 
ATOM      7  N   UNL     1      -2.300   3.328  24.895  0.00  0.00    -0.311 N 
ATOM      8  C   UNL     1      -4.154   2.964  23.162  0.00  0.00    +0.027 C 
ATOM      9  C   UNL     1      -2.036   1.732  22.970  0.00  0.00    +0.054 C 
ATOM     10  C   UNL     1      -3.008   2.639  22.218  0.00  0.00    +0.018 C 
ATOM     11  C   UNL     1      -4.873   1.681  23.611  0.00  0.00    +0.113 C 
ATOM     12  C   UNL     1      -3.597   3.752  24.350  0.00  0.00    +0.130 C 
ATOM     13  C   UNL     1      -2.757   0.428  23.371  0.00  0.00    +0.117 C 
ATOM     14  C   UNL     1      -1.463   2.423  24.210  0.00  0.00    +0.034 A 
ATOM     15  C   UNL     1      -0.211   2.176  24.675  0.00  0.00    +0.005 A 
ATOM     16  C   UNL     1      -1.902   3.974  26.080  0.00  0.00    +0.252 A 
ATOM     17  C   UNL     1      -4.276   0.060  25.377  0.00  0.00    +0.216 C 
ATOM     18  C   UNL     1       0.233   2.822  25.896  0.00  0.00    +0.015 A 
ATOM     19  C   UNL     1      -0.546   3.658  26.583  0.00  0.00    +0.071 A 
ENDROOT
BRANCH  15  20
ATOM      1  F   UNL     1      -0.585  -0.623  24.666  0.00  0.00    -0.205 F 
ATOM     20  C   UNL     1       0.710   1.250  23.980  0.00  0.00    +0.019 A 
ATOM     23  C   UNL     1       0.473  -0.122  24.012  0.00  0.00    +0.131 A 
ATOM     24  C   UNL     1       1.811   1.759  23.298  0.00  0.00    +0.011 A 
ATOM     25  C   UNL     1       1.344  -0.991  23.356  0.00  0.00    +0.039 A 
ATOM     26  C   UNL     1       2.684   0.890  22.643  0.00  0.00    +0.001 A 
ATOM     28  C   UNL     1       2.449  -0.485  22.672  0.00  0.00    +0.003 A 
ENDBRANCH  15  20
BRANCH  17  21
ATOM     21  C   UNL     1      -3.310  -0.989  25.867  0.00  0.00    +0.107 C 
BRANCH  21  22
ATOM     22  C   UNL     1      -3.815  -2.369  25.493  0.00  0.00    +0.129 C 
BRANCH  22  27
ATOM      5  O   UNL     1      -2.164  -3.078  23.878  0.00  0.00    -0.251 OA
ATOM     27  C   UNL     1      -3.324  -2.777  24.127  0.00  0.00    +0.305 C 
BRANCH  27   4
ATOM      4  O   UNL     1      -4.306  -2.754  23.192  0.00  0.00    -0.481 OA
ATOM     29  H   UNL     1      -4.522  -3.654  22.865  0.00  0.00    +0.295 HD
ENDBRANCH  27   4
ENDBRANCH  22  27
ENDBRANCH  21  22
ENDBRANCH  17  21
TORSDOF 5
ENDMDL
MODEL 3
REMARK VINA RESULT:      -0.8     19.196     21.709
REMARK  Name = 9424347
REMARK  5 active torsions:
REMARK  status: ('A' for Active; 'I' for Inactive)
REMARK    1  A    between atoms: O_4  and  C_27
REMARK    2  A    between atoms: C_15  and  C_20
REMARK    3  A    between atoms: C_17  and  C_21
REMARK    4  A    between atoms: C_21  and  C_22
REMARK    5  A    between atoms: C_22  and  C_27
REMARK                            x       y       z     vdW  Elec       q    Type
REMARK                         _______ _______ _______ _____ _____    ______ ____
ROOT
ATOM      2  O   UNL     1      -4.039   4.021  21.038  0.00  0.00    -0.268 OA
ATOM      3  O   UNL     1      -1.578   5.844  25.324  0.00  0.00    -0.276 OA
ATOM      6  N   UNL     1      -2.783   3.931  25.865  0.00  0.00    -0.301 N 
ATOM      7  N   UNL     1      -4.014   2.926  23.108  0.00  0.00    -0.311 N 
ATOM      8  C   UNL     1      -5.173   3.922  25.167  0.00  0.00    +0.027 C 
ATOM      9  C   UNL     1      -3.954   1.796  25.354  0.00  0.00    +0.054 C 
ATOM     10  C   UNL     1      -5.297   2.475  25.618  0.00  0.00    +0.018 C 
ATOM     11  C   UNL     1      -4.058   4.642  25.942  0.00  0.00    +0.113 C 
ATOM     12  C   UNL     1      -4.923   3.941  23.658  0.00  0.00    +0.130 C 
ATOM     13  C   UNL     1      -2.853   2.498  26.176  0.00  0.00    +0.117 C 
ATOM     14  C   UNL     1      -3.596   1.813  23.865  0.00  0.00    +0.034 A 
ATOM     15  C   UNL     1      -2.880   0.823  23.272  0.00  0.00    +0.005 A 
ATOM     16  C   UNL     1      -3.689   3.078  21.748  0.00  0.00    +0.252 A 
ATOM     17  C   UNL     1      -1.613   4.637  25.583  0.00  0.00    +0.216 C 
ATOM     18  C   UNL     1      -2.524   0.947  21.871  0.00  0.00    +0.015 A 
ATOM     19  C   UNL     1      -2.878   2.001  21.137  0.00  0.00    +0.071 A 
ENDROOT
BRANCH  15  20
ATOM      1  F   UNL     1      -4.587  -1.363  23.807  0.00  0.00    -0.205 F 
ATOM     20  C   UNL     1      -2.435  -0.374  24.020  0.00  0.00    +0.019 A 
ATOM     23  C   UNL     1      -3.324  -1.420  24.253  0.00  0.00    +0.131 A 
ATOM     24  C   UNL     1      -1.126  -0.444  24.488  0.00  0.00    +0.011 A 
ATOM     25  C   UNL     1      -2.900  -2.545  24.959  0.00  0.00    +0.039 A 
ATOM     26  C   UNL     1      -0.702  -1.568  25.195  0.00  0.00    +0.001 A 
ATOM     28  C   UNL     1      -1.588  -2.619  25.430  0.00  0.00    +0.003 A 
ENDBRANCH  15  20
BRANCH  17  21
ATOM     21  C   UNL     1      -0.328   3.849  25.591  0.00  0.00    +0.107 C 
BRANCH  21  22
ATOM     22  C   UNL     1      -0.113   3.200  24.238  0.00  0.00    +0.129 C 
BRANCH  22  27
ATOM      5  O   UNL     1       1.195   1.351  23.398  0.00  0.00    -0.251 OA
ATOM     27  C   UNL     1       0.741   1.963  24.356  0.00  0.00    +0.305 C 
BRANCH  27   4
ATOM      4  O   UNL     1       0.937   1.585  25.644  0.00  0.00    -0.481 OA
ATOM     29  H   UNL     1       1.198   0.642  25.713  0.00  0.00    +0.295 HD
ENDBRANCH  27   4
ENDBRANCH  22  27
ENDBRANCH  21  22
ENDBRANCH  17  21
TORSDOF 5
ENDMDL
MODEL 4
REMARK VINA RESULT:       0.1     18.711     21.086
REMARK  Name = 9424347
REMARK  5 active torsions:
REMARK  status: ('A' for Active; 'I' for Inactive)
REMARK    1  A    between atoms: O_4  and  C_27
REMARK    2  A    between atoms: C_15  and  C_20
REMARK    3  A    between atoms: C_17  and  C_21
REMARK    4  A    between atoms: C_21  and  C_22
REMARK    5  A    between atoms: C_22  and  C_27
REMARK                            x       y       z     vdW  Elec       q    Type
REMARK                         _______ _______ _______ _____ _____    ______ ____
ROOT
ATOM      2  O   UNL     1       1.044   2.433  27.635  0.00  0.00    -0.268 OA
ATOM      3  O   UNL     1      -3.252   5.273  26.531  0.00  0.00    -0.276 OA
ATOM      6  N   UNL     1      -2.838   3.774  24.804  0.00  0.00    -0.301 N 
ATOM      7  N   UNL     1      -0.334   2.068  25.778  0.00  0.00    -0.311 N 
ATOM      8  C   UNL     1      -0.522   3.790  23.888  0.00  0.00    +0.027 C 
ATOM      9  C   UNL     1      -1.849   1.723  23.800  0.00  0.00    +0.054 C 
ATOM     10  C   UNL     1      -0.859   2.587  23.021  0.00  0.00    +0.018 C 
ATOM     11  C   UNL     1      -1.787   4.601  24.212  0.00  0.00    +0.113 C 
ATOM     12  C   UNL     1       0.179   3.295  25.154  0.00  0.00    +0.130 C 
ATOM     13  C   UNL     1      -3.132   2.533  24.077  0.00  0.00    +0.117 C 
ATOM     14  C   UNL     1      -1.246   1.221  25.115  0.00  0.00    +0.034 A 
ATOM     15  C   UNL     1      -1.577   0.023  25.664  0.00  0.00    +0.005 A 
ATOM     16  C   UNL     1       0.235   1.738  27.021  0.00  0.00    +0.252 A 
ATOM     17  C   UNL     1      -3.518   4.225  25.935  0.00  0.00    +0.216 C 
ATOM     18  C   UNL     1      -1.012  -0.349  26.948  0.00  0.00    +0.015 A 
ATOM     19  C   UNL     1      -0.171   0.444  27.612  0.00  0.00    +0.071 A 
ENDROOT
BRANCH  15  20
ATOM      1  F   UNL     1      -0.873  -2.628  24.992  0.00  0.00    -0.205 F 
ATOM     20  C   UNL     1      -2.514  -0.907  24.998  0.00  0.00    +0.019 A 
ATOM     23  C   UNL     1      -2.108  -2.203  24.691  0.00  0.00    +0.131 A 
ATOM     24  C   UNL     1      -3.799  -0.477  24.680  0.00  0.00    +0.011 A 
ATOM     25  C   UNL     1      -2.996  -3.077  24.063  0.00  0.00    +0.039 A 
ATOM     26  C   UNL     1      -4.687  -1.350  24.051  0.00  0.00    +0.001 A 
ATOM     28  C   UNL     1      -4.285  -2.650  23.743  0.00  0.00    +0.003 A 
ENDBRANCH  15  20
BRANCH  17  21
ATOM     21  C   UNL     1      -4.636   3.351  26.445  0.00  0.00    +0.107 C 
BRANCH  21  22
ATOM     22  C   UNL     1      -5.782   3.349  25.453  0.00  0.00    +0.129 C 
BRANCH  22  27
ATOM      5  O   UNL     1      -6.787   1.401  24.439  0.00  0.00    -0.251 OA
ATOM     27  C   UNL     1      -6.500   2.023  25.453  0.00  0.00    +0.305 C 
BRANCH  27   4
ATOM      4  O   UNL     1      -6.816   1.600  26.702  0.00  0.00    -0.481 OA
ATOM     29  H   UNL     1      -6.041   1.626  27.304  0.00  0.00    +0.295 HD
ENDBRANCH  27   4
ENDBRANCH  22  27
ENDBRANCH  21  22
ENDBRANCH  17  21
TORSDOF 5
ENDMDL
MODEL 5
REMARK VINA RESULT:       0.3      1.305      1.993
REMARK  Name = 9424347
REMARK  5 active torsions:
REMARK  status: ('A' for Active; 'I' for Inactive)
REMARK    1  A    between atoms: O_4  and  C_27
REMARK    2  A    between atoms: C_15  and  C_20
REMARK    3  A    between atoms: C_17  and  C_21
REMARK    4  A    between atoms: C_21  and  C_22
REMARK    5  A    between atoms: C_22  and  C_27
REMARK                            x       y       z     vdW  Elec       q    Type
REMARK                         _______ _______ _______ _____ _____    ______ ____
ROOT
ATOM      2  O   UNL     1      16.599 -10.781  30.924  0.00  0.00    -0.268 OA
ATOM      3  O   UNL     1      12.734  -7.541  32.443  0.00  0.00    -0.276 OA
ATOM      6  N   UNL     1      14.518  -6.301  31.617  0.00  0.00    -0.301 N 
ATOM      7  N   UNL     1      16.624  -8.461  30.604  0.00  0.00    -0.311 N 
ATOM      8  C   UNL     1      16.749  -6.836  32.583  0.00  0.00    +0.027 C 
ATOM      9  C   UNL     1      16.596  -5.967  30.290  0.00  0.00    +0.054 C 
ATOM     10  C   UNL     1      17.405  -5.897  31.583  0.00  0.00    +0.018 C 
ATOM     11  C   UNL     1      15.294  -6.420  32.850  0.00  0.00    +0.113 C 
ATOM     12  C   UNL     1      16.845  -8.265  32.044  0.00  0.00    +0.130 C 
ATOM     13  C   UNL     1      15.151  -5.500  30.562  0.00  0.00    +0.117 C 
ATOM     14  C   UNL     1      16.595  -7.380  29.701  0.00  0.00    +0.034 A 
ATOM     15  C   UNL     1      16.540  -7.618  28.365  0.00  0.00    +0.005 A 
ATOM     16  C   UNL     1      16.564  -9.801  30.180  0.00  0.00    +0.252 A 
ATOM     17  C   UNL     1      13.247  -6.871  31.542  0.00  0.00    +0.216 C 
ATOM     18  C   UNL     1      16.473  -8.987  27.889  0.00  0.00    +0.015 A 
ATOM     19  C   UNL     1      16.468 -10.029  28.721  0.00  0.00    +0.071 A 
ENDROOT
BRANCH  15  20
ATOM      1  F   UNL     1      14.980  -7.701  26.012  0.00  0.00    -0.205 F 
ATOM     20  C   UNL     1      16.526  -6.517  27.377  0.00  0.00    +0.019 A 
ATOM     23  C   UNL     1      15.736  -6.616  26.234  0.00  0.00    +0.131 A 
ATOM     24  C   UNL     1      17.306  -5.386  27.597  0.00  0.00    +0.011 A 
ATOM     25  C   UNL     1      15.726  -5.576  25.306  0.00  0.00    +0.039 A 
ATOM     26  C   UNL     1      17.298  -4.345  26.668  0.00  0.00    +0.001 A 
ATOM     28  C   UNL     1      16.507  -4.440  25.523  0.00  0.00    +0.003 A 
ENDBRANCH  15  20
BRANCH  17  21
ATOM     21  C   UNL     1      12.479  -6.645  30.264  0.00  0.00    +0.107 C 
BRANCH  21  22
ATOM     22  C   UNL     1      11.027  -6.345  30.582  0.00  0.00    +0.129 C 
BRANCH  22  27
ATOM      5  O   UNL     1      11.118  -4.084  31.428  0.00  0.00    -0.251 OA
ATOM     27  C   UNL     1      10.910  -5.273  31.635  0.00  0.00    +0.305 C 
BRANCH  27   4
ATOM      4  O   UNL     1      10.568  -5.769  32.850  0.00  0.00    -0.481 OA
ATOM     29  H   UNL     1      10.715  -5.117  33.567  0.00  0.00    +0.295 HD
ENDBRANCH  27   4
ENDBRANCH  22  27
ENDBRANCH  21  22
ENDBRANCH  17  21
TORSDOF 5
ENDMDL
MODEL 6
REMARK VINA RESULT:       1.0     18.830     21.426
REMARK  Name = 9424347
REMARK  5 active torsions:
REMARK  status: ('A' for Active; 'I' for Inactive)
REMARK    1  A    between atoms: O_4  and  C_27
REMARK    2  A    between atoms: C_15  and  C_20
REMARK    3  A    between atoms: C_17  and  C_21
REMARK    4  A    between atoms: C_21  and  C_22
REMARK    5  A    between atoms: C_22  and  C_27
REMARK                            x       y       z     vdW  Elec       q    Type
REMARK                         _______ _______ _______ _____ _____    ______ ____
ROOT
ATOM      2  O   UNL     1      -3.851   4.080  21.160  0.00  0.00    -0.268 OA
ATOM      3  O   UNL     1      -0.927   5.488  25.309  0.00  0.00    -0.276 OA
ATOM      6  N   UNL     1      -2.326   3.728  25.897  0.00  0.00    -0.301 N 
ATOM      7  N   UNL     1      -3.838   2.944  23.208  0.00  0.00    -0.311 N 
ATOM      8  C   UNL     1      -4.736   4.031  25.350  0.00  0.00    +0.027 C 
ATOM      9  C   UNL     1      -3.784   1.766  25.429  0.00  0.00    +0.054 C 
ATOM     10  C   UNL     1      -5.013   2.601  25.787  0.00  0.00    +0.018 C 
ATOM     11  C   UNL     1      -3.495   4.590  26.064  0.00  0.00    +0.113 C 
ATOM     12  C   UNL     1      -4.578   4.052  23.828  0.00  0.00    +0.130 C 
ATOM     13  C   UNL     1      -2.556   2.308  26.191  0.00  0.00    +0.117 C 
ATOM     14  C   UNL     1      -3.517   1.772  23.922  0.00  0.00    +0.034 A 
ATOM     15  C   UNL     1      -2.968   0.714  23.271  0.00  0.00    +0.005 A 
ATOM     16  C   UNL     1      -3.580   3.085  21.833  0.00  0.00    +0.252 A 
ATOM     17  C   UNL     1      -1.096   4.290  25.552  0.00  0.00    +0.216 C 
ATOM     18  C   UNL     1      -2.684   0.823  21.851  0.00  0.00    +0.015 A 
ATOM     19  C   UNL     1      -2.948   1.930  21.157  0.00  0.00    +0.071 A 
ENDROOT
BRANCH  15  20
ATOM      1  F   UNL     1      -0.361   0.128  24.184  0.00  0.00    -0.205 F 
ATOM     20  C   UNL     1      -2.632  -0.545  23.972  0.00  0.00    +0.019 A 
ATOM     23  C   UNL     1      -1.327  -0.777  24.398  0.00  0.00    +0.131 A 
ATOM     24  C   UNL     1      -3.626  -1.491  24.200  0.00  0.00    +0.011 A 
ATOM     25  C   UNL     1      -1.014  -1.965  25.059  0.00  0.00    +0.039 A 
ATOM     26  C   UNL     1      -3.314  -2.680  24.859  0.00  0.00    +0.001 A 
ATOM     28  C   UNL     1      -2.009  -2.916  25.289  0.00  0.00    +0.003 A 
ENDBRANCH  15  20
BRANCH  17  21
ATOM     21  C   UNL     1       0.078   3.348  25.468  0.00  0.00    +0.107 C 
BRANCH  21  22
ATOM     22  C   UNL     1      -0.037   2.284  26.541  0.00  0.00    +0.129 C 
BRANCH  22  27
ATOM      5  O   UNL     1       2.032   3.024  27.544  0.00  0.00    -0.251 OA
ATOM     27  C   UNL     1       0.909   2.556  27.683  0.00  0.00    +0.305 C 
BRANCH  27   4
ATOM      4  O   UNL     1       0.390   2.205  28.885  0.00  0.00    -0.481 OA
ATOM     29  H   UNL     1      -0.539   1.900  28.809  0.00  0.00    +0.295 HD
ENDBRANCH  27   4
ENDBRANCH  22  27
ENDBRANCH  21  22
ENDBRANCH  17  21
TORSDOF 5
ENDMDL
MODEL 7
REMARK VINA RESULT:       1.1     18.694     21.050
REMARK  Name = 9424347
REMARK  5 active torsions:
REMARK  status: ('A' for Active; 'I' for Inactive)
REMARK    1  A    between atoms: O_4  and  C_27
REMARK    2  A    between atoms: C_15  and  C_20
REMARK    3  A    between atoms: C_17  and  C_21
REMARK    4  A    between atoms: C_21  and  C_22
REMARK    5  A    between atoms: C_22  and  C_27
REMARK                            x       y       z     vdW  Elec       q    Type
REMARK                         _______ _______ _______ _____ _____    ______ ____
ROOT
ATOM      2  O   UNL     1       1.075   2.657  27.822  0.00  0.00    -0.268 OA
ATOM      3  O   UNL     1      -3.311   5.203  26.397  0.00  0.00    -0.276 OA
ATOM      6  N   UNL     1      -2.726   3.669  24.753  0.00  0.00    -0.301 N 
ATOM      7  N   UNL     1      -0.184   2.146  25.915  0.00  0.00    -0.311 N 
ATOM      8  C   UNL     1      -0.371   3.784  23.952  0.00  0.00    +0.027 C 
ATOM      9  C   UNL     1      -1.574   1.643  23.881  0.00  0.00    +0.054 C 
ATOM     10  C   UNL     1      -0.596   2.534  23.117  0.00  0.00    +0.018 C 
ATOM     11  C   UNL     1      -1.694   4.533  24.182  0.00  0.00    +0.113 C 
ATOM     12  C   UNL     1       0.291   3.377  25.270  0.00  0.00    +0.130 C 
ATOM     13  C   UNL     1      -2.913   2.388  24.061  0.00  0.00    +0.117 C 
ATOM     14  C   UNL     1      -1.013   1.225  25.242  0.00  0.00    +0.034 A 
ATOM     15  C   UNL     1      -1.304   0.031  25.820  0.00  0.00    +0.005 A 
ATOM     16  C   UNL     1       0.338   1.895  27.197  0.00  0.00    +0.252 A 
ATOM     17  C   UNL     1      -3.487   4.121  25.831  0.00  0.00    +0.216 C 
ATOM     18  C   UNL     1      -0.786  -0.262  27.144  0.00  0.00    +0.015 A 
ATOM     19  C   UNL     1      -0.026   0.601  27.817  0.00  0.00    +0.071 A 
ENDROOT
BRANCH  15  20
ATOM      1  F   UNL     1      -4.123   0.193  25.784  0.00  0.00    -0.205 F 
ATOM     20  C   UNL     1      -2.153  -0.976  25.146  0.00  0.00    +0.019 A 
ATOM     23  C   UNL     1      -3.539  -0.841  25.163  0.00  0.00    +0.131 A 
ATOM     24  C   UNL     1      -1.558  -2.054  24.498  0.00  0.00    +0.011 A 
ATOM     25  C   UNL     1      -4.335  -1.793  24.526  0.00  0.00    +0.039 A 
ATOM     26  C   UNL     1      -2.354  -3.007  23.862  0.00  0.00    +0.001 A 
ATOM     28  C   UNL     1      -3.742  -2.876  23.875  0.00  0.00    +0.003 A 
ENDBRANCH  15  20
BRANCH  17  21
ATOM     21  C   UNL     1      -4.579   3.204  26.320  0.00  0.00    +0.107 C 
BRANCH  21  22
ATOM     22  C   UNL     1      -5.667   3.093  25.270  0.00  0.00    +0.129 C 
BRANCH  22  27
ATOM      5  O   UNL     1      -6.707   1.440  26.691  0.00  0.00    -0.251 OA
ATOM     27  C   UNL     1      -6.626   1.976  25.594  0.00  0.00    +0.305 C 
BRANCH  27   4
ATOM      4  O   UNL     1      -7.379   1.609  24.528  0.00  0.00    -0.481 OA
ATOM     29  H   UNL     1      -8.203   1.152  24.801  0.00  0.00    +0.295 HD
ENDBRANCH  27   4
ENDBRANCH  22  27
ENDBRANCH  21  22
ENDBRANCH  17  21
TORSDOF 5
ENDMDL
MODEL 8
REMARK VINA RESULT:       2.3     19.201     21.637
REMARK  Name = 9424347
REMARK  5 active torsions:
REMARK  status: ('A' for Active; 'I' for Inactive)
REMARK    1  A    between atoms: O_4  and  C_27
REMARK    2  A    between atoms: C_15  and  C_20
REMARK    3  A    between atoms: C_17  and  C_21
REMARK    4  A    between atoms: C_21  and  C_22
REMARK    5  A    between atoms: C_22  and  C_27
REMARK                            x       y       z     vdW  Elec       q    Type
REMARK                         _______ _______ _______ _____ _____    ______ ____
ROOT
ATOM      2  O   UNL     1       0.312   4.384  25.584  0.00  0.00    -0.268 OA
ATOM      3  O   UNL     1      -4.931   4.876  25.695  0.00  0.00    -0.276 OA
ATOM      6  N   UNL     1      -4.334   3.172  24.233  0.00  0.00    -0.301 N 
ATOM      7  N   UNL     1      -1.169   2.947  24.477  0.00  0.00    -0.311 N 
ATOM      8  C   UNL     1      -2.620   3.759  22.525  0.00  0.00    +0.027 C 
ATOM      9  C   UNL     1      -2.807   1.437  23.309  0.00  0.00    +0.054 C 
ATOM     10  C   UNL     1      -2.573   2.308  22.076  0.00  0.00    +0.018 C 
ATOM     11  C   UNL     1      -3.983   4.093  23.153  0.00  0.00    +0.113 C 
ATOM     12  C   UNL     1      -1.466   4.004  23.500  0.00  0.00    +0.130 C 
ATOM     13  C   UNL     1      -4.198   1.748  23.901  0.00  0.00    +0.117 C 
ATOM     14  C   UNL     1      -1.721   1.654  24.367  0.00  0.00    +0.034 A 
ATOM     15  C   UNL     1      -1.303   0.668  25.201  0.00  0.00    +0.005 A 
ATOM     16  C   UNL     1      -0.211   3.277  25.452  0.00  0.00    +0.252 A 
ATOM     17  C   UNL     1      -4.825   3.673  25.438  0.00  0.00    +0.216 C 
ATOM     18  C   UNL     1      -0.317   0.972  26.222  0.00  0.00    +0.015 A 
ATOM     19  C   UNL     1       0.200   2.192  26.371  0.00  0.00    +0.071 A 
ENDROOT
BRANCH  15  20
ATOM      1  F   UNL     1      -0.091  -1.341  23.627  0.00  0.00    -0.205 F 
ATOM     20  C   UNL     1      -1.838  -0.708  25.112  0.00  0.00    +0.019 A 
ATOM     23  C   UNL     1      -1.196  -1.655  24.318  0.00  0.00    +0.131 A 
ATOM     24  C   UNL     1      -2.985  -1.047  25.825  0.00  0.00    +0.011 A 
ATOM     25  C   UNL     1      -1.706  -2.951  24.237  0.00  0.00    +0.039 A 
ATOM     26  C   UNL     1      -3.495  -2.342  25.743  0.00  0.00    +0.001 A 
ATOM     28  C   UNL     1      -2.855  -3.295  24.950  0.00  0.00    +0.003 A 
ENDBRANCH  15  20
BRANCH  17  21
ATOM     21  C   UNL     1      -5.233   2.660  26.477  0.00  0.00    +0.107 C 
BRANCH  21  22
ATOM     22  C   UNL     1      -6.661   2.215  26.229  0.00  0.00    +0.129 C 
BRANCH  22  27
ATOM      5  O   UNL     1      -6.037   0.326  24.859  0.00  0.00    -0.251 OA
ATOM     27  C   UNL     1      -6.748   1.307  25.028  0.00  0.00    +0.305 C 
BRANCH  27   4
ATOM      4  O   UNL     1      -7.690   1.708  24.139  0.00  0.00    -0.481 OA
ATOM     29  H   UNL     1      -7.328   2.341  23.482  0.00  0.00    +0.295 HD
ENDBRANCH  27   4
ENDBRANCH  22  27
ENDBRANCH  21  22
ENDBRANCH  17  21
TORSDOF 5
ENDMDL
MODEL 9
REMARK VINA RESULT:       2.6     18.608     20.964
REMARK  Name = 9424347
REMARK  5 active torsions:
REMARK  status: ('A' for Active; 'I' for Inactive)
REMARK    1  A    between atoms: O_4  and  C_27
REMARK    2  A    between atoms: C_15  and  C_20
REMARK    3  A    between atoms: C_17  and  C_21
REMARK    4  A    between atoms: C_21  and  C_22
REMARK    5  A    between atoms: C_22  and  C_27
REMARK                            x       y       z     vdW  Elec       q    Type
REMARK                         _______ _______ _______ _____ _____    ______ ____
ROOT
ATOM      2  O   UNL     1      -2.113   5.708  25.725  0.00  0.00    -0.268 OA
ATOM      3  O   UNL     1      -5.887   2.034  25.737  0.00  0.00    -0.276 OA
ATOM      6  N   UNL     1      -4.452   1.678  23.945  0.00  0.00    -0.301 N 
ATOM      7  N   UNL     1      -2.181   3.885  24.257  0.00  0.00    -0.311 N 
ATOM      8  C   UNL     1      -4.024   3.652  22.490  0.00  0.00    +0.027 C 
ATOM      9  C   UNL     1      -2.305   1.909  22.707  0.00  0.00    +0.054 C 
ATOM     10  C   UNL     1      -2.983   2.856  21.719  0.00  0.00    +0.018 C 
ATOM     11  C   UNL     1      -5.067   2.718  23.123  0.00  0.00    +0.113 C 
ATOM     12  C   UNL     1      -3.305   4.502  23.541  0.00  0.00    +0.130 C 
ATOM     13  C   UNL     1      -3.356   0.946  23.298  0.00  0.00    +0.117 C 
ATOM     14  C   UNL     1      -1.598   2.675  23.829  0.00  0.00    +0.034 A 
ATOM     15  C   UNL     1      -0.468   2.219  24.428  0.00  0.00    +0.005 A 
ATOM     16  C   UNL     1      -1.654   4.641  25.320  0.00  0.00    +0.252 A 
ATOM     17  C   UNL     1      -4.964   1.404  25.213  0.00  0.00    +0.216 C 
ATOM     18  C   UNL     1       0.103   2.971  25.531  0.00  0.00    +0.015 A 
ATOM     19  C   UNL     1      -0.442   4.102  25.978  0.00  0.00    +0.071 A 
ENDROOT
BRANCH  15  20
ATOM      1  F   UNL     1      -1.147  -0.301  25.507  0.00  0.00    -0.205 F 
ATOM     20  C   UNL     1       0.190   0.965  24.002  0.00  0.00    +0.019 A 
ATOM     23  C   UNL     1      -0.188  -0.248  24.571  0.00  0.00    +0.131 A 
ATOM     24  C   UNL     1       1.187   1.007  23.031  0.00  0.00    +0.011 A 
ATOM     25  C   UNL     1       0.435  -1.428  24.166  0.00  0.00    +0.039 A 
ATOM     26  C   UNL     1       1.811  -0.172  22.626  0.00  0.00    +0.001 A 
ATOM     28  C   UNL     1       1.435  -1.390  23.193  0.00  0.00    +0.003 A 
ENDBRANCH  15  20
BRANCH  17  21
ATOM     21  C   UNL     1      -4.323   0.270  25.972  0.00  0.00    +0.107 C 
BRANCH  21  22
ATOM     22  C   UNL     1      -4.341  -0.989  25.128  0.00  0.00    +0.129 C 
BRANCH  22  27
ATOM      5  O   UNL     1      -3.010  -2.057  26.838  0.00  0.00    -0.251 OA
ATOM     27  C   UNL     1      -3.394  -2.027  25.676  0.00  0.00    +0.305 C 
BRANCH  27   4
ATOM      4  O   UNL     1      -2.993  -2.916  24.735  0.00  0.00    -0.481 OA
ATOM     29  H   UNL     1      -2.409  -2.501  24.064  0.00  0.00    +0.295 HD
ENDBRANCH  27   4
ENDBRANCH  22  27
ENDBRANCH  21  22
ENDBRANCH  17  21
TORSDOF 5
ENDMDL
