MODEL 1
REMARK VINA RESULT:      19.1      0.000      0.000
REMARK  Name = 23786270
REMARK  9 active torsions:
REMARK  status: ('A' for Active; 'I' for Inactive)
REMARK    1  A    between atoms: S_3  and  C_27
REMARK    2  A    between atoms: S_3  and  C_32
REMARK    3  A    between atoms: O_4  and  C_13
REMARK    4  A    between atoms: C_11  and  C_19
REMARK    5  A    between atoms: C_14  and  C_20
REMARK    6  A    between atoms: C_16  and  C_23
REMARK    7  A    between atoms: C_20  and  C_24
REMARK    8  A    between atoms: C_20  and  C_25
REMARK    9  A    between atoms: C_26  and  C_27
REMARK                            x       y       z     vdW  Elec       q    Type
REMARK                         _______ _______ _______ _____ _____    ______ ____
ROOT
ATOM      2  S   UNL     1      -4.140  -0.442  25.688  0.00  0.00    -0.075 S 
ATOM      9  N   UNL     1      -3.400   1.318  23.945  0.00  0.00    -0.247 NA
ATOM     11  C   UNL     1      -0.292  -1.487  24.681  0.00  0.00    -0.022 C 
ATOM     12  C   UNL     1       0.186  -0.024  24.328  0.00  0.00    +0.033 C 
ATOM     13  C   UNL     1       1.529  -0.040  23.544  0.00  0.00    +0.123 C 
ATOM     14  C   UNL     1       2.621  -0.878  24.245  0.00  0.00    +0.029 C 
ATOM     15  C   UNL     1       0.847  -2.249  25.399  0.00  0.00    +0.008 C 
ATOM     16  C   UNL     1      -0.951   0.815  23.614  0.00  0.00    +0.042 C 
ATOM     17  C   UNL     1       2.140  -2.286  24.597  0.00  0.00    +0.007 C 
ATOM     18  C   UNL     1      -1.503  -1.424  25.664  0.00  0.00    +0.051 C 
ATOM     19  C   UNL     1      -0.712  -2.282  23.418  0.00  0.00    +0.012 C 
ATOM     21  C   UNL     1      -2.287   0.565  24.271  0.00  0.00    +0.055 A 
ATOM     22  C   UNL     1      -2.516  -0.448  25.180  0.00  0.00    +0.014 A 
ATOM     23  C   UNL     1      -0.660   2.323  23.576  0.00  0.00    +0.014 C 
ATOM     26  C   UNL     1      -4.431   0.885  24.638  0.00  0.00    +0.100 A 
ENDROOT
BRANCH  13   4
ATOM      4  O   UNL     1       2.027   1.293  23.430  0.00  0.00    -0.391 OA
ATOM     38  H   UNL     1       2.217   1.464  22.493  0.00  0.00    +0.210 HD
ENDBRANCH  13   4
BRANCH  14  20
ATOM     20  C   UNL     1       3.899  -0.968  23.402  0.00  0.00    +0.078 C 
ATOM     24  C   UNL     1       4.492  -2.364  23.455  0.00  0.00    +0.017 C 
BRANCH  20  25
ATOM      5  O   UNL     1       4.602   0.767  24.858  0.00  0.00    -0.275 OA
ATOM      6  O   UNL     1       8.849  -0.382  22.601  0.00  0.00    -0.377 OA
ATOM     10  N   UNL     1       6.148   0.038  23.288  0.00  0.00    -0.297 N 
ATOM     25  C   UNL     1       4.907   0.027  23.920  0.00  0.00    +0.219 C 
ATOM     28  C   UNL     1       7.187   0.969  23.731  0.00  0.00    +0.136 C 
ATOM     29  C   UNL     1       6.503  -0.735  22.093  0.00  0.00    +0.136 C 
ATOM     30  C   UNL     1       8.528   0.256  23.839  0.00  0.00    +0.179 C 
ATOM     31  C   UNL     1       7.876  -1.374  22.266  0.00  0.00    +0.179 C 
ENDBRANCH  20  25
ENDBRANCH  14  20
BRANCH  26  27
ATOM     27  C   UNL     1      -5.792   1.458  24.563  0.00  0.00    +0.234 C 
BRANCH  27   3
ATOM      3  S   UNL     1      -5.870   2.851  25.650  0.00  0.00    +0.003 S 
ATOM      7  O   UNL     1      -5.916   2.369  27.018  0.00  0.00    -0.169 OA
ATOM      8  O   UNL     1      -6.902   3.742  25.150  0.00  0.00    -0.169 OA
BRANCH   3  32
ATOM      1 CL   UNL     1      -0.337   5.668  24.883  0.00  0.00    -0.084 Cl
ATOM     32  C   UNL     1      -4.308   3.647  25.433  0.00  0.00    +0.089 A 
ATOM     33  C   UNL     1      -3.360   3.561  26.439  0.00  0.00    +0.028 A 
ATOM     34  C   UNL     1      -4.059   4.341  24.262  0.00  0.00    +0.028 A 
ATOM     35  C   UNL     1      -2.125   4.189  26.267  0.00  0.00    +0.022 A 
ATOM     36  C   UNL     1      -2.825   4.969  24.090  0.00  0.00    +0.022 A 
ATOM     37  C   UNL     1      -1.858   4.893  25.093  0.00  0.00    +0.041 A 
ENDBRANCH   3  32
ENDBRANCH  27   3
ENDBRANCH  26  27
TORSDOF 6
ENDMDL
MODEL 2
REMARK VINA RESULT:      20.0      1.435      1.906
REMARK  Name = 23786270
REMARK  9 active torsions:
REMARK  status: ('A' for Active; 'I' for Inactive)
REMARK    1  A    between atoms: S_3  and  C_27
REMARK    2  A    between atoms: S_3  and  C_32
REMARK    3  A    between atoms: O_4  and  C_13
REMARK    4  A    between atoms: C_11  and  C_19
REMARK    5  A    between atoms: C_14  and  C_20
REMARK    6  A    between atoms: C_16  and  C_23
REMARK    7  A    between atoms: C_20  and  C_24
REMARK    8  A    between atoms: C_20  and  C_25
REMARK    9  A    between atoms: C_26  and  C_27
REMARK                            x       y       z     vdW  Elec       q    Type
REMARK                         _______ _______ _______ _____ _____    ______ ____
ROOT
ATOM      2  S   UNL     1      -5.075   0.363  26.068  0.00  0.00    -0.075 S 
ATOM      9  N   UNL     1      -4.194   1.684  24.027  0.00  0.00    -0.247 NA
ATOM     11  C   UNL     1      -1.557  -1.497  25.028  0.00  0.00    -0.022 C 
ATOM     12  C   UNL     1      -0.869  -0.212  24.420  0.00  0.00    +0.033 C 
ATOM     13  C   UNL     1       0.382  -0.587  23.574  0.00  0.00    +0.123 C 
ATOM     14  C   UNL     1       1.370  -1.495  24.338  0.00  0.00    +0.029 C 
ATOM     15  C   UNL     1      -0.509  -2.338  25.794  0.00  0.00    +0.008 C 
ATOM     16  C   UNL     1      -1.903   0.703  23.645  0.00  0.00    +0.042 C 
ATOM     17  C   UNL     1       0.688  -2.726  24.937  0.00  0.00    +0.007 C 
ATOM     18  C   UNL     1      -2.655  -1.072  26.054  0.00  0.00    +0.051 C 
ATOM     19  C   UNL     1      -2.210  -2.381  23.933  0.00  0.00    +0.012 C 
ATOM     21  C   UNL     1      -3.202   0.799  24.407  0.00  0.00    +0.055 A 
ATOM     22  C   UNL     1      -3.524  -0.011  25.477  0.00  0.00    +0.014 A 
ATOM     23  C   UNL     1      -1.364   2.112  23.350  0.00  0.00    +0.014 C 
ATOM     26  C   UNL     1      -5.222   1.552  24.837  0.00  0.00    +0.100 A 
ENDROOT
BRANCH  13   4
ATOM      4  O   UNL     1       1.088   0.603  23.222  0.00  0.00    -0.391 OA
ATOM     38  H   UNL     1       0.614   1.360  23.606  0.00  0.00    +0.210 HD
ENDBRANCH  13   4
BRANCH  14  20
ATOM     20  C   UNL     1       2.539  -1.938  23.451  0.00  0.00    +0.078 C 
ATOM     24  C   UNL     1       3.674  -2.508  24.283  0.00  0.00    +0.017 C 
BRANCH  20  25
ATOM      5  O   UNL     1       2.349  -0.299  21.747  0.00  0.00    -0.275 OA
ATOM      6  O   UNL     1       6.356   1.288  24.172  0.00  0.00    -0.377 OA
ATOM     10  N   UNL     1       4.281  -0.241  23.033  0.00  0.00    -0.297 N 
ATOM     25  C   UNL     1       3.040  -0.755  22.662  0.00  0.00    +0.219 C 
ATOM     28  C   UNL     1       4.839   0.909  22.322  0.00  0.00    +0.136 C 
ATOM     29  C   UNL     1       5.184  -0.832  24.026  0.00  0.00    +0.136 C 
ATOM     30  C   UNL     1       5.406   1.919  23.311  0.00  0.00    +0.179 C 
ATOM     31  C   UNL     1       5.742   0.251  24.942  0.00  0.00    +0.179 C 
ENDBRANCH  20  25
ENDBRANCH  14  20
BRANCH  26  27
ATOM     27  C   UNL     1      -6.468   2.343  24.747  0.00  0.00    +0.234 C 
BRANCH  27   3
ATOM      3  S   UNL     1      -6.244   3.839  25.665  0.00  0.00    +0.003 S 
ATOM      7  O   UNL     1      -6.453   3.554  27.073  0.00  0.00    -0.169 OA
ATOM      8  O   UNL     1      -7.011   4.880  25.004  0.00  0.00    -0.169 OA
BRANCH   3  32
ATOM      1 CL   UNL     1      -0.170   5.152  24.939  0.00  0.00    -0.084 Cl
ATOM     32  C   UNL     1      -4.529   4.209  25.460  0.00  0.00    +0.089 A 
ATOM     33  C   UNL     1      -4.103   4.818  24.292  0.00  0.00    +0.028 A 
ATOM     34  C   UNL     1      -3.641   3.886  26.472  0.00  0.00    +0.028 A 
ATOM     35  C   UNL     1      -2.748   5.112  24.130  0.00  0.00    +0.022 A 
ATOM     36  C   UNL     1      -2.286   4.180  26.310  0.00  0.00    +0.022 A 
ATOM     37  C   UNL     1      -1.841   4.792  25.139  0.00  0.00    +0.041 A 
ENDBRANCH   3  32
ENDBRANCH  27   3
ENDBRANCH  26  27
TORSDOF 6
ENDMDL
MODEL 3
REMARK VINA RESULT:      20.7      1.676      2.225
REMARK  Name = 23786270
REMARK  9 active torsions:
REMARK  status: ('A' for Active; 'I' for Inactive)
REMARK    1  A    between atoms: S_3  and  C_27
REMARK    2  A    between atoms: S_3  and  C_32
REMARK    3  A    between atoms: O_4  and  C_13
REMARK    4  A    between atoms: C_11  and  C_19
REMARK    5  A    between atoms: C_14  and  C_20
REMARK    6  A    between atoms: C_16  and  C_23
REMARK    7  A    between atoms: C_20  and  C_24
REMARK    8  A    between atoms: C_20  and  C_25
REMARK    9  A    between atoms: C_26  and  C_27
REMARK                            x       y       z     vdW  Elec       q    Type
REMARK                         _______ _______ _______ _____ _____    ______ ____
ROOT
ATOM      2  S   UNL     1      -4.040  -1.150  24.814  0.00  0.00    -0.075 S 
ATOM      9  N   UNL     1      -3.360   1.205  25.638  0.00  0.00    -0.247 NA
ATOM     11  C   UNL     1      -0.459  -0.358  22.953  0.00  0.00    -0.022 C 
ATOM     12  C   UNL     1       0.106   0.588  24.084  0.00  0.00    +0.033 C 
ATOM     13  C   UNL     1       1.335   1.399  23.582  0.00  0.00    +0.123 C 
ATOM     14  C   UNL     1       2.422   0.506  22.946  0.00  0.00    +0.029 C 
ATOM     15  C   UNL     1       0.684  -1.233  22.386  0.00  0.00    +0.008 C 
ATOM     16  C   UNL     1      -1.028   1.491  24.722  0.00  0.00    +0.042 C 
ATOM     17  C   UNL     1       1.859  -0.418  21.865  0.00  0.00    +0.007 C 
ATOM     18  C   UNL     1      -1.529  -1.322  23.556  0.00  0.00    +0.051 C 
ATOM     19  C   UNL     1      -1.104   0.443  21.792  0.00  0.00    +0.012 C 
ATOM     21  C   UNL     1      -2.290   0.689  24.930  0.00  0.00    +0.055 A 
ATOM     22  C   UNL     1      -2.498  -0.565  24.392  0.00  0.00    +0.014 A 
ATOM     23  C   UNL     1      -0.605   2.153  26.042  0.00  0.00    +0.014 C 
ATOM     26  C   UNL     1      -4.333   0.320  25.653  0.00  0.00    +0.100 A 
ENDROOT
BRANCH  13   4
ATOM      4  O   UNL     1       1.936   2.076  24.685  0.00  0.00    -0.391 OA
ATOM     38  H   UNL     1       1.293   2.097  25.413  0.00  0.00    +0.210 HD
ENDBRANCH  13   4
BRANCH  14  20
ATOM     20  C   UNL     1       3.572   1.336  22.364  0.00  0.00    +0.078 C 
ATOM     24  C   UNL     1       3.883   0.917  20.938  0.00  0.00    +0.017 C 
BRANCH  20  25
ATOM      5  O   UNL     1       5.361   2.145  23.694  0.00  0.00    -0.275 OA
ATOM      6  O   UNL     1       5.690  -2.724  24.490  0.00  0.00    -0.377 OA
ATOM     10  N   UNL     1       5.225  -0.156  23.426  0.00  0.00    -0.297 N 
ATOM     25  C   UNL     1       4.800   1.154  23.220  0.00  0.00    +0.219 C 
ATOM     28  C   UNL     1       6.405  -0.423  24.249  0.00  0.00    +0.136 C 
ATOM     29  C   UNL     1       4.661  -1.346  22.779  0.00  0.00    +0.136 C 
ATOM     30  C   UNL     1       6.133  -1.572  25.210  0.00  0.00    +0.179 C 
ATOM     31  C   UNL     1       4.466  -2.460  23.801  0.00  0.00    +0.179 C 
ENDBRANCH  20  25
ENDBRANCH  14  20
BRANCH  26  27
ATOM     27  C   UNL     1      -5.634   0.515  26.328  0.00  0.00    +0.234 C 
BRANCH  27   3
ATOM      3  S   UNL     1      -6.321   2.050  25.778  0.00  0.00    +0.003 S 
ATOM      7  O   UNL     1      -7.069   2.641  26.873  0.00  0.00    -0.169 OA
ATOM      8  O   UNL     1      -6.959   1.813  24.496  0.00  0.00    -0.169 OA
BRANCH   3  32
ATOM      1 CL   UNL     1      -1.316   5.676  24.808  0.00  0.00    -0.084 Cl
ATOM     32  C   UNL     1      -4.908   3.074  25.505  0.00  0.00    +0.089 A 
ATOM     33  C   UNL     1      -4.494   3.323  24.207  0.00  0.00    +0.028 A 
ATOM     34  C   UNL     1      -4.239   3.610  26.592  0.00  0.00    +0.028 A 
ATOM     35  C   UNL     1      -3.377   4.132  23.991  0.00  0.00    +0.022 A 
ATOM     36  C   UNL     1      -3.123   4.419  26.376  0.00  0.00    +0.022 A 
ATOM     37  C   UNL     1      -2.693   4.680  25.074  0.00  0.00    +0.041 A 
ENDBRANCH   3  32
ENDBRANCH  27   3
ENDBRANCH  26  27
TORSDOF 6
ENDMDL
MODEL 4
REMARK VINA RESULT:      20.9      1.271      2.202
REMARK  Name = 23786270
REMARK  9 active torsions:
REMARK  status: ('A' for Active; 'I' for Inactive)
REMARK    1  A    between atoms: S_3  and  C_27
REMARK    2  A    between atoms: S_3  and  C_32
REMARK    3  A    between atoms: O_4  and  C_13
REMARK    4  A    between atoms: C_11  and  C_19
REMARK    5  A    between atoms: C_14  and  C_20
REMARK    6  A    between atoms: C_16  and  C_23
REMARK    7  A    between atoms: C_20  and  C_24
REMARK    8  A    between atoms: C_20  and  C_25
REMARK    9  A    between atoms: C_26  and  C_27
REMARK                            x       y       z     vdW  Elec       q    Type
REMARK                         _______ _______ _______ _____ _____    ______ ____
ROOT
ATOM      2  S   UNL     1      -3.548   1.112  23.590  0.00  0.00    -0.075 S 
ATOM      9  N   UNL     1      -2.826  -0.275  25.649  0.00  0.00    -0.247 NA
ATOM     11  C   UNL     1       0.500   0.541  23.130  0.00  0.00    -0.022 C 
ATOM     12  C   UNL     1       0.558  -0.833  23.904  0.00  0.00    +0.033 C 
ATOM     13  C   UNL     1       2.022  -1.218  24.264  0.00  0.00    +0.123 C 
ATOM     14  C   UNL     1       2.970  -1.173  23.046  0.00  0.00    +0.029 C 
ATOM     15  C   UNL     1       1.456   0.497  21.914  0.00  0.00    +0.008 C 
ATOM     16  C   UNL     1      -0.424  -0.856  25.146  0.00  0.00    +0.042 C 
ATOM     17  C   UNL     1       2.890   0.157  22.295  0.00  0.00    +0.007 C 
ATOM     18  C   UNL     1      -0.943   0.777  22.580  0.00  0.00    +0.051 C 
ATOM     19  C   UNL     1       0.891   1.738  24.036  0.00  0.00    +0.012 C 
ATOM     21  C   UNL     1      -1.743  -0.214  24.791  0.00  0.00    +0.055 A 
ATOM     22  C   UNL     1      -1.953   0.521  23.641  0.00  0.00    +0.014 A 
ATOM     23  C   UNL     1      -0.662  -2.267  25.705  0.00  0.00    +0.014 C 
ATOM     26  C   UNL     1      -3.835   0.378  25.116  0.00  0.00    +0.100 A 
ENDROOT
BRANCH  13   4
ATOM      4  O   UNL     1       2.049  -2.552  24.771  0.00  0.00    -0.391 OA
ATOM     38  H   UNL     1       1.387  -2.619  25.480  0.00  0.00    +0.210 HD
ENDBRANCH  13   4
BRANCH  14  20
ATOM     20  C   UNL     1       4.424  -1.450  23.445  0.00  0.00    +0.078 C 
ATOM     24  C   UNL     1       4.498  -2.444  24.589  0.00  0.00    +0.017 C 
BRANCH  20  25
ATOM      5  O   UNL     1       4.490   0.604  24.627  0.00  0.00    -0.275 OA
ATOM      6  O   UNL     1       9.129   0.309  22.941  0.00  0.00    -0.377 OA
ATOM     10  N   UNL     1       6.347   0.091  23.333  0.00  0.00    -0.297 N 
ATOM     25  C   UNL     1       5.081  -0.158  23.858  0.00  0.00    +0.219 C 
ATOM     28  C   UNL     1       7.058   1.319  23.687  0.00  0.00    +0.136 C 
ATOM     29  C   UNL     1       7.025  -0.727  22.321  0.00  0.00    +0.136 C 
ATOM     30  C   UNL     1       8.512   1.014  24.021  0.00  0.00    +0.179 C 
ATOM     31  C   UNL     1       8.483  -0.945  22.709  0.00  0.00    +0.179 C 
ENDBRANCH  20  25
ENDBRANCH  14  20
BRANCH  26  27
ATOM     27  C   UNL     1      -5.168   0.518  25.741  0.00  0.00    +0.234 C 
BRANCH  27   3
ATOM      3  S   UNL     1      -5.677   2.206  25.593  0.00  0.00    +0.003 S 
ATOM      7  O   UNL     1      -6.228   2.636  26.865  0.00  0.00    -0.169 OA
ATOM      8  O   UNL     1      -6.460   2.324  24.376  0.00  0.00    -0.169 OA
BRANCH   3  32
ATOM      1 CL   UNL     1      -0.320   5.327  24.762  0.00  0.00    -0.084 Cl
ATOM     32  C   UNL     1      -4.165   3.087  25.359  0.00  0.00    +0.089 A 
ATOM     33  C   UNL     1      -3.974   3.804  24.190  0.00  0.00    +0.028 A 
ATOM     34  C   UNL     1      -3.197   3.046  26.348  0.00  0.00    +0.028 A 
ATOM     35  C   UNL     1      -2.779   4.501  24.005  0.00  0.00    +0.022 A 
ATOM     36  C   UNL     1      -2.002   3.742  26.163  0.00  0.00    +0.022 A 
ATOM     37  C   UNL     1      -1.794   4.470  24.991  0.00  0.00    +0.041 A 
ENDBRANCH   3  32
ENDBRANCH  27   3
ENDBRANCH  26  27
TORSDOF 6
ENDMDL
MODEL 5
REMARK VINA RESULT:      22.0      3.547      9.706
REMARK  Name = 23786270
REMARK  9 active torsions:
REMARK  status: ('A' for Active; 'I' for Inactive)
REMARK    1  A    between atoms: S_3  and  C_27
REMARK    2  A    between atoms: S_3  and  C_32
REMARK    3  A    between atoms: O_4  and  C_13
REMARK    4  A    between atoms: C_11  and  C_19
REMARK    5  A    between atoms: C_14  and  C_20
REMARK    6  A    between atoms: C_16  and  C_23
REMARK    7  A    between atoms: C_20  and  C_24
REMARK    8  A    between atoms: C_20  and  C_25
REMARK    9  A    between atoms: C_26  and  C_27
REMARK                            x       y       z     vdW  Elec       q    Type
REMARK                         _______ _______ _______ _____ _____    ______ ____
ROOT
ATOM      2  S   UNL     1       2.193  -0.694  22.096  0.00  0.00    -0.075 S 
ATOM      9  N   UNL     1       2.388   1.269  23.768  0.00  0.00    -0.247 NA
ATOM     11  C   UNL     1      -1.490  -0.468  23.914  0.00  0.00    -0.022 C 
ATOM     12  C   UNL     1      -1.431   1.083  24.207  0.00  0.00    +0.033 C 
ATOM     13  C   UNL     1      -2.522   1.507  25.231  0.00  0.00    +0.123 C 
ATOM     14  C   UNL     1      -3.934   1.022  24.836  0.00  0.00    +0.029 C 
ATOM     15  C   UNL     1      -2.927  -0.868  23.504  0.00  0.00    +0.008 C 
ATOM     16  C   UNL     1       0.027   1.555  24.607  0.00  0.00    +0.042 C 
ATOM     17  C   UNL     1      -3.974  -0.477  24.538  0.00  0.00    +0.007 C 
ATOM     18  C   UNL     1      -0.549  -0.815  22.717  0.00  0.00    +0.051 C 
ATOM     19  C   UNL     1      -1.065  -1.310  25.146  0.00  0.00    +0.012 C 
ATOM     21  C   UNL     1       1.060   0.884  23.734  0.00  0.00    +0.055 A 
ATOM     22  C   UNL     1       0.784  -0.182  22.902  0.00  0.00    +0.014 A 
ATOM     23  C   UNL     1       0.207   3.080  24.552  0.00  0.00    +0.014 C 
ATOM     26  C   UNL     1       3.075   0.516  22.937  0.00  0.00    +0.100 A 
ENDROOT
BRANCH  13   4
ATOM      4  O   UNL     1      -2.571   2.932  25.307  0.00  0.00    -0.391 OA
ATOM     38  H   UNL     1      -2.426   3.189  26.233  0.00  0.00    +0.210 HD
ENDBRANCH  13   4
BRANCH  14  20
ATOM     20  C   UNL     1      -4.974   1.359  25.911  0.00  0.00    +0.078 C 
ATOM     24  C   UNL     1      -6.328   0.766  25.569  0.00  0.00    +0.017 C 
BRANCH  20  25
ATOM      5  O   UNL     1      -5.263   3.364  27.144  0.00  0.00    -0.275 OA
ATOM      6  O   UNL     1      -4.108   5.135  22.674  0.00  0.00    -0.377 OA
ATOM     10  N   UNL     1      -5.010   3.585  24.847  0.00  0.00    -0.297 N 
ATOM     25  C   UNL     1      -5.097   2.857  26.032  0.00  0.00    +0.219 C 
ATOM     28  C   UNL     1      -5.114   5.043  24.875  0.00  0.00    +0.136 C 
ATOM     29  C   UNL     1      -4.941   3.011  23.499  0.00  0.00    +0.136 C 
ATOM     30  C   UNL     1      -4.038   5.669  23.998  0.00  0.00    +0.179 C 
ATOM     31  C   UNL     1      -3.875   3.725  22.676  0.00  0.00    +0.179 C 
ENDBRANCH  20  25
ENDBRANCH  14  20
BRANCH  26  27
ATOM     27  C   UNL     1       4.528   0.644  22.695  0.00  0.00    +0.234 C 
BRANCH  27   3
ATOM      3  S   UNL     1       5.385  -0.153  24.022  0.00  0.00    +0.003 S 
ATOM      7  O   UNL     1       4.908  -1.520  24.126  0.00  0.00    -0.169 OA
ATOM      8  O   UNL     1       5.336   0.732  25.172  0.00  0.00    -0.169 OA
BRANCH   3  32
ATOM      1 CL   UNL     1      11.311  -0.422  22.036  0.00  0.00    -0.084 Cl
ATOM     32  C   UNL     1       7.058  -0.229  23.461  0.00  0.00    +0.089 A 
ATOM     33  C   UNL     1       7.966   0.714  23.912  0.00  0.00    +0.028 A 
ATOM     34  C   UNL     1       7.432  -1.231  22.582  0.00  0.00    +0.028 A 
ATOM     35  C   UNL     1       9.289   0.653  23.469  0.00  0.00    +0.022 A 
ATOM     36  C   UNL     1       8.754  -1.291  22.139  0.00  0.00    +0.022 A 
ATOM     37  C   UNL     1       9.682  -0.349  22.583  0.00  0.00    +0.041 A 
ENDBRANCH   3  32
ENDBRANCH  27   3
ENDBRANCH  26  27
TORSDOF 6
ENDMDL
MODEL 6
REMARK VINA RESULT:      22.2      2.349      3.542
REMARK  Name = 23786270
REMARK  9 active torsions:
REMARK  status: ('A' for Active; 'I' for Inactive)
REMARK    1  A    between atoms: S_3  and  C_27
REMARK    2  A    between atoms: S_3  and  C_32
REMARK    3  A    between atoms: O_4  and  C_13
REMARK    4  A    between atoms: C_11  and  C_19
REMARK    5  A    between atoms: C_14  and  C_20
REMARK    6  A    between atoms: C_16  and  C_23
REMARK    7  A    between atoms: C_20  and  C_24
REMARK    8  A    between atoms: C_20  and  C_25
REMARK    9  A    between atoms: C_26  and  C_27
REMARK                            x       y       z     vdW  Elec       q    Type
REMARK                         _______ _______ _______ _____ _____    ______ ____
ROOT
ATOM      2  S   UNL     1      -3.319   4.031  26.189  0.00  0.00    -0.075 S 
ATOM      9  N   UNL     1      -4.169   2.360  24.409  0.00  0.00    -0.247 NA
ATOM     11  C   UNL     1       0.046   2.068  24.872  0.00  0.00    -0.022 C 
ATOM     12  C   UNL     1      -0.497   1.771  23.420  0.00  0.00    +0.033 C 
ATOM     13  C   UNL     1       0.373   0.704  22.696  0.00  0.00    +0.123 C 
ATOM     14  C   UNL     1       1.879   1.045  22.718  0.00  0.00    +0.029 C 
ATOM     15  C   UNL     1       1.550   2.423  24.805  0.00  0.00    +0.008 C 
ATOM     16  C   UNL     1      -2.043   1.428  23.424  0.00  0.00    +0.042 C 
ATOM     17  C   UNL     1       2.388   1.347  24.128  0.00  0.00    +0.007 C 
ATOM     18  C   UNL     1      -0.698   3.303  25.473  0.00  0.00    +0.051 C 
ATOM     19  C   UNL     1      -0.144   0.857  25.823  0.00  0.00    +0.012 C 
ATOM     21  C   UNL     1      -2.787   2.343  24.366  0.00  0.00    +0.055 A 
ATOM     22  C   UNL     1      -2.167   3.168  25.282  0.00  0.00    +0.014 A 
ATOM     23  C   UNL     1      -2.681   1.484  22.028  0.00  0.00    +0.014 C 
ATOM     26  C   UNL     1      -4.561   3.221  25.323  0.00  0.00    +0.100 A 
ENDROOT
BRANCH  13   4
ATOM      4  O   UNL     1      -0.022   0.621  21.328  0.00  0.00    -0.391 OA
ATOM     38  H   UNL     1      -0.947   0.323  21.298  0.00  0.00    +0.210 HD
ENDBRANCH  13   4
BRANCH  14  20
ATOM     20  C   UNL     1       2.725  -0.072  22.095  0.00  0.00    +0.078 C 
ATOM     24  C   UNL     1       1.879  -0.975  21.217  0.00  0.00    +0.017 C 
BRANCH  20  25
ATOM      5  O   UNL     1       2.727  -1.824  23.694  0.00  0.00    -0.275 OA
ATOM      6  O   UNL     1       7.442  -0.344  23.873  0.00  0.00    -0.377 OA
ATOM     10  N   UNL     1       4.645  -0.522  23.577  0.00  0.00    -0.297 N 
ATOM     25  C   UNL     1       3.357  -0.888  23.194  0.00  0.00    +0.219 C 
ATOM     28  C   UNL     1       5.335  -1.265  24.632  0.00  0.00    +0.136 C 
ATOM     29  C   UNL     1       5.373   0.657  23.097  0.00  0.00    +0.136 C 
ATOM     30  C   UNL     1       6.772  -1.557  24.224  0.00  0.00    +0.179 C 
ATOM     31  C   UNL     1       6.812   0.287  22.756  0.00  0.00    +0.179 C 
ENDBRANCH  20  25
ENDBRANCH  14  20
BRANCH  26  27
ATOM     27  C   UNL     1      -5.973   3.519  25.643  0.00  0.00    +0.234 C 
BRANCH  27   3
ATOM      3  S   UNL     1      -6.855   1.989  25.748  0.00  0.00    +0.003 S 
ATOM      7  O   UNL     1      -7.788   1.915  24.640  0.00  0.00    -0.169 OA
ATOM      8  O   UNL     1      -7.324   1.844  27.115  0.00  0.00    -0.169 OA
BRANCH   3  32
ATOM      1 CL   UNL     1      -2.461  -2.349  24.741  0.00  0.00    -0.084 Cl
ATOM     32  C   UNL     1      -5.614   0.764  25.464  0.00  0.00    +0.089 A 
ATOM     33  C   UNL     1      -4.689   0.495  26.458  0.00  0.00    +0.028 A 
ATOM     34  C   UNL     1      -5.590   0.094  24.253  0.00  0.00    +0.028 A 
ATOM     35  C   UNL     1      -3.709  -0.473  26.233  0.00  0.00    +0.022 A 
ATOM     36  C   UNL     1      -4.610  -0.874  24.028  0.00  0.00    +0.022 A 
ATOM     37  C   UNL     1      -3.670  -1.157  25.019  0.00  0.00    +0.041 A 
ENDBRANCH   3  32
ENDBRANCH  27   3
ENDBRANCH  26  27
TORSDOF 6
ENDMDL
MODEL 7
REMARK VINA RESULT:      22.4      3.133      9.106
REMARK  Name = 23786270
REMARK  9 active torsions:
REMARK  status: ('A' for Active; 'I' for Inactive)
REMARK    1  A    between atoms: S_3  and  C_27
REMARK    2  A    between atoms: S_3  and  C_32
REMARK    3  A    between atoms: O_4  and  C_13
REMARK    4  A    between atoms: C_11  and  C_19
REMARK    5  A    between atoms: C_14  and  C_20
REMARK    6  A    between atoms: C_16  and  C_23
REMARK    7  A    between atoms: C_20  and  C_24
REMARK    8  A    between atoms: C_20  and  C_25
REMARK    9  A    between atoms: C_26  and  C_27
REMARK                            x       y       z     vdW  Elec       q    Type
REMARK                         _______ _______ _______ _____ _____    ______ ____
ROOT
ATOM      2  S   UNL     1       1.256  -2.348  24.525  0.00  0.00    -0.075 S 
ATOM      9  N   UNL     1       1.168  -0.119  23.217  0.00  0.00    -0.247 NA
ATOM     11  C   UNL     1      -2.379  -0.683  25.492  0.00  0.00    -0.022 C 
ATOM     12  C   UNL     1      -2.563   0.104  24.135  0.00  0.00    +0.033 C 
ATOM     13  C   UNL     1      -3.687   1.172  24.248  0.00  0.00    +0.123 C 
ATOM     14  C   UNL     1      -5.011   0.592  24.792  0.00  0.00    +0.029 C 
ATOM     15  C   UNL     1      -3.741  -1.251  25.955  0.00  0.00    +0.008 C 
ATOM     16  C   UNL     1      -1.191   0.686  23.598  0.00  0.00    +0.042 C 
ATOM     17  C   UNL     1      -4.817  -0.183  26.096  0.00  0.00    +0.007 C 
ATOM     18  C   UNL     1      -1.419  -1.895  25.273  0.00  0.00    +0.051 C 
ATOM     19  C   UNL     1      -1.801   0.218  26.614  0.00  0.00    +0.012 C 
ATOM     21  C   UNL     1      -0.082  -0.323  23.773  0.00  0.00    +0.055 A 
ATOM     22  C   UNL     1      -0.200  -1.467  24.535  0.00  0.00    +0.014 A 
ATOM     23  C   UNL     1      -1.258   1.141  22.132  0.00  0.00    +0.014 C 
ATOM     26  C   UNL     1       1.950  -1.127  23.537  0.00  0.00    +0.100 A 
ENDROOT
BRANCH  13   4
ATOM      4  O   UNL     1      -3.961   1.709  22.955  0.00  0.00    -0.391 OA
ATOM     38  H   UNL     1      -3.565   2.596  22.906  0.00  0.00    +0.210 HD
ENDBRANCH  13   4
BRANCH  14  20
ATOM     20  C   UNL     1      -6.070   1.682  24.996  0.00  0.00    +0.078 C 
ATOM     24  C   UNL     1      -6.263   2.502  23.733  0.00  0.00    +0.017 C 
BRANCH  20  25
ATOM      5  O   UNL     1      -6.165   2.465  27.232  0.00  0.00    -0.275 OA
ATOM      6  O   UNL     1      -2.201   4.881  25.529  0.00  0.00    -0.377 OA
ATOM     10  N   UNL     1      -4.652   3.522  25.825  0.00  0.00    -0.297 N 
ATOM     25  C   UNL     1      -5.641   2.587  26.122  0.00  0.00    +0.219 C 
ATOM     28  C   UNL     1      -4.173   4.437  26.861  0.00  0.00    +0.136 C 
ATOM     29  C   UNL     1      -4.098   3.781  24.492  0.00  0.00    +0.136 C 
ATOM     30  C   UNL     1      -2.653   4.520  26.836  0.00  0.00    +0.179 C 
ATOM     31  C   UNL     1      -2.580   3.897  24.564  0.00  0.00    +0.179 C 
ENDBRANCH  20  25
ENDBRANCH  14  20
BRANCH  26  27
ATOM     27  C   UNL     1       3.359  -1.264  23.109  0.00  0.00    +0.234 C 
BRANCH  27   3
ATOM      3  S   UNL     1       3.959   0.337  22.653  0.00  0.00    +0.003 S 
ATOM      7  O   UNL     1       3.376   1.322  23.546  0.00  0.00    -0.169 OA
ATOM      8  O   UNL     1       3.809   0.470  21.215  0.00  0.00    -0.169 OA
BRANCH   3  32
ATOM      1 CL   UNL     1      10.074   0.075  23.950  0.00  0.00    -0.084 Cl
ATOM     32  C   UNL     1       5.685   0.263  23.019  0.00  0.00    +0.089 A 
ATOM     33  C   UNL     1       6.468  -0.696  22.399  0.00  0.00    +0.028 A 
ATOM     34  C   UNL     1       6.225   1.165  23.919  0.00  0.00    +0.028 A 
ATOM     35  C   UNL     1       7.832  -0.754  22.688  0.00  0.00    +0.022 A 
ATOM     36  C   UNL     1       7.589   1.108  24.208  0.00  0.00    +0.022 A 
ATOM     37  C   UNL     1       8.392   0.148  23.592  0.00  0.00    +0.041 A 
ENDBRANCH   3  32
ENDBRANCH  27   3
ENDBRANCH  26  27
TORSDOF 6
ENDMDL
