MODEL 1
REMARK VINA RESULT:      -2.4      0.000      0.000
REMARK  Name = 7662925
REMARK  6 active torsions:
REMARK  status: ('A' for Active; 'I' for Inactive)
REMARK    1  A    between atoms: O_3  and  C_27
REMARK    2  A    between atoms: C_15  and  C_20
REMARK    3  A    between atoms: C_17  and  C_21
REMARK    4  A    between atoms: C_21  and  C_22
REMARK    5  A    between atoms: C_22  and  C_27
REMARK    6  A    between atoms: C_25  and  C_29
REMARK                            x       y       z     vdW  Elec       q    Type
REMARK                         _______ _______ _______ _____ _____    ______ ____
ROOT
ATOM      1  O   UNL     1      -2.311   4.237  27.199  0.00  0.00    -0.268 OA
ATOM      2  O   UNL     1      -5.425   0.193  25.899  0.00  0.00    -0.276 OA
ATOM      5  N   UNL     1      -4.168   0.838  24.055  0.00  0.00    -0.301 N 
ATOM      6  N   UNL     1      -2.257   3.146  25.127  0.00  0.00    -0.311 N 
ATOM      8  C   UNL     1      -4.231   3.265  23.497  0.00  0.00    +0.027 C 
ATOM      9  C   UNL     1      -2.243   1.938  22.922  0.00  0.00    +0.054 C 
ATOM     10  C   UNL     1      -3.173   3.044  22.426  0.00  0.00    +0.018 C 
ATOM     11  C   UNL     1      -5.033   1.977  23.746  0.00  0.00    +0.113 C 
ATOM     12  C   UNL     1      -3.540   3.764  24.767  0.00  0.00    +0.130 C 
ATOM     13  C   UNL     1      -3.052   0.639  23.122  0.00  0.00    +0.117 C 
ATOM     14  C   UNL     1      -1.543   2.331  24.226  0.00  0.00    +0.034 A 
ATOM     15  C   UNL     1      -0.292   1.906  24.544  0.00  0.00    +0.002 A 
ATOM     16  C   UNL     1      -1.738   3.519  26.380  0.00  0.00    +0.252 A 
ATOM     17  C   UNL     1      -4.480   0.004  25.128  0.00  0.00    +0.216 C 
ATOM     18  C   UNL     1       0.274   2.268  25.829  0.00  0.00    +0.015 A 
ATOM     19  C   UNL     1      -0.388   3.011  26.715  0.00  0.00    +0.071 A 
ENDROOT
BRANCH  15  20
ATOM     20  C   UNL     1       0.503   1.066  23.621  0.00  0.00    -0.015 A 
ATOM     23  C   UNL     1       1.893   1.099  23.680  0.00  0.00    +0.027 A 
ATOM     24  C   UNL     1      -0.145   0.250  22.699  0.00  0.00    +0.008 A 
ATOM     25  C   UNL     1       2.641   0.308  22.808  0.00  0.00    +0.052 A 
ATOM     26  C   UNL     1       0.603  -0.542  21.827  0.00  0.00    +0.002 A 
ATOM     28  C   UNL     1       1.997  -0.512  21.882  0.00  0.00    +0.019 A 
BRANCH  25  29
ATOM      7  N   UNL     1       5.230   0.360  22.908  0.00  0.00    -0.191 NA
ATOM     29  C   UNL     1       4.070   0.337  22.863  0.00  0.00    +0.099 C 
ENDBRANCH  25  29
ENDBRANCH  15  20
BRANCH  17  21
ATOM     21  C   UNL     1      -3.584  -1.190  25.339  0.00  0.00    +0.107 C 
BRANCH  21  22
ATOM     22  C   UNL     1      -2.192  -0.728  25.722  0.00  0.00    +0.129 C 
BRANCH  22  27
ATOM      4  O   UNL     1      -1.355  -2.578  24.412  0.00  0.00    -0.251 OA
ATOM     27  C   UNL     1      -1.143  -1.696  25.235  0.00  0.00    +0.305 C 
BRANCH  27   3
ATOM      3  O   UNL     1       0.062  -1.501  25.825  0.00  0.00    -0.481 OA
ATOM     30  H   UNL     1       0.776  -2.002  25.375  0.00  0.00    +0.295 HD
ENDBRANCH  27   3
ENDBRANCH  22  27
ENDBRANCH  21  22
ENDBRANCH  17  21
TORSDOF 6
ENDMDL
MODEL 2
REMARK VINA RESULT:       0.6      2.424      4.646
REMARK  Name = 7662925
REMARK  6 active torsions:
REMARK  status: ('A' for Active; 'I' for Inactive)
REMARK    1  A    between atoms: O_3  and  C_27
REMARK    2  A    between atoms: C_15  and  C_20
REMARK    3  A    between atoms: C_17  and  C_21
REMARK    4  A    between atoms: C_21  and  C_22
REMARK    5  A    between atoms: C_22  and  C_27
REMARK    6  A    between atoms: C_25  and  C_29
REMARK                            x       y       z     vdW  Elec       q    Type
REMARK                         _______ _______ _______ _____ _____    ______ ____
ROOT
ATOM      1  O   UNL     1      -3.807   4.234  21.200  0.00  0.00    -0.268 OA
ATOM      2  O   UNL     1      -0.530   5.045  25.243  0.00  0.00    -0.276 OA
ATOM      5  N   UNL     1      -2.114   3.450  25.826  0.00  0.00    -0.301 N 
ATOM      6  N   UNL     1      -3.843   3.004  23.192  0.00  0.00    -0.311 N 
ATOM      8  C   UNL     1      -4.489   4.084  25.425  0.00  0.00    +0.027 C 
ATOM      9  C   UNL     1      -3.836   1.716  25.352  0.00  0.00    +0.054 C 
ATOM     10  C   UNL     1      -4.928   2.680  25.812  0.00  0.00    +0.018 C 
ATOM     11  C   UNL     1      -3.153   4.444  26.095  0.00  0.00    +0.113 C 
ATOM     12  C   UNL     1      -4.403   4.163  23.900  0.00  0.00    +0.130 C 
ATOM     13  C   UNL     1      -2.513   2.057  26.069  0.00  0.00    +0.117 C 
ATOM     14  C   UNL     1      -3.643   1.765  23.834  0.00  0.00    +0.034 A 
ATOM     15  C   UNL     1      -3.268   0.680  23.107  0.00  0.00    +0.002 A 
ATOM     16  C   UNL     1      -3.636   3.181  21.813  0.00  0.00    +0.252 A 
ATOM     17  C   UNL     1      -0.842   3.868  25.440  0.00  0.00    +0.216 C 
ATOM     18  C   UNL     1      -3.041   0.825  21.682  0.00  0.00    +0.015 A 
ATOM     19  C   UNL     1      -3.192   1.990  21.052  0.00  0.00    +0.071 A 
ENDROOT
BRANCH  15  20
ATOM     20  C   UNL     1      -3.065  -0.646  23.733  0.00  0.00    -0.015 A 
ATOM     23  C   UNL     1      -1.813  -0.989  24.234  0.00  0.00    +0.027 A 
ATOM     24  C   UNL     1      -4.128  -1.540  23.814  0.00  0.00    +0.008 A 
ATOM     25  C   UNL     1      -1.623  -2.240  24.822  0.00  0.00    +0.052 A 
ATOM     26  C   UNL     1      -3.938  -2.790  24.403  0.00  0.00    +0.002 A 
ATOM     28  C   UNL     1      -2.685  -3.140  24.907  0.00  0.00    +0.019 A 
BRANCH  25  29
ATOM      7  N   UNL     1       0.703  -2.892  25.759  0.00  0.00    -0.191 NA
ATOM     29  C   UNL     1      -0.340  -2.600  25.340  0.00  0.00    +0.099 C 
ENDBRANCH  25  29
ENDBRANCH  15  20
BRANCH  17  21
ATOM     21  C   UNL     1       0.196   2.789  25.252  0.00  0.00    +0.107 C 
BRANCH  21  22
ATOM     22  C   UNL     1       0.076   2.197  23.862  0.00  0.00    +0.129 C 
BRANCH  22  27
ATOM      4  O   UNL     1       0.882  -0.055  23.518  0.00  0.00    -0.251 OA
ATOM     27  C   UNL     1       1.126   1.140  23.628  0.00  0.00    +0.305 C 
BRANCH  27   3
ATOM      3  O   UNL     1       2.380   1.653  23.577  0.00  0.00    -0.481 OA
ATOM     30  H   UNL     1       2.441   2.410  22.956  0.00  0.00    +0.295 HD
ENDBRANCH  27   3
ENDBRANCH  22  27
ENDBRANCH  21  22
ENDBRANCH  17  21
TORSDOF 6
ENDMDL
