MODEL 1
REMARK VINA RESULT:       1.0      0.000      0.000
REMARK  Name = 28959930
REMARK  8 active torsions:
REMARK  status: ('A' for Active; 'I' for Inactive)
REMARK    1  A    between atoms: O_3  and  C_26
REMARK    2  A    between atoms: N_6  and  C_16
REMARK    3  A    between atoms: N_7  and  C_27
REMARK    4  A    between atoms: C_8  and  C_12
REMARK    5  A    between atoms: C_9  and  C_15
REMARK    6  A    between atoms: C_12  and  C_16
REMARK    7  A    between atoms: C_14  and  C_17
REMARK    8  A    between atoms: C_15  and  C_26
REMARK                            x       y       z     vdW  Elec       q    Type
REMARK                         _______ _______ _______ _____ _____    ______ ____
ROOT
ATOM      2  O   UNL     1      -4.046  -0.762  26.461  0.00  0.00    -0.275 OA
ATOM      5  N   UNL     1      -4.678   0.995  25.087  0.00  0.00    -0.301 N 
ATOM      8  C   UNL     1      -4.130   2.956  23.666  0.00  0.00    +0.011 C 
ATOM      9  C   UNL     1      -4.589   3.876  24.825  0.00  0.00    +0.006 C 
ATOM     10  C   UNL     1      -4.849   1.598  23.760  0.00  0.00    +0.111 C 
ATOM     11  C   UNL     1      -4.439   3.184  26.190  0.00  0.00    +0.023 C 
ATOM     13  C   UNL     1      -5.131   1.824  26.203  0.00  0.00    +0.108 C 
ATOM     17  C   UNL     1      -4.152  -0.284  25.321  0.00  0.00    +0.219 C 
ENDROOT
BRANCH  17  14
ATOM     14  C   UNL     1      -3.707  -1.070  24.126  0.00  0.00    +0.075 C 
ATOM     18  C   UNL     1      -4.749  -2.138  23.776  0.00  0.00    +0.013 C 
ATOM     19  C   UNL     1      -2.408  -1.820  24.425  0.00  0.00    +0.013 C 
ATOM     20  C   UNL     1      -4.001  -3.467  23.783  0.00  0.00    +0.001 C 
ATOM     21  C   UNL     1      -2.850  -3.241  24.747  0.00  0.00    +0.001 C 
ENDBRANCH  17  14
BRANCH   8  12
ATOM     12  C   UNL     1      -2.612   2.750  23.597  0.00  0.00    +0.020 C 
BRANCH  12  16
ATOM     16  C   UNL     1      -2.267   1.533  22.750  0.00  0.00    +0.085 C 
BRANCH  16   6
ATOM      6  N   UNL     1      -1.008   0.948  23.210  0.00  0.00    -0.299 NA
ATOM      7  N   UNL     1       1.815   0.514  23.222  0.00  0.00    -0.327 N 
ATOM     22  C   UNL     1      -0.097   1.995  23.686  0.00  0.00    +0.103 C 
ATOM     23  C   UNL     1      -0.370   0.183  22.133  0.00  0.00    +0.103 C 
ATOM     24  C   UNL     1       1.203   1.393  24.224  0.00  0.00    +0.120 C 
ATOM     25  C   UNL     1       0.920  -0.482  22.619  0.00  0.00    +0.120 C 
BRANCH   7  27
ATOM      1  F   UNL     1       7.196  -0.707  23.565  0.00  0.00    -0.205 F 
ATOM     27  C   UNL     1       3.177   0.205  23.309  0.00  0.00    +0.030 A 
ATOM     28  C   UNL     1       3.579  -1.073  23.699  0.00  0.00    +0.026 A 
ATOM     29  C   UNL     1       4.133   1.174  23.004  0.00  0.00    +0.026 A 
ATOM     30  C   UNL     1       4.936  -1.381  23.786  0.00  0.00    +0.040 A 
ATOM     31  C   UNL     1       5.490   0.866  23.090  0.00  0.00    +0.040 A 
ATOM     32  C   UNL     1       5.892  -0.412  23.482  0.00  0.00    +0.124 A 
ENDBRANCH   7  27
ENDBRANCH  16   6
ENDBRANCH  12  16
ENDBRANCH   8  12
BRANCH   9  15
ATOM     15  C   UNL     1      -3.886   5.234  24.828  0.00  0.00    +0.124 C 
BRANCH  15  26
ATOM      4  O   UNL     1      -1.499   5.684  25.021  0.00  0.00    -0.251 OA
ATOM     26  C   UNL     1      -2.514   5.147  25.437  0.00  0.00    +0.305 C 
BRANCH  26   3
ATOM      3  O   UNL     1      -2.554   4.368  26.548  0.00  0.00    -0.481 OA
ATOM     33  H   UNL     1      -1.757   3.802  26.628  0.00  0.00    +0.295 HD
ENDBRANCH  26   3
ENDBRANCH  15  26
ENDBRANCH   9  15
TORSDOF 8
ENDMDL
MODEL 2
REMARK VINA RESULT:       2.3      1.493      4.371
REMARK  Name = 28959930
REMARK  8 active torsions:
REMARK  status: ('A' for Active; 'I' for Inactive)
REMARK    1  A    between atoms: O_3  and  C_26
REMARK    2  A    between atoms: N_6  and  C_16
REMARK    3  A    between atoms: N_7  and  C_27
REMARK    4  A    between atoms: C_8  and  C_12
REMARK    5  A    between atoms: C_9  and  C_15
REMARK    6  A    between atoms: C_12  and  C_16
REMARK    7  A    between atoms: C_14  and  C_17
REMARK    8  A    between atoms: C_15  and  C_26
REMARK                            x       y       z     vdW  Elec       q    Type
REMARK                         _______ _______ _______ _____ _____    ______ ____
ROOT
ATOM      2  O   UNL     1      -6.211   4.483  25.731  0.00  0.00    -0.275 OA
ATOM      5  N   UNL     1      -4.770   2.669  25.824  0.00  0.00    -0.301 N 
ATOM      8  C   UNL     1      -3.240   1.044  24.736  0.00  0.00    +0.011 C 
ATOM      9  C   UNL     1      -4.364  -0.018  24.827  0.00  0.00    +0.006 C 
ATOM     10  C   UNL     1      -3.421   2.093  25.848  0.00  0.00    +0.111 C 
ATOM     11  C   UNL     1      -5.758   0.634  24.849  0.00  0.00    +0.023 C 
ATOM     13  C   UNL     1      -5.856   1.697  25.939  0.00  0.00    +0.108 C 
ATOM     17  C   UNL     1      -5.053   4.040  25.725  0.00  0.00    +0.219 C 
ENDROOT
BRANCH  17  14
ATOM     14  C   UNL     1      -3.885   4.972  25.607  0.00  0.00    +0.075 C 
ATOM     18  C   UNL     1      -3.152   4.737  24.282  0.00  0.00    +0.013 C 
ATOM     19  C   UNL     1      -2.866   4.704  26.714  0.00  0.00    +0.013 C 
ATOM     20  C   UNL     1      -1.703   4.439  24.655  0.00  0.00    +0.001 C 
ATOM     21  C   UNL     1      -1.793   3.850  26.052  0.00  0.00    +0.001 C 
ENDBRANCH  17  14
BRANCH   8  12
ATOM     12  C   UNL     1      -3.139   1.730  23.368  0.00  0.00    +0.020 C 
BRANCH  12  16
ATOM     16  C   UNL     1      -2.345   0.876  22.389  0.00  0.00    +0.085 C 
BRANCH  16   6
ATOM      6  N   UNL     1      -1.062   0.504  22.981  0.00  0.00    -0.299 NA
ATOM      7  N   UNL     1       1.783   0.292  23.119  0.00  0.00    -0.327 N 
ATOM     22  C   UNL     1      -0.239   1.695  23.218  0.00  0.00    +0.103 C 
ATOM     23  C   UNL     1      -0.344  -0.434  22.109  0.00  0.00    +0.103 C 
ATOM     24  C   UNL     1       1.086   1.325  23.891  0.00  0.00    +0.120 C 
ATOM     25  C   UNL     1       0.976  -0.876  22.745  0.00  0.00    +0.120 C 
BRANCH   7  27
ATOM      1  F   UNL     1       7.226  -0.416  23.781  0.00  0.00    -0.205 F 
ATOM     27  C   UNL     1       3.161   0.112  23.286  0.00  0.00    +0.030 A 
ATOM     28  C   UNL     1       4.040   1.159  23.004  0.00  0.00    +0.026 A 
ATOM     29  C   UNL     1       3.655  -1.112  23.737  0.00  0.00    +0.026 A 
ATOM     30  C   UNL     1       5.413   0.980  23.171  0.00  0.00    +0.040 A 
ATOM     31  C   UNL     1       5.029  -1.289  23.904  0.00  0.00    +0.040 A 
ATOM     32  C   UNL     1       5.908  -0.244  23.621  0.00  0.00    +0.124 A 
ENDBRANCH   7  27
ENDBRANCH  16   6
ENDBRANCH  12  16
ENDBRANCH   8  12
BRANCH   9  15
ATOM     15  C   UNL     1      -4.281  -1.076  23.727  0.00  0.00    +0.124 C 
BRANCH  15  26
ATOM      4  O   UNL     1      -3.911  -3.439  24.194  0.00  0.00    -0.251 OA
ATOM     26  C   UNL     1      -3.509  -2.285  24.176  0.00  0.00    +0.305 C 
BRANCH  26   3
ATOM      3  O   UNL     1      -2.264  -1.913  24.571  0.00  0.00    -0.481 OA
ATOM     33  H   UNL     1      -1.582  -2.558  24.286  0.00  0.00    +0.295 HD
ENDBRANCH  26   3
ENDBRANCH  15  26
ENDBRANCH   9  15
TORSDOF 8
ENDMDL
MODEL 3
REMARK VINA RESULT:       4.8      1.984      2.947
REMARK  Name = 28959930
REMARK  8 active torsions:
REMARK  status: ('A' for Active; 'I' for Inactive)
REMARK    1  A    between atoms: O_3  and  C_26
REMARK    2  A    between atoms: N_6  and  C_16
REMARK    3  A    between atoms: N_7  and  C_27
REMARK    4  A    between atoms: C_8  and  C_12
REMARK    5  A    between atoms: C_9  and  C_15
REMARK    6  A    between atoms: C_12  and  C_16
REMARK    7  A    between atoms: C_14  and  C_17
REMARK    8  A    between atoms: C_15  and  C_26
REMARK                            x       y       z     vdW  Elec       q    Type
REMARK                         _______ _______ _______ _____ _____    ______ ____
ROOT
ATOM      2  O   UNL     1      -3.623  -2.136  25.231  0.00  0.00    -0.275 OA
ATOM      5  N   UNL     1      -4.086  -0.011  24.427  0.00  0.00    -0.301 N 
ATOM      8  C   UNL     1      -4.192   2.453  24.716  0.00  0.00    +0.011 C 
ATOM      9  C   UNL     1      -5.727   2.330  24.885  0.00  0.00    +0.006 C 
ATOM     10  C   UNL     1      -3.663   1.279  23.872  0.00  0.00    +0.111 C 
ATOM     11  C   UNL     1      -6.127   0.945  25.422  0.00  0.00    +0.023 C 
ATOM     13  C   UNL     1      -5.532  -0.174  24.571  0.00  0.00    +0.108 C 
ATOM     17  C   UNL     1      -3.216  -1.052  24.785  0.00  0.00    +0.219 C 
ENDROOT
BRANCH  17  14
ATOM     14  C   UNL     1      -1.748  -0.807  24.611  0.00  0.00    +0.075 C 
ATOM     18  C   UNL     1      -1.065  -2.056  24.045  0.00  0.00    +0.013 C 
ATOM     19  C   UNL     1      -1.084  -0.529  25.960  0.00  0.00    +0.013 C 
ATOM     20  C   UNL     1       0.043  -2.408  25.032  0.00  0.00    +0.001 C 
ATOM     21  C   UNL     1      -0.450  -1.855  26.357  0.00  0.00    +0.001 C 
ENDBRANCH  17  14
BRANCH   8  12
ATOM     12  C   UNL     1      -3.423   2.544  26.041  0.00  0.00    +0.020 C 
BRANCH  12  16
ATOM     16  C   UNL     1      -2.592   3.818  26.101  0.00  0.00    +0.085 C 
BRANCH  16   6
ATOM      6  N   UNL     1      -1.280   3.584  25.500  0.00  0.00    -0.299 NA
ATOM      7  N   UNL     1       0.738   2.083  24.145  0.00  0.00    -0.327 N 
ATOM     22  C   UNL     1      -1.414   3.279  24.071  0.00  0.00    +0.103 C 
ATOM     23  C   UNL     1      -0.589   2.484  26.183  0.00  0.00    +0.103 C 
ATOM     24  C   UNL     1      -0.044   3.088  23.417  0.00  0.00    +0.120 C 
ATOM     25  C   UNL     1       0.810   2.267  25.600  0.00  0.00    +0.120 C 
BRANCH   7  27
ATOM      1  F   UNL     1       4.963  -0.451  21.638  0.00  0.00    -0.205 F 
ATOM     27  C   UNL     1       1.807   1.441  23.510  0.00  0.00    +0.030 A 
ATOM     28  C   UNL     1       3.049   2.073  23.428  0.00  0.00    +0.026 A 
ATOM     29  C   UNL     1       1.632   0.171  22.962  0.00  0.00    +0.026 A 
ATOM     30  C   UNL     1       4.115   1.433  22.796  0.00  0.00    +0.040 A 
ATOM     31  C   UNL     1       2.699  -0.467  22.329  0.00  0.00    +0.040 A 
ATOM     32  C   UNL     1       3.940   0.163  22.246  0.00  0.00    +0.124 A 
ENDBRANCH   7  27
ENDBRANCH  16   6
ENDBRANCH  12  16
ENDBRANCH   8  12
BRANCH   9  15
ATOM     15  C   UNL     1      -6.326   3.437  25.751  0.00  0.00    +0.124 C 
BRANCH  15  26
ATOM      4  O   UNL     1      -5.049   5.051  24.445  0.00  0.00    -0.251 OA
ATOM     26  C   UNL     1      -5.912   4.801  25.273  0.00  0.00    +0.305 C 
BRANCH  26   3
ATOM      3  O   UNL     1      -6.650   5.751  25.903  0.00  0.00    -0.481 OA
ATOM     33  H   UNL     1      -7.110   5.394  26.693  0.00  0.00    +0.295 HD
ENDBRANCH  26   3
ENDBRANCH  15  26
ENDBRANCH   9  15
TORSDOF 8
ENDMDL
MODEL 4
REMARK VINA RESULT:       4.9      1.910      3.270
REMARK  Name = 28959930
REMARK  8 active torsions:
REMARK  status: ('A' for Active; 'I' for Inactive)
REMARK    1  A    between atoms: O_3  and  C_26
REMARK    2  A    between atoms: N_6  and  C_16
REMARK    3  A    between atoms: N_7  and  C_27
REMARK    4  A    between atoms: C_8  and  C_12
REMARK    5  A    between atoms: C_9  and  C_15
REMARK    6  A    between atoms: C_12  and  C_16
REMARK    7  A    between atoms: C_14  and  C_17
REMARK    8  A    between atoms: C_15  and  C_26
REMARK                            x       y       z     vdW  Elec       q    Type
REMARK                         _______ _______ _______ _____ _____    ______ ____
ROOT
ATOM      2  O   UNL     1      -5.282   4.686  26.486  0.00  0.00    -0.275 OA
ATOM      5  N   UNL     1      -3.750   4.022  24.878  0.00  0.00    -0.301 N 
ATOM      8  C   UNL     1      -2.095   2.402  23.983  0.00  0.00    +0.011 C 
ATOM      9  C   UNL     1      -0.965   3.341  24.476  0.00  0.00    +0.006 C 
ATOM     10  C   UNL     1      -3.371   3.218  23.710  0.00  0.00    +0.111 C 
ATOM     11  C   UNL     1      -1.423   4.199  25.668  0.00  0.00    +0.023 C 
ATOM     13  C   UNL     1      -2.718   4.943  25.352  0.00  0.00    +0.108 C 
ATOM     17  C   UNL     1      -5.000   3.970  25.514  0.00  0.00    +0.219 C 
ENDROOT
BRANCH  17  14
ATOM     14  C   UNL     1      -6.003   2.998  24.971  0.00  0.00    +0.075 C 
ATOM     18  C   UNL     1      -6.790   2.353  26.117  0.00  0.00    +0.013 C 
ATOM     19  C   UNL     1      -5.303   1.855  24.235  0.00  0.00    +0.013 C 
ATOM     20  C   UNL     1      -6.607   0.848  25.952  0.00  0.00    +0.001 C 
ATOM     21  C   UNL     1      -5.273   0.712  25.240  0.00  0.00    +0.001 C 
ENDBRANCH  17  14
BRANCH   8  12
ATOM     12  C   UNL     1      -2.400   1.239  24.935  0.00  0.00    +0.020 C 
BRANCH  12  16
ATOM     16  C   UNL     1      -2.494  -0.077  24.175  0.00  0.00    +0.085 C 
BRANCH  16   6
ATOM      6  N   UNL     1      -1.159  -0.509  23.763  0.00  0.00    -0.299 NA
ATOM      7  N   UNL     1       1.689  -0.372  23.592  0.00  0.00    -0.327 N 
ATOM     22  C   UNL     1      -0.329  -0.807  24.935  0.00  0.00    +0.103 C 
ATOM     23  C   UNL     1      -0.513   0.524  22.943  0.00  0.00    +0.103 C 
ATOM     24  C   UNL     1       1.053  -1.315  24.518  0.00  0.00    +0.120 C 
ATOM     25  C   UNL     1       0.862   0.060  22.458  0.00  0.00    +0.120 C 
BRANCH   7  27
ATOM      1  F   UNL     1       7.175  -0.474  22.916  0.00  0.00    -0.205 F 
ATOM     27  C   UNL     1       3.078  -0.398  23.421  0.00  0.00    +0.030 A 
ATOM     28  C   UNL     1       3.813  -1.503  23.852  0.00  0.00    +0.026 A 
ATOM     29  C   UNL     1       3.726   0.680  22.817  0.00  0.00    +0.026 A 
ATOM     30  C   UNL     1       5.197  -1.528  23.682  0.00  0.00    +0.040 A 
ATOM     31  C   UNL     1       5.110   0.653  22.647  0.00  0.00    +0.040 A 
ATOM     32  C   UNL     1       5.846  -0.450  23.079  0.00  0.00    +0.124 A 
ENDBRANCH   7  27
ENDBRANCH  16   6
ENDBRANCH  12  16
ENDBRANCH   8  12
BRANCH   9  15
ATOM     15  C   UNL     1       0.328   2.599  24.812  0.00  0.00    +0.124 C 
BRANCH  15  26
ATOM      4  O   UNL     1       1.240   3.073  27.022  0.00  0.00    -0.251 OA
ATOM     26  C   UNL     1       0.500   2.426  26.296  0.00  0.00    +0.305 C 
BRANCH  26   3
ATOM      3  O   UNL     1      -0.303   1.424  26.737  0.00  0.00    -0.481 OA
ATOM     33  H   UNL     1       0.214   0.651  27.049  0.00  0.00    +0.295 HD
ENDBRANCH  26   3
ENDBRANCH  15  26
ENDBRANCH   9  15
TORSDOF 8
ENDMDL
