MODEL 1
REMARK VINA RESULT:       9.1      0.000      0.000
REMARK  Name = 40779467
REMARK  11 active torsions:
REMARK  status: ('A' for Active; 'I' for Inactive)
REMARK    1  A    between atoms: S_1  and  N_8
REMARK    2  A    between atoms: S_1  and  C_23
REMARK    3  A    between atoms: O_4  and  C_26
REMARK    4  A    between atoms: O_4  and  C_38
REMARK    5  A    between atoms: O_5  and  C_31
REMARK    6  A    between atoms: O_5  and  C_39
REMARK    7  A    between atoms: N_7  and  C_21
REMARK    8  A    between atoms: N_8  and  C_17
REMARK    9  A    between atoms: C_11  and  C_18
REMARK   10  A    between atoms: C_12  and  C_17
REMARK   11  A    between atoms: C_20  and  C_22
REMARK                            x       y       z     vdW  Elec       q    Type
REMARK                         _______ _______ _______ _____ _____    ______ ____
ROOT
ATOM      6  N   UNL     1      -5.677   1.902  26.495  0.00  0.00    -0.297 NA
ATOM     10  C   UNL     1      -5.275   1.340  23.983  0.00  0.00    +0.002 C 
ATOM     11  C   UNL     1      -4.829   0.155  24.884  0.00  0.00    +0.055 C 
ATOM     12  C   UNL     1      -4.947   3.016  25.837  0.00  0.00    +0.072 C 
ATOM     13  C   UNL     1      -4.518   2.617  24.408  0.00  0.00    +0.024 C 
ATOM     14  C   UNL     1      -6.772   1.582  24.277  0.00  0.00    +0.019 C 
ATOM     15  C   UNL     1      -4.909   0.639  26.360  0.00  0.00    +0.094 C 
ATOM     16  C   UNL     1      -6.973   1.731  25.795  0.00  0.00    +0.085 C 
ENDROOT
BRANCH  11  18
ATOM      7  N   UNL     1      -3.416  -1.812  24.125  0.00  0.00    -0.270 N 
ATOM      9  N   UNL     1      -2.156  -2.227  23.907  0.00  0.00    -0.171 NA
ATOM     18  C   UNL     1      -3.504  -0.526  24.570  0.00  0.00    +0.044 A 
ATOM     19  C   UNL     1      -2.212  -0.067  24.650  0.00  0.00    +0.053 A 
ATOM     20  C   UNL     1      -1.425  -1.156  24.230  0.00  0.00    +0.093 A 
ATOM     21  C   UNL     1      -4.511  -2.723  23.882  0.00  0.00    +0.172 C 
BRANCH  20  22
ATOM     22  C   UNL     1       0.011  -1.194  24.131  0.00  0.00    +0.003 A 
ATOM     24  C   UNL     1       0.676  -0.302  23.291  0.00  0.00    +0.018 A 
ATOM     25  C   UNL     1       0.734  -2.121  24.877  0.00  0.00    +0.011 A 
ATOM     28  C   UNL     1       2.077  -0.326  23.184  0.00  0.00    -0.017 A 
ATOM     29  C   UNL     1       2.125  -2.159  24.783  0.00  0.00    +0.009 A 
ATOM     30  C   UNL     1       2.812  -1.268  23.942  0.00  0.00    -0.018 A 
ATOM     34  C   UNL     1       2.762   0.565  22.344  0.00  0.00    +0.008 A 
ATOM     35  C   UNL     1       4.212  -1.292  23.836  0.00  0.00    +0.008 A 
ATOM     36  C   UNL     1       4.154   0.528  22.250  0.00  0.00    +0.001 A 
ATOM     37  C   UNL     1       4.878  -0.399  22.994  0.00  0.00    +0.001 A 
ENDBRANCH  20  22
ENDBRANCH  11  18
BRANCH  12  17
ATOM     17  C   UNL     1      -3.763   3.509  26.670  0.00  0.00    +0.124 C 
BRANCH  17   8
ATOM      8  N   UNL     1      -3.403   4.871  26.241  0.00  0.00    -0.188 NA
ATOM     40  H   UNL     1      -4.122   5.594  26.357  0.00  0.00    +0.148 HD
BRANCH   8   1
ATOM      1  S   UNL     1      -2.292   5.102  24.971  0.00  0.00    +0.062 S 
ATOM      2  O   UNL     1      -1.634   6.384  25.136  0.00  0.00    -0.153 OA
ATOM      3  O   UNL     1      -2.932   4.768  23.713  0.00  0.00    -0.153 OA
BRANCH   1  23
ATOM     23  C   UNL     1      -1.103   3.835  25.297  0.00  0.00    +0.150 A 
ATOM     26  C   UNL     1      -0.571   3.068  24.261  0.00  0.00    +0.147 A 
ATOM     27  C   UNL     1      -0.698   3.607  26.613  0.00  0.00    +0.077 A 
ATOM     31  C   UNL     1       0.239   2.611  26.892  0.00  0.00    +0.122 A 
ATOM     32  C   UNL     1       0.365   2.071  24.539  0.00  0.00    +0.051 A 
ATOM     33  C   UNL     1       0.770   1.844  25.855  0.00  0.00    +0.049 A 
BRANCH  26   4
ATOM      4  O   UNL     1      -0.953   3.273  22.969  0.00  0.00    -0.493 OA
ATOM     38  C   UNL     1      -1.782   2.277  22.373  0.00  0.00    +0.277 C 
ENDBRANCH  26   4
BRANCH  31   5
ATOM      5  O   UNL     1       0.636   2.389  28.175  0.00  0.00    -0.495 OA
ATOM     39  C   UNL     1       1.968   2.766  28.516  0.00  0.00    +0.277 C 
ENDBRANCH  31   5
ENDBRANCH   1  23
ENDBRANCH   8   1
ENDBRANCH  17   8
ENDBRANCH  12  17
TORSDOF 8
ENDMDL
MODEL 2
REMARK VINA RESULT:       9.2      2.521      4.034
REMARK  Name = 40779467
REMARK  11 active torsions:
REMARK  status: ('A' for Active; 'I' for Inactive)
REMARK    1  A    between atoms: S_1  and  N_8
REMARK    2  A    between atoms: S_1  and  C_23
REMARK    3  A    between atoms: O_4  and  C_26
REMARK    4  A    between atoms: O_4  and  C_38
REMARK    5  A    between atoms: O_5  and  C_31
REMARK    6  A    between atoms: O_5  and  C_39
REMARK    7  A    between atoms: N_7  and  C_21
REMARK    8  A    between atoms: N_8  and  C_17
REMARK    9  A    between atoms: C_11  and  C_18
REMARK   10  A    between atoms: C_12  and  C_17
REMARK   11  A    between atoms: C_20  and  C_22
REMARK                            x       y       z     vdW  Elec       q    Type
REMARK                         _______ _______ _______ _____ _____    ______ ____
ROOT
ATOM      6  N   UNL     1      -5.107   4.030  24.627  0.00  0.00    -0.297 NA
ATOM     10  C   UNL     1      -2.838   3.853  25.894  0.00  0.00    +0.002 C 
ATOM     11  C   UNL     1      -2.605   3.843  24.358  0.00  0.00    +0.055 C 
ATOM     12  C   UNL     1      -5.183   2.960  25.655  0.00  0.00    +0.072 C 
ATOM     13  C   UNL     1      -3.792   2.699  26.273  0.00  0.00    +0.024 C 
ATOM     14  C   UNL     1      -3.570   5.172  26.225  0.00  0.00    +0.019 C 
ATOM     15  C   UNL     1      -4.001   3.747  23.678  0.00  0.00    +0.094 C 
ATOM     16  C   UNL     1      -4.807   5.306  25.319  0.00  0.00    +0.085 C 
ENDROOT
BRANCH  11  18
ATOM      7  N   UNL     1      -1.787   2.226  22.581  0.00  0.00    -0.270 N 
ATOM      9  N   UNL     1      -0.801   1.370  22.260  0.00  0.00    -0.171 NA
ATOM     18  C   UNL     1      -1.615   2.837  23.789  0.00  0.00    +0.044 A 
ATOM     19  C   UNL     1      -0.435   2.347  24.292  0.00  0.00    +0.053 A 
ATOM     20  C   UNL     1       0.022   1.449  23.309  0.00  0.00    +0.093 A 
ATOM     21  C   UNL     1      -2.888   2.410  21.665  0.00  0.00    +0.172 C 
BRANCH  20  22
ATOM     22  C   UNL     1       1.228   0.664  23.353  0.00  0.00    +0.003 A 
ATOM     24  C   UNL     1       2.471   1.296  23.388  0.00  0.00    +0.018 A 
ATOM     25  C   UNL     1       1.152  -0.726  23.363  0.00  0.00    +0.011 A 
ATOM     28  C   UNL     1       3.657   0.545  23.432  0.00  0.00    -0.017 A 
ATOM     29  C   UNL     1       2.320  -1.488  23.406  0.00  0.00    +0.009 A 
ATOM     30  C   UNL     1       3.580  -0.869  23.442  0.00  0.00    -0.018 A 
ATOM     34  C   UNL     1       4.916   1.164  23.468  0.00  0.00    +0.008 A 
ATOM     35  C   UNL     1       4.766  -1.620  23.486  0.00  0.00    +0.008 A 
ATOM     36  C   UNL     1       6.084   0.402  23.511  0.00  0.00    +0.001 A 
ATOM     37  C   UNL     1       6.009  -0.988  23.520  0.00  0.00    +0.001 A 
ENDBRANCH  20  22
ENDBRANCH  11  18
BRANCH  12  17
ATOM     17  C   UNL     1      -5.816   1.676  25.115  0.00  0.00    +0.124 C 
BRANCH  17   8
ATOM      8  N   UNL     1      -4.951   0.532  25.449  0.00  0.00    -0.188 NA
ATOM     40  H   UNL     1      -4.389   0.616  26.304  0.00  0.00    +0.148 HD
BRANCH   8   1
ATOM      1  S   UNL     1      -4.309  -0.446  24.211  0.00  0.00    +0.062 S 
ATOM      2  O   UNL     1      -4.039   0.373  23.044  0.00  0.00    -0.153 OA
ATOM      3  O   UNL     1      -5.115  -1.646  24.088  0.00  0.00    -0.153 OA
BRANCH   1  23
ATOM     23  C   UNL     1      -2.758  -0.934  24.905  0.00  0.00    +0.150 A 
ATOM     26  C   UNL     1      -2.161  -2.142  24.545  0.00  0.00    +0.147 A 
ATOM     27  C   UNL     1      -2.131  -0.093  25.824  0.00  0.00    +0.077 A 
ATOM     31  C   UNL     1      -0.907  -0.460  26.383  0.00  0.00    +0.122 A 
ATOM     32  C   UNL     1      -0.938  -2.510  25.104  0.00  0.00    +0.051 A 
ATOM     33  C   UNL     1      -0.311  -1.669  26.022  0.00  0.00    +0.049 A 
BRANCH  26   4
ATOM      4  O   UNL     1      -2.756  -2.979  23.648  0.00  0.00    -0.493 OA
ATOM     38  C   UNL     1      -3.610  -3.992  24.177  0.00  0.00    +0.277 C 
ENDBRANCH  26   4
BRANCH  31   5
ATOM      5  O   UNL     1      -0.294   0.360  27.280  0.00  0.00    -0.495 OA
ATOM     39  C   UNL     1      -0.168   1.735  26.921  0.00  0.00    +0.277 C 
ENDBRANCH  31   5
ENDBRANCH   1  23
ENDBRANCH   8   1
ENDBRANCH  17   8
ENDBRANCH  12  17
TORSDOF 8
ENDMDL
MODEL 3
REMARK VINA RESULT:      10.5      0.817      1.478
REMARK  Name = 40779467
REMARK  11 active torsions:
REMARK  status: ('A' for Active; 'I' for Inactive)
REMARK    1  A    between atoms: S_1  and  N_8
REMARK    2  A    between atoms: S_1  and  C_23
REMARK    3  A    between atoms: O_4  and  C_26
REMARK    4  A    between atoms: O_4  and  C_38
REMARK    5  A    between atoms: O_5  and  C_31
REMARK    6  A    between atoms: O_5  and  C_39
REMARK    7  A    between atoms: N_7  and  C_21
REMARK    8  A    between atoms: N_8  and  C_17
REMARK    9  A    between atoms: C_11  and  C_18
REMARK   10  A    between atoms: C_12  and  C_17
REMARK   11  A    between atoms: C_20  and  C_22
REMARK                            x       y       z     vdW  Elec       q    Type
REMARK                         _______ _______ _______ _____ _____    ______ ____
ROOT
ATOM      6  N   UNL     1      -5.509   1.569  26.355  0.00  0.00    -0.297 NA
ATOM     10  C   UNL     1      -4.930   1.260  23.834  0.00  0.00    +0.002 C 
ATOM     11  C   UNL     1      -4.331   0.100  24.676  0.00  0.00    +0.055 C 
ATOM     12  C   UNL     1      -4.946   2.829  25.806  0.00  0.00    +0.072 C 
ATOM     13  C   UNL     1      -4.406   2.607  24.376  0.00  0.00    +0.024 C 
ATOM     14  C   UNL     1      -6.456   1.239  24.071  0.00  0.00    +0.019 C 
ATOM     15  C   UNL     1      -4.542   0.458  26.175  0.00  0.00    +0.094 C 
ATOM     16  C   UNL     1      -6.734   1.244  25.584  0.00  0.00    +0.085 C 
ENDROOT
BRANCH  11  18
ATOM      7  N   UNL     1      -2.502  -1.640  24.412  0.00  0.00    -0.270 N 
ATOM      9  N   UNL     1      -1.201  -1.816  24.124  0.00  0.00    -0.171 NA
ATOM     18  C   UNL     1      -2.902  -0.336  24.382  0.00  0.00    +0.044 A 
ATOM     19  C   UNL     1      -1.785   0.391  24.052  0.00  0.00    +0.053 A 
ATOM     20  C   UNL     1      -0.768  -0.571  23.905  0.00  0.00    +0.093 A 
ATOM     21  C   UNL     1      -3.320  -2.792  24.715  0.00  0.00    +0.172 C 
BRANCH  20  22
ATOM     22  C   UNL     1       0.608  -0.324  23.561  0.00  0.00    +0.003 A 
ATOM     24  C   UNL     1       1.610  -1.158  24.056  0.00  0.00    +0.018 A 
ATOM     25  C   UNL     1       0.936   0.746  22.734  0.00  0.00    +0.011 A 
ATOM     28  C   UNL     1       2.958  -0.931  23.729  0.00  0.00    -0.017 A 
ATOM     29  C   UNL     1       2.269   0.986  22.399  0.00  0.00    +0.009 A 
ATOM     30  C   UNL     1       3.292   0.157  22.887  0.00  0.00    -0.018 A 
ATOM     34  C   UNL     1       3.980  -1.761  24.217  0.00  0.00    +0.008 A 
ATOM     35  C   UNL     1       4.638   0.384  22.560  0.00  0.00    +0.008 A 
ATOM     36  C   UNL     1       5.313  -1.521  23.882  0.00  0.00    +0.001 A 
ATOM     37  C   UNL     1       5.642  -0.450  23.055  0.00  0.00    +0.001 A 
ENDBRANCH  20  22
ENDBRANCH  11  18
BRANCH  12  17
ATOM     17  C   UNL     1      -3.889   3.444  26.725  0.00  0.00    +0.124 C 
BRANCH  17   8
ATOM      8  N   UNL     1      -3.618   4.826  26.294  0.00  0.00    -0.188 NA
ATOM     40  H   UNL     1      -4.388   5.497  26.391  0.00  0.00    +0.148 HD
BRANCH   8   1
ATOM      1  S   UNL     1      -2.500   5.129  25.046  0.00  0.00    +0.062 S 
ATOM      2  O   UNL     1      -1.976   6.474  25.187  0.00  0.00    -0.153 OA
ATOM      3  O   UNL     1      -3.069   4.697  23.784  0.00  0.00    -0.153 OA
BRANCH   1  23
ATOM     23  C   UNL     1      -1.202   3.995  25.441  0.00  0.00    +0.150 A 
ATOM     26  C   UNL     1      -0.308   3.561  24.463  0.00  0.00    +0.147 A 
ATOM     27  C   UNL     1      -1.079   3.536  26.752  0.00  0.00    +0.077 A 
ATOM     31  C   UNL     1      -0.062   2.640  27.085  0.00  0.00    +0.122 A 
ATOM     32  C   UNL     1       0.709   2.665  24.795  0.00  0.00    +0.051 A 
ATOM     33  C   UNL     1       0.832   2.206  26.106  0.00  0.00    +0.049 A 
BRANCH  26   4
ATOM      4  O   UNL     1      -0.410   3.997  23.176  0.00  0.00    -0.493 OA
ATOM     38  C   UNL     1       0.418   5.095  22.798  0.00  0.00    +0.277 C 
ENDBRANCH  26   4
BRANCH  31   5
ATOM      5  O   UNL     1       0.060   2.192  28.365  0.00  0.00    -0.495 OA
ATOM     39  C   UNL     1       1.311   2.410  29.013  0.00  0.00    +0.277 C 
ENDBRANCH  31   5
ENDBRANCH   1  23
ENDBRANCH   8   1
ENDBRANCH  17   8
ENDBRANCH  12  17
TORSDOF 8
ENDMDL
MODEL 4
REMARK VINA RESULT:      11.5      2.011      3.599
REMARK  Name = 40779467
REMARK  11 active torsions:
REMARK  status: ('A' for Active; 'I' for Inactive)
REMARK    1  A    between atoms: S_1  and  N_8
REMARK    2  A    between atoms: S_1  and  C_23
REMARK    3  A    between atoms: O_4  and  C_26
REMARK    4  A    between atoms: O_4  and  C_38
REMARK    5  A    between atoms: O_5  and  C_31
REMARK    6  A    between atoms: O_5  and  C_39
REMARK    7  A    between atoms: N_7  and  C_21
REMARK    8  A    between atoms: N_8  and  C_17
REMARK    9  A    between atoms: C_11  and  C_18
REMARK   10  A    between atoms: C_12  and  C_17
REMARK   11  A    between atoms: C_20  and  C_22
REMARK                            x       y       z     vdW  Elec       q    Type
REMARK                         _______ _______ _______ _____ _____    ______ ____
ROOT
ATOM      6  N   UNL     1      -4.112  -0.284  25.755  0.00  0.00    -0.297 NA
ATOM     10  C   UNL     1      -2.898  -1.920  24.133  0.00  0.00    +0.002 C 
ATOM     11  C   UNL     1      -1.865  -1.136  24.989  0.00  0.00    +0.055 C 
ATOM     12  C   UNL     1      -4.636  -0.111  24.376  0.00  0.00    +0.072 C 
ATOM     13  C   UNL     1      -3.791  -0.919  23.368  0.00  0.00    +0.024 C 
ATOM     14  C   UNL     1      -3.811  -2.677  25.121  0.00  0.00    +0.019 C 
ATOM     15  C   UNL     1      -2.647  -0.047  25.777  0.00  0.00    +0.094 C 
ATOM     16  C   UNL     1      -4.360  -1.687  26.164  0.00  0.00    +0.085 C 
ENDROOT
BRANCH  11  18
ATOM      7  N   UNL     1      -0.682   0.509  23.462  0.00  0.00    -0.270 N 
ATOM      9  N   UNL     1       0.511   0.849  22.943  0.00  0.00    -0.171 NA
ATOM     18  C   UNL     1      -0.635  -0.573  24.291  0.00  0.00    +0.044 A 
ATOM     19  C   UNL     1       0.679  -0.969  24.318  0.00  0.00    +0.053 A 
ATOM     20  C   UNL     1       1.339  -0.058  23.470  0.00  0.00    +0.093 A 
ATOM     21  C   UNL     1      -1.850   1.282  23.108  0.00  0.00    +0.172 C 
BRANCH  20  22
ATOM     22  C   UNL     1       2.744  -0.038  23.154  0.00  0.00    +0.003 A 
ATOM     24  C   UNL     1       3.669  -0.559  24.058  0.00  0.00    +0.018 A 
ATOM     25  C   UNL     1       3.176   0.501  21.945  0.00  0.00    +0.011 A 
ATOM     28  C   UNL     1       5.043  -0.548  23.763  0.00  0.00    -0.017 A 
ATOM     29  C   UNL     1       4.536   0.520  21.637  0.00  0.00    +0.009 A 
ATOM     30  C   UNL     1       5.483   0.000  22.534  0.00  0.00    -0.018 A 
ATOM     34  C   UNL     1       5.989  -1.068  24.661  0.00  0.00    +0.008 A 
ATOM     35  C   UNL     1       6.856   0.011  22.241  0.00  0.00    +0.008 A 
ATOM     36  C   UNL     1       7.349  -1.048  24.353  0.00  0.00    +0.001 A 
ATOM     37  C   UNL     1       7.783  -0.510  23.145  0.00  0.00    +0.001 A 
ENDBRANCH  20  22
ENDBRANCH  11  18
BRANCH  12  17
ATOM     17  C   UNL     1      -4.748   1.361  23.975  0.00  0.00    +0.124 C 
BRANCH  17   8
ATOM      8  N   UNL     1      -5.854   1.983  24.723  0.00  0.00    -0.188 NA
ATOM     40  H   UNL     1      -6.760   2.033  24.245  0.00  0.00    +0.148 HD
BRANCH   8   1
ATOM      1  S   UNL     1      -5.532   3.198  25.872  0.00  0.00    +0.062 S 
ATOM      2  O   UNL     1      -5.635   2.638  27.205  0.00  0.00    -0.153 OA
ATOM      3  O   UNL     1      -6.281   4.391  25.522  0.00  0.00    -0.153 OA
BRANCH   1  23
ATOM     23  C   UNL     1      -3.828   3.549  25.558  0.00  0.00    +0.150 A 
ATOM     26  C   UNL     1      -3.435   4.212  24.396  0.00  0.00    +0.147 A 
ATOM     27  C   UNL     1      -2.871   3.151  26.492  0.00  0.00    +0.077 A 
ATOM     31  C   UNL     1      -1.521   3.418  26.263  0.00  0.00    +0.122 A 
ATOM     32  C   UNL     1      -2.085   4.478  24.166  0.00  0.00    +0.051 A 
ATOM     33  C   UNL     1      -1.129   4.081  25.101  0.00  0.00    +0.049 A 
BRANCH  26   4
ATOM      4  O   UNL     1      -4.353   4.609  23.470  0.00  0.00    -0.493 OA
ATOM     38  C   UNL     1      -4.244   4.042  22.166  0.00  0.00    +0.277 C 
ENDBRANCH  26   4
BRANCH  31   5
ATOM      5  O   UNL     1      -0.586   3.032  27.174  0.00  0.00    -0.495 OA
ATOM     39  C   UNL     1       0.563   2.350  26.677  0.00  0.00    +0.277 C 
ENDBRANCH  31   5
ENDBRANCH   1  23
ENDBRANCH   8   1
ENDBRANCH  17   8
ENDBRANCH  12  17
TORSDOF 8
ENDMDL
MODEL 5
REMARK VINA RESULT:      11.5      2.557      4.718
REMARK  Name = 40779467
REMARK  11 active torsions:
REMARK  status: ('A' for Active; 'I' for Inactive)
REMARK    1  A    between atoms: S_1  and  N_8
REMARK    2  A    between atoms: S_1  and  C_23
REMARK    3  A    between atoms: O_4  and  C_26
REMARK    4  A    between atoms: O_4  and  C_38
REMARK    5  A    between atoms: O_5  and  C_31
REMARK    6  A    between atoms: O_5  and  C_39
REMARK    7  A    between atoms: N_7  and  C_21
REMARK    8  A    between atoms: N_8  and  C_17
REMARK    9  A    between atoms: C_11  and  C_18
REMARK   10  A    between atoms: C_12  and  C_17
REMARK   11  A    between atoms: C_20  and  C_22
REMARK                            x       y       z     vdW  Elec       q    Type
REMARK                         _______ _______ _______ _____ _____    ______ ____
ROOT
ATOM      6  N   UNL     1      -3.960   4.955  24.553  0.00  0.00    -0.297 NA
ATOM     10  C   UNL     1      -1.382   5.128  24.884  0.00  0.00    +0.002 C 
ATOM     11  C   UNL     1      -1.713   4.272  23.631  0.00  0.00    +0.055 C 
ATOM     12  C   UNL     1      -3.605   4.617  25.956  0.00  0.00    +0.072 C 
ATOM     13  C   UNL     1      -2.073   4.512  26.120  0.00  0.00    +0.024 C 
ATOM     14  C   UNL     1      -2.017   6.516  24.655  0.00  0.00    +0.019 C 
ATOM     15  C   UNL     1      -3.252   4.047  23.616  0.00  0.00    +0.094 C 
ATOM     16  C   UNL     1      -3.502   6.340  24.289  0.00  0.00    +0.085 C 
ENDROOT
BRANCH  11  18
ATOM      7  N   UNL     1      -1.465   1.892  22.786  0.00  0.00    -0.270 N 
ATOM      9  N   UNL     1      -0.621   0.849  22.703  0.00  0.00    -0.171 NA
ATOM     18  C   UNL     1      -0.938   2.979  23.420  0.00  0.00    +0.044 A 
ATOM     19  C   UNL     1       0.339   2.623  23.776  0.00  0.00    +0.053 A 
ATOM     20  C   UNL     1       0.480   1.302  23.309  0.00  0.00    +0.093 A 
ATOM     21  C   UNL     1      -2.791   1.771  22.227  0.00  0.00    +0.172 C 
BRANCH  20  22
ATOM     22  C   UNL     1       1.645   0.465  23.433  0.00  0.00    +0.003 A 
ATOM     24  C   UNL     1       2.919   1.023  23.332  0.00  0.00    +0.018 A 
ATOM     25  C   UNL     1       1.498  -0.902  23.653  0.00  0.00    +0.011 A 
ATOM     28  C   UNL     1       4.066   0.220  23.451  0.00  0.00    -0.017 A 
ATOM     29  C   UNL     1       2.626  -1.714  23.773  0.00  0.00    +0.009 A 
ATOM     30  C   UNL     1       3.916  -1.170  23.675  0.00  0.00    -0.018 A 
ATOM     34  C   UNL     1       5.355   0.765  23.353  0.00  0.00    +0.008 A 
ATOM     35  C   UNL     1       5.062  -1.973  23.794  0.00  0.00    +0.008 A 
ATOM     36  C   UNL     1       6.483  -0.047  23.473  0.00  0.00    +0.001 A 
ATOM     37  C   UNL     1       6.337  -1.414  23.693  0.00  0.00    +0.001 A 
ENDBRANCH  20  22
ENDBRANCH  11  18
BRANCH  12  17
ATOM     17  C   UNL     1      -4.319   3.358  26.450  0.00  0.00    +0.124 C 
BRANCH  17   8
ATOM      8  N   UNL     1      -3.822   2.193  25.697  0.00  0.00    -0.188 NA
ATOM     40  H   UNL     1      -3.010   2.351  25.091  0.00  0.00    +0.148 HD
BRANCH   8   1
ATOM      1  S   UNL     1      -4.898   0.961  25.221  0.00  0.00    +0.062 S 
ATOM      2  O   UNL     1      -5.468   1.294  23.930  0.00  0.00    -0.153 OA
ATOM      3  O   UNL     1      -5.764   0.630  26.337  0.00  0.00    -0.153 OA
BRANCH   1  23
ATOM     23  C   UNL     1      -3.801  -0.407  24.995  0.00  0.00    +0.150 A 
ATOM     26  C   UNL     1      -2.463  -0.324  25.381  0.00  0.00    +0.147 A 
ATOM     27  C   UNL     1      -4.290  -1.581  24.423  0.00  0.00    +0.077 A 
ATOM     31  C   UNL     1      -3.441  -2.672  24.236  0.00  0.00    +0.122 A 
ATOM     32  C   UNL     1      -1.613  -1.413  25.193  0.00  0.00    +0.051 A 
ATOM     33  C   UNL     1      -2.103  -2.588  24.621  0.00  0.00    +0.049 A 
BRANCH  26   4
ATOM      4  O   UNL     1      -1.964   0.814  25.942  0.00  0.00    -0.493 OA
ATOM     38  C   UNL     1      -0.596   0.791  26.344  0.00  0.00    +0.277 C 
ENDBRANCH  26   4
BRANCH  31   5
ATOM      5  O   UNL     1      -3.917  -3.819  23.678  0.00  0.00    -0.495 OA
ATOM     39  C   UNL     1      -5.124  -3.721  22.924  0.00  0.00    +0.277 C 
ENDBRANCH  31   5
ENDBRANCH   1  23
ENDBRANCH   8   1
ENDBRANCH  17   8
ENDBRANCH  12  17
TORSDOF 8
ENDMDL
MODEL 6
REMARK VINA RESULT:      11.7      1.407      2.416
REMARK  Name = 40779467
REMARK  11 active torsions:
REMARK  status: ('A' for Active; 'I' for Inactive)
REMARK    1  A    between atoms: S_1  and  N_8
REMARK    2  A    between atoms: S_1  and  C_23
REMARK    3  A    between atoms: O_4  and  C_26
REMARK    4  A    between atoms: O_4  and  C_38
REMARK    5  A    between atoms: O_5  and  C_31
REMARK    6  A    between atoms: O_5  and  C_39
REMARK    7  A    between atoms: N_7  and  C_21
REMARK    8  A    between atoms: N_8  and  C_17
REMARK    9  A    between atoms: C_11  and  C_18
REMARK   10  A    between atoms: C_12  and  C_17
REMARK   11  A    between atoms: C_20  and  C_22
REMARK                            x       y       z     vdW  Elec       q    Type
REMARK                         _______ _______ _______ _____ _____    ______ ____
ROOT
ATOM      6  N   UNL     1      -4.857   2.200  25.501  0.00  0.00    -0.297 NA
ATOM     10  C   UNL     1      -4.626   0.320  23.714  0.00  0.00    +0.002 C 
ATOM     11  C   UNL     1      -3.631   0.083  24.884  0.00  0.00    +0.055 C 
ATOM     12  C   UNL     1      -4.719   2.800  24.149  0.00  0.00    +0.072 C 
ATOM     13  C   UNL     1      -4.375   1.716  23.105  0.00  0.00    +0.024 C 
ATOM     14  C   UNL     1      -6.041   0.342  24.331  0.00  0.00    +0.019 C 
ATOM     15  C   UNL     1      -3.684   1.340  25.799  0.00  0.00    +0.094 C 
ATOM     16  C   UNL     1      -6.068   1.345  25.498  0.00  0.00    +0.085 C 
ENDROOT
BRANCH  11  18
ATOM      7  N   UNL     1      -1.812  -1.622  24.410  0.00  0.00    -0.270 N 
ATOM      9  N   UNL     1      -0.510  -1.769  24.106  0.00  0.00    -0.171 NA
ATOM     18  C   UNL     1      -2.204  -0.322  24.542  0.00  0.00    +0.044 A 
ATOM     19  C   UNL     1      -1.082   0.434  24.308  0.00  0.00    +0.053 A 
ATOM     20  C   UNL     1      -0.070  -0.509  24.045  0.00  0.00    +0.093 A 
ATOM     21  C   UNL     1      -2.637  -2.797  24.565  0.00  0.00    +0.172 C 
BRANCH  20  22
ATOM     22  C   UNL     1       1.309  -0.230  23.738  0.00  0.00    +0.003 A 
ATOM     24  C   UNL     1       2.289  -1.187  24.000  0.00  0.00    +0.018 A 
ATOM     25  C   UNL     1       1.662   0.995  23.179  0.00  0.00    +0.011 A 
ATOM     28  C   UNL     1       3.639  -0.930  23.706  0.00  0.00    -0.017 A 
ATOM     29  C   UNL     1       2.997   1.267  22.881  0.00  0.00    +0.009 A 
ATOM     30  C   UNL     1       3.998   0.316  23.137  0.00  0.00    -0.018 A 
ATOM     34  C   UNL     1       4.638  -1.882  23.962  0.00  0.00    +0.008 A 
ATOM     35  C   UNL     1       5.347   0.572  22.843  0.00  0.00    +0.008 A 
ATOM     36  C   UNL     1       5.974  -1.610  23.664  0.00  0.00    +0.001 A 
ATOM     37  C   UNL     1       6.328  -0.385  23.105  0.00  0.00    +0.001 A 
ENDBRANCH  20  22
ENDBRANCH  11  18
BRANCH  12  17
ATOM     17  C   UNL     1      -3.716   3.955  24.123  0.00  0.00    +0.124 C 
BRANCH  17   8
ATOM      8  N   UNL     1      -2.366   3.417  23.885  0.00  0.00    -0.188 NA
ATOM     40  H   UNL     1      -2.267   2.396  23.908  0.00  0.00    +0.148 HD
BRANCH   8   1
ATOM      1  S   UNL     1      -0.994   4.323  24.332  0.00  0.00    +0.062 S 
ATOM      2  O   UNL     1      -1.373   5.712  24.510  0.00  0.00    -0.153 OA
ATOM      3  O   UNL     1       0.110   3.975  23.457  0.00  0.00    -0.153 OA
BRANCH   1  23
ATOM     23  C   UNL     1      -0.622   3.652  25.925  0.00  0.00    +0.150 A 
ATOM     26  C   UNL     1      -1.619   3.497  26.887  0.00  0.00    +0.147 A 
ATOM     27  C   UNL     1       0.690   3.277  26.213  0.00  0.00    +0.077 A 
ATOM     31  C   UNL     1       1.005   2.746  27.464  0.00  0.00    +0.122 A 
ATOM     32  C   UNL     1      -1.305   2.966  28.138  0.00  0.00    +0.051 A 
ATOM     33  C   UNL     1       0.007   2.590  28.426  0.00  0.00    +0.049 A 
BRANCH  26   4
ATOM      4  O   UNL     1      -2.907   3.857  26.627  0.00  0.00    -0.493 OA
ATOM     38  C   UNL     1      -3.584   4.612  27.630  0.00  0.00    +0.277 C 
ENDBRANCH  26   4
BRANCH  31   5
ATOM      5  O   UNL     1       2.285   2.378  27.746  0.00  0.00    -0.495 OA
ATOM     39  C   UNL     1       2.804   2.759  29.018  0.00  0.00    +0.277 C 
ENDBRANCH  31   5
ENDBRANCH   1  23
ENDBRANCH   8   1
ENDBRANCH  17   8
ENDBRANCH  12  17
TORSDOF 8
ENDMDL
MODEL 7
REMARK VINA RESULT:      12.6      1.118      2.758
REMARK  Name = 40779467
REMARK  11 active torsions:
REMARK  status: ('A' for Active; 'I' for Inactive)
REMARK    1  A    between atoms: S_1  and  N_8
REMARK    2  A    between atoms: S_1  and  C_23
REMARK    3  A    between atoms: O_4  and  C_26
REMARK    4  A    between atoms: O_4  and  C_38
REMARK    5  A    between atoms: O_5  and  C_31
REMARK    6  A    between atoms: O_5  and  C_39
REMARK    7  A    between atoms: N_7  and  C_21
REMARK    8  A    between atoms: N_8  and  C_17
REMARK    9  A    between atoms: C_11  and  C_18
REMARK   10  A    between atoms: C_12  and  C_17
REMARK   11  A    between atoms: C_20  and  C_22
REMARK                            x       y       z     vdW  Elec       q    Type
REMARK                         _______ _______ _______ _____ _____    ______ ____
ROOT
ATOM      6  N   UNL     1      -5.667   2.018  26.750  0.00  0.00    -0.297 NA
ATOM     10  C   UNL     1      -5.456   1.362  24.239  0.00  0.00    +0.002 C 
ATOM     11  C   UNL     1      -4.926   0.217  25.147  0.00  0.00    +0.055 C 
ATOM     12  C   UNL     1      -5.004   3.112  25.994  0.00  0.00    +0.072 C 
ATOM     13  C   UNL     1      -4.685   2.661  24.553  0.00  0.00    +0.024 C 
ATOM     14  C   UNL     1      -6.928   1.601  24.639  0.00  0.00    +0.019 C 
ATOM     15  C   UNL     1      -4.896   0.758  26.605  0.00  0.00    +0.094 C 
ATOM     16  C   UNL     1      -7.012   1.808  26.162  0.00  0.00    +0.085 C 
ENDROOT
BRANCH  11  18
ATOM      7  N   UNL     1      -3.571  -1.696  24.177  0.00  0.00    -0.270 N 
ATOM      9  N   UNL     1      -2.324  -2.121  23.910  0.00  0.00    -0.171 NA
ATOM     18  C   UNL     1      -3.622  -0.463  24.756  0.00  0.00    +0.044 A 
ATOM     19  C   UNL     1      -2.317  -0.051  24.877  0.00  0.00    +0.053 A 
ATOM     20  C   UNL     1      -1.562  -1.111  24.340  0.00  0.00    +0.093 A 
ATOM     21  C   UNL     1      -4.691  -2.546  23.845  0.00  0.00    +0.172 C 
BRANCH  20  22
ATOM     22  C   UNL     1      -0.128  -1.178  24.231  0.00  0.00    +0.003 A 
ATOM     24  C   UNL     1       0.554  -0.265  23.427  0.00  0.00    +0.018 A 
ATOM     25  C   UNL     1       0.577  -2.154  24.930  0.00  0.00    +0.011 A 
ATOM     28  C   UNL     1       1.953  -0.317  23.311  0.00  0.00    -0.017 A 
ATOM     29  C   UNL     1       1.967  -2.220  24.825  0.00  0.00    +0.009 A 
ATOM     30  C   UNL     1       2.670  -1.309  24.021  0.00  0.00    -0.018 A 
ATOM     34  C   UNL     1       2.655   0.595  22.506  0.00  0.00    +0.008 A 
ATOM     35  C   UNL     1       4.068  -1.361  23.905  0.00  0.00    +0.008 A 
ATOM     36  C   UNL     1       4.045   0.529  22.402  0.00  0.00    +0.001 A 
ATOM     37  C   UNL     1       4.751  -0.447  23.100  0.00  0.00    +0.001 A 
ENDBRANCH  20  22
ENDBRANCH  11  18
BRANCH  12  17
ATOM     17  C   UNL     1      -3.765   3.649  26.712  0.00  0.00    +0.124 C 
BRANCH  17   8
ATOM      8  N   UNL     1      -3.244   4.812  25.973  0.00  0.00    -0.188 NA
ATOM     40  H   UNL     1      -3.930   5.372  25.456  0.00  0.00    +0.148 HD
BRANCH   8   1
ATOM      1  S   UNL     1      -1.658   4.789  25.352  0.00  0.00    +0.062 S 
ATOM      2  O   UNL     1      -0.774   4.163  26.316  0.00  0.00    -0.153 OA
ATOM      3  O   UNL     1      -1.340   6.099  24.814  0.00  0.00    -0.153 OA
BRANCH   1  23
ATOM     23  C   UNL     1      -1.825   3.693  23.975  0.00  0.00    +0.150 A 
ATOM     26  C   UNL     1      -0.837   2.754  23.683  0.00  0.00    +0.147 A 
ATOM     27  C   UNL     1      -2.965   3.778  23.176  0.00  0.00    +0.077 A 
ATOM     31  C   UNL     1      -3.117   2.922  22.084  0.00  0.00    +0.122 A 
ATOM     32  C   UNL     1      -0.987   1.899  22.592  0.00  0.00    +0.051 A 
ATOM     33  C   UNL     1      -2.128   1.983  21.793  0.00  0.00    +0.049 A 
BRANCH  26   4
ATOM      4  O   UNL     1       0.285   2.654  24.451  0.00  0.00    -0.493 OA
ATOM     38  C   UNL     1       0.152   1.993  25.707  0.00  0.00    +0.277 C 
ENDBRANCH  26   4
BRANCH  31   5
ATOM      5  O   UNL     1      -4.229   3.003  21.304  0.00  0.00    -0.495 OA
ATOM     39  C   UNL     1      -4.341   4.137  20.448  0.00  0.00    +0.277 C 
ENDBRANCH  31   5
ENDBRANCH   1  23
ENDBRANCH   8   1
ENDBRANCH  17   8
ENDBRANCH  12  17
TORSDOF 8
ENDMDL
MODEL 8
REMARK VINA RESULT:      12.9      1.579      2.903
REMARK  Name = 40779467
REMARK  11 active torsions:
REMARK  status: ('A' for Active; 'I' for Inactive)
REMARK    1  A    between atoms: S_1  and  N_8
REMARK    2  A    between atoms: S_1  and  C_23
REMARK    3  A    between atoms: O_4  and  C_26
REMARK    4  A    between atoms: O_4  and  C_38
REMARK    5  A    between atoms: O_5  and  C_31
REMARK    6  A    between atoms: O_5  and  C_39
REMARK    7  A    between atoms: N_7  and  C_21
REMARK    8  A    between atoms: N_8  and  C_17
REMARK    9  A    between atoms: C_11  and  C_18
REMARK   10  A    between atoms: C_12  and  C_17
REMARK   11  A    between atoms: C_20  and  C_22
REMARK                            x       y       z     vdW  Elec       q    Type
REMARK                         _______ _______ _______ _____ _____    ______ ____
ROOT
ATOM      6  N   UNL     1      -4.915   1.852  25.536  0.00  0.00    -0.297 NA
ATOM     10  C   UNL     1      -4.687  -0.145  23.880  0.00  0.00    +0.002 C 
ATOM     11  C   UNL     1      -3.611  -0.239  24.997  0.00  0.00    +0.055 C 
ATOM     12  C   UNL     1      -4.894   2.354  24.138  0.00  0.00    +0.072 C 
ATOM     13  C   UNL     1      -4.553   1.212  23.156  0.00  0.00    +0.024 C 
ATOM     14  C   UNL     1      -6.060  -0.148  24.584  0.00  0.00    +0.019 C 
ATOM     15  C   UNL     1      -3.680   1.080  25.820  0.00  0.00    +0.094 C 
ATOM     16  C   UNL     1      -6.074   0.938  25.674  0.00  0.00    +0.085 C 
ENDROOT
BRANCH  11  18
ATOM      7  N   UNL     1      -1.768  -1.877  24.398  0.00  0.00    -0.270 N 
ATOM      9  N   UNL     1      -0.474  -1.979  24.048  0.00  0.00    -0.171 NA
ATOM     18  C   UNL     1      -2.187  -0.594  24.594  0.00  0.00    +0.044 A 
ATOM     19  C   UNL     1      -1.091   0.199  24.355  0.00  0.00    +0.053 A 
ATOM     20  C   UNL     1      -0.066  -0.707  24.023  0.00  0.00    +0.093 A 
ATOM     21  C   UNL     1      -2.559  -3.078  24.532  0.00  0.00    +0.172 C 
BRANCH  20  22
ATOM     22  C   UNL     1       1.295  -0.381  23.684  0.00  0.00    +0.003 A 
ATOM     24  C   UNL     1       2.330  -1.243  24.048  0.00  0.00    +0.018 A 
ATOM     25  C   UNL     1       1.576   0.793  22.991  0.00  0.00    +0.011 A 
ATOM     28  C   UNL     1       3.663  -0.940  23.724  0.00  0.00    -0.017 A 
ATOM     29  C   UNL     1       2.894   1.110  22.662  0.00  0.00    +0.009 A 
ATOM     30  C   UNL     1       3.949   0.255  23.020  0.00  0.00    -0.018 A 
ATOM     34  C   UNL     1       4.716  -1.795  24.082  0.00  0.00    +0.008 A 
ATOM     35  C   UNL     1       5.281   0.557  22.696  0.00  0.00    +0.008 A 
ATOM     36  C   UNL     1       6.034  -1.478  23.753  0.00  0.00    +0.001 A 
ATOM     37  C   UNL     1       6.317  -0.304  23.061  0.00  0.00    +0.001 A 
ENDBRANCH  20  22
ENDBRANCH  11  18
BRANCH  12  17
ATOM     17  C   UNL     1      -3.962   3.554  23.963  0.00  0.00    +0.124 C 
BRANCH  17   8
ATOM      8  N   UNL     1      -4.175   4.497  25.074  0.00  0.00    -0.188 NA
ATOM     40  H   UNL     1      -4.848   5.254  24.911  0.00  0.00    +0.148 HD
BRANCH   8   1
ATOM      1  S   UNL     1      -2.914   4.825  26.171  0.00  0.00    +0.062 S 
ATOM      2  O   UNL     1      -2.955   3.859  27.253  0.00  0.00    -0.153 OA
ATOM      3  O   UNL     1      -2.896   6.246  26.462  0.00  0.00    -0.153 OA
BRANCH   1  23
ATOM     23  C   UNL     1      -1.484   4.482  25.189  0.00  0.00    +0.150 A 
ATOM     26  C   UNL     1      -0.644   3.412  25.497  0.00  0.00    +0.147 A 
ATOM     27  C   UNL     1      -1.200   5.298  24.095  0.00  0.00    +0.077 A 
ATOM     31  C   UNL     1      -0.077   5.045  23.308  0.00  0.00    +0.122 A 
ATOM     32  C   UNL     1       0.480   3.158  24.712  0.00  0.00    +0.051 A 
ATOM     33  C   UNL     1       0.763   3.974  23.616  0.00  0.00    +0.049 A 
BRANCH  26   4
ATOM      4  O   UNL     1      -0.902   2.601  26.562  0.00  0.00    -0.493 OA
ATOM     38  C   UNL     1       0.217   2.179  27.340  0.00  0.00    +0.277 C 
ENDBRANCH  26   4
BRANCH  31   5
ATOM      5  O   UNL     1       0.200   5.840  22.239  0.00  0.00    -0.495 OA
ATOM     39  C   UNL     1       1.480   5.685  21.628  0.00  0.00    +0.277 C 
ENDBRANCH  31   5
ENDBRANCH   1  23
ENDBRANCH   8   1
ENDBRANCH  17   8
ENDBRANCH  12  17
TORSDOF 8
ENDMDL
