MODEL 1
REMARK VINA RESULT:      -1.4      0.000      0.000
REMARK  Name = 38026882
REMARK  12 active torsions:
REMARK  status: ('A' for Active; 'I' for Inactive)
REMARK    1  A    between atoms: N_5  and  C_16
REMARK    2  A    between atoms: N_7  and  C_27
REMARK    3  A    between atoms: C_8  and  C_12
REMARK    4  A    between atoms: C_9  and  C_16
REMARK    5  A    between atoms: C_11  and  C_15
REMARK    6  A    between atoms: C_12  and  C_17
REMARK    7  A    between atoms: C_12  and  C_18
REMARK    8  A    between atoms: C_13  and  C_19
REMARK    9  A    between atoms: C_15  and  C_20
REMARK   10  A    between atoms: C_26  and  C_28
REMARK   11  A    between atoms: C_27  and  C_29
REMARK   12  A    between atoms: C_27  and  C_30
REMARK                            x       y       z     vdW  Elec       q    Type
REMARK                         _______ _______ _______ _____ _____    ______ ____
ROOT
ATOM      8  C   UNL     1      -2.529   2.528  24.028  0.00  0.00    +0.000 C 
ATOM      9  C   UNL     1      -1.348   3.096  24.855  0.00  0.00    +0.032 C 
ATOM     10  C   UNL     1      -3.722   3.494  24.065  0.00  0.00    +0.012 C 
ATOM     11  C   UNL     1      -4.214   3.758  25.501  0.00  0.00    +0.023 C 
ATOM     13  C   UNL     1      -3.067   4.064  26.442  0.00  0.00    -0.073 C 
ATOM     14  C   UNL     1      -1.791   3.773  26.131  0.00  0.00    -0.022 C 
ATOM     19  C   UNL     1      -3.415   4.754  27.732  0.00  0.00    +0.039 C 
ENDROOT
BRANCH   8  12
ATOM     12  C   UNL     1      -2.126   2.255  22.576  0.00  0.00    -0.013 C 
ATOM     17  C   UNL     1      -1.783   0.781  22.387  0.00  0.00    +0.007 C 
ATOM     18  C   UNL     1      -3.243   2.678  21.626  0.00  0.00    +0.007 C 
ENDBRANCH   8  12
BRANCH  11  15
ATOM     15  C   UNL     1      -5.053   2.586  26.021  0.00  0.00    +0.103 C 
BRANCH  15  20
ATOM      1  O   UNL     1      -6.377   1.749  24.243  0.00  0.00    -0.276 OA
ATOM      3  O   UNL     1      -1.123  -2.996  25.219  0.00  0.00    -0.276 OA
ATOM      4  N   UNL     1      -4.391   0.625  24.673  0.00  0.00    -0.298 N 
ATOM      6  N   UNL     1      -3.140  -1.911  24.833  0.00  0.00    -0.299 N 
ATOM     20  C   UNL     1      -5.340   1.622  24.897  0.00  0.00    +0.216 C 
ATOM     21  C   UNL     1      -4.598  -0.354  23.602  0.00  0.00    +0.126 C 
ATOM     22  C   UNL     1      -3.113   0.490  25.384  0.00  0.00    +0.126 C 
ATOM     23  C   UNL     1      -4.418  -1.777  24.122  0.00  0.00    +0.126 C 
ATOM     24  C   UNL     1      -2.934  -0.934  25.904  0.00  0.00    +0.126 C 
ATOM     26  C   UNL     1      -2.190  -2.906  24.607  0.00  0.00    +0.213 C 
ATOM     28  C   UNL     1      -2.515  -3.919  23.537  0.00  0.00    +0.109 C 
ENDBRANCH  15  20
ENDBRANCH  11  15
BRANCH   9  16
ATOM     16  C   UNL     1      -0.327   2.001  25.187  0.00  0.00    +0.113 C 
BRANCH  16   5
ATOM      2  O   UNL     1       1.174   0.037  23.697  0.00  0.00    -0.253 OA
ATOM      5  N   UNL     1       0.893   2.210  24.470  0.00  0.00    -0.299 N 
ATOM      7  N   UNL     1       2.725   1.678  23.164  0.00  0.00    -0.297 N 
ATOM     25  C   UNL     1       1.565   1.201  23.769  0.00  0.00    +0.300 C 
ATOM     31  H   UNL     1       1.264   3.154  24.411  0.00  0.00    +0.150 HD
ATOM     32  H   UNL     1       2.926   2.671  23.221  0.00  0.00    +0.150 HD
BRANCH   7  27
ATOM     27  C   UNL     1       3.600   0.839  22.380  0.00  0.00    +0.068 C 
ATOM     29  C   UNL     1       2.793  -0.208  21.623  0.00  0.00    +0.027 C 
ATOM     30  C   UNL     1       4.653   0.187  23.268  0.00  0.00    +0.027 C 
ENDBRANCH   7  27
ENDBRANCH  16   5
ENDBRANCH   9  16
TORSDOF 6
ENDMDL
MODEL 2
REMARK VINA RESULT:      -1.3      2.071      2.769
REMARK  Name = 38026882
REMARK  12 active torsions:
REMARK  status: ('A' for Active; 'I' for Inactive)
REMARK    1  A    between atoms: N_5  and  C_16
REMARK    2  A    between atoms: N_7  and  C_27
REMARK    3  A    between atoms: C_8  and  C_12
REMARK    4  A    between atoms: C_9  and  C_16
REMARK    5  A    between atoms: C_11  and  C_15
REMARK    6  A    between atoms: C_12  and  C_17
REMARK    7  A    between atoms: C_12  and  C_18
REMARK    8  A    between atoms: C_13  and  C_19
REMARK    9  A    between atoms: C_15  and  C_20
REMARK   10  A    between atoms: C_26  and  C_28
REMARK   11  A    between atoms: C_27  and  C_29
REMARK   12  A    between atoms: C_27  and  C_30
REMARK                            x       y       z     vdW  Elec       q    Type
REMARK                         _______ _______ _______ _____ _____    ______ ____
ROOT
ATOM      8  C   UNL     1      -2.965   2.969  23.700  0.00  0.00    +0.000 C 
ATOM      9  C   UNL     1      -1.749   3.696  24.330  0.00  0.00    +0.032 C 
ATOM     10  C   UNL     1      -4.268   3.704  24.048  0.00  0.00    +0.012 C 
ATOM     11  C   UNL     1      -4.493   3.804  25.569  0.00  0.00    +0.023 C 
ATOM     13  C   UNL     1      -3.244   4.261  26.294  0.00  0.00    -0.073 C 
ATOM     14  C   UNL     1      -2.028   4.219  25.719  0.00  0.00    -0.022 C 
ATOM     19  C   UNL     1      -3.429   4.813  27.680  0.00  0.00    +0.039 C 
ENDROOT
BRANCH   8  12
ATOM     12  C   UNL     1      -2.828   2.846  22.180  0.00  0.00    -0.013 C 
ATOM     17  C   UNL     1      -2.456   1.418  21.793  0.00  0.00    +0.007 C 
ATOM     18  C   UNL     1      -4.121   3.274  21.493  0.00  0.00    +0.007 C 
ENDBRANCH   8  12
BRANCH  11  15
ATOM     15  C   UNL     1      -5.003   2.476  26.139  0.00  0.00    +0.103 C 
BRANCH  15  20
ATOM      1  O   UNL     1      -6.362   1.589  24.413  0.00  0.00    -0.276 OA
ATOM      3  O   UNL     1      -0.814  -2.868  25.073  0.00  0.00    -0.276 OA
ATOM      4  N   UNL     1      -4.299   0.572  24.734  0.00  0.00    -0.298 N 
ATOM      6  N   UNL     1      -2.903  -1.893  24.798  0.00  0.00    -0.299 N 
ATOM     20  C   UNL     1      -5.289   1.511  25.016  0.00  0.00    +0.216 C 
ATOM     21  C   UNL     1      -4.502  -0.404  23.659  0.00  0.00    +0.126 C 
ATOM     22  C   UNL     1      -2.983   0.500  25.382  0.00  0.00    +0.126 C 
ATOM     23  C   UNL     1      -4.219  -1.821  24.149  0.00  0.00    +0.126 C 
ATOM     24  C   UNL     1      -2.701  -0.918  25.872  0.00  0.00    +0.126 C 
ATOM     26  C   UNL     1      -1.912  -2.830  24.514  0.00  0.00    +0.213 C 
ATOM     28  C   UNL     1      -2.231  -3.846  23.445  0.00  0.00    +0.109 C 
ENDBRANCH  15  20
ENDBRANCH  11  15
BRANCH   9  16
ATOM     16  C   UNL     1      -0.517   2.785  24.364  0.00  0.00    +0.113 C 
BRANCH  16   5
ATOM      2  O   UNL     1      -0.197   1.318  26.829  0.00  0.00    -0.253 OA
ATOM      5  N   UNL     1       0.333   3.122  25.464  0.00  0.00    -0.299 N 
ATOM      7  N   UNL     1       1.332   2.912  27.539  0.00  0.00    -0.297 N 
ATOM     25  C   UNL     1       0.433   2.356  26.632  0.00  0.00    +0.300 C 
ATOM     31  H   UNL     1       0.947   3.926  25.373  0.00  0.00    +0.150 HD
ATOM     32  H   UNL     1       1.857   3.734  27.256  0.00  0.00    +0.150 HD
BRANCH   7  27
ATOM     27  C   UNL     1       1.618   2.316  28.823  0.00  0.00    +0.068 C 
ATOM     29  C   UNL     1       0.614   2.793  29.864  0.00  0.00    +0.027 C 
ATOM     30  C   UNL     1       3.047   2.628  29.251  0.00  0.00    +0.027 C 
ENDBRANCH   7  27
ENDBRANCH  16   5
ENDBRANCH   9  16
TORSDOF 6
ENDMDL
MODEL 3
REMARK VINA RESULT:      -0.8      1.926      4.880
REMARK  Name = 38026882
REMARK  12 active torsions:
REMARK  status: ('A' for Active; 'I' for Inactive)
REMARK    1  A    between atoms: N_5  and  C_16
REMARK    2  A    between atoms: N_7  and  C_27
REMARK    3  A    between atoms: C_8  and  C_12
REMARK    4  A    between atoms: C_9  and  C_16
REMARK    5  A    between atoms: C_11  and  C_15
REMARK    6  A    between atoms: C_12  and  C_17
REMARK    7  A    between atoms: C_12  and  C_18
REMARK    8  A    between atoms: C_13  and  C_19
REMARK    9  A    between atoms: C_15  and  C_20
REMARK   10  A    between atoms: C_26  and  C_28
REMARK   11  A    between atoms: C_27  and  C_29
REMARK   12  A    between atoms: C_27  and  C_30
REMARK                            x       y       z     vdW  Elec       q    Type
REMARK                         _______ _______ _______ _____ _____    ______ ____
ROOT
ATOM      8  C   UNL     1      -1.460   1.126  25.073  0.00  0.00    +0.000 C 
ATOM      9  C   UNL     1      -0.133   0.458  24.632  0.00  0.00    +0.032 C 
ATOM     10  C   UNL     1      -2.250   0.189  25.999  0.00  0.00    +0.012 C 
ATOM     11  C   UNL     1      -2.582  -1.155  25.322  0.00  0.00    +0.023 C 
ATOM     13  C   UNL     1      -1.374  -1.750  24.630  0.00  0.00    -0.073 C 
ATOM     14  C   UNL     1      -0.283  -1.017  24.341  0.00  0.00    -0.022 C 
ATOM     19  C   UNL     1      -1.427  -3.219  24.315  0.00  0.00    +0.039 C 
ENDROOT
BRANCH   8  12
ATOM     12  C   UNL     1      -1.216   2.465  25.775  0.00  0.00    -0.013 C 
ATOM     17  C   UNL     1       0.005   2.373  26.686  0.00  0.00    +0.007 C 
ATOM     18  C   UNL     1      -1.043   3.580  24.748  0.00  0.00    +0.007 C 
ENDBRANCH   8  12
BRANCH  11  15
ATOM     15  C   UNL     1      -3.756  -1.008  24.348  0.00  0.00    +0.103 C 
BRANCH  15  20
ATOM      1  O   UNL     1      -2.796   0.343  22.654  0.00  0.00    -0.276 OA
ATOM      3  O   UNL     1      -6.967   4.666  26.526  0.00  0.00    -0.276 OA
ATOM      4  N   UNL     1      -4.449   1.329  23.953  0.00  0.00    -0.298 N 
ATOM      6  N   UNL     1      -5.269   3.699  25.271  0.00  0.00    -0.299 N 
ATOM     20  C   UNL     1      -3.618   0.277  23.570  0.00  0.00    +0.216 C 
ATOM     21  C   UNL     1      -4.375   2.612  23.249  0.00  0.00    +0.126 C 
ATOM     22  C   UNL     1      -5.488   1.261  24.989  0.00  0.00    +0.126 C 
ATOM     23  C   UNL     1      -4.229   3.768  24.236  0.00  0.00    +0.126 C 
ATOM     24  C   UNL     1      -5.342   2.416  25.975  0.00  0.00    +0.126 C 
ATOM     26  C   UNL     1      -6.100   4.750  25.652  0.00  0.00    +0.213 C 
ATOM     28  C   UNL     1      -5.908   6.059  24.928  0.00  0.00    +0.109 C 
ENDBRANCH  15  20
ENDBRANCH  11  15
BRANCH   9  16
ATOM     16  C   UNL     1       0.460   1.162  23.407  0.00  0.00    +0.113 C 
BRANCH  16   5
ATOM      2  O   UNL     1       2.543  -0.736  22.785  0.00  0.00    -0.253 OA
ATOM      5  N   UNL     1       1.870   1.348  23.561  0.00  0.00    -0.299 N 
ATOM      7  N   UNL     1       4.119   0.815  23.485  0.00  0.00    -0.297 N 
ATOM     25  C   UNL     1       2.822   0.373  23.236  0.00  0.00    +0.300 C 
ATOM     31  H   UNL     1       2.209   2.256  23.863  0.00  0.00    +0.150 HD
ATOM     32  H   UNL     1       4.252   1.775  23.790  0.00  0.00    +0.150 HD
BRANCH   7  27
ATOM     27  C   UNL     1       5.284   0.001  23.235  0.00  0.00    +0.068 C 
ATOM     29  C   UNL     1       5.104  -1.384  23.842  0.00  0.00    +0.027 C 
ATOM     30  C   UNL     1       6.538   0.681  23.774  0.00  0.00    +0.027 C 
ENDBRANCH   7  27
ENDBRANCH  16   5
ENDBRANCH   9  16
TORSDOF 6
ENDMDL
MODEL 4
REMARK VINA RESULT:      -0.6      2.161      5.133
REMARK  Name = 38026882
REMARK  12 active torsions:
REMARK  status: ('A' for Active; 'I' for Inactive)
REMARK    1  A    between atoms: N_5  and  C_16
REMARK    2  A    between atoms: N_7  and  C_27
REMARK    3  A    between atoms: C_8  and  C_12
REMARK    4  A    between atoms: C_9  and  C_16
REMARK    5  A    between atoms: C_11  and  C_15
REMARK    6  A    between atoms: C_12  and  C_17
REMARK    7  A    between atoms: C_12  and  C_18
REMARK    8  A    between atoms: C_13  and  C_19
REMARK    9  A    between atoms: C_15  and  C_20
REMARK   10  A    between atoms: C_26  and  C_28
REMARK   11  A    between atoms: C_27  and  C_29
REMARK   12  A    between atoms: C_27  and  C_30
REMARK                            x       y       z     vdW  Elec       q    Type
REMARK                         _______ _______ _______ _____ _____    ______ ____
ROOT
ATOM      8  C   UNL     1      -1.634  -0.562  25.270  0.00  0.00    +0.000 C 
ATOM      9  C   UNL     1      -1.116  -1.733  24.397  0.00  0.00    +0.032 C 
ATOM     10  C   UNL     1      -2.790  -1.031  26.166  0.00  0.00    +0.012 C 
ATOM     11  C   UNL     1      -3.971  -1.591  25.348  0.00  0.00    +0.023 C 
ATOM     13  C   UNL     1      -3.507  -2.559  24.280  0.00  0.00    -0.073 C 
ATOM     14  C   UNL     1      -2.225  -2.618  23.877  0.00  0.00    -0.022 C 
ATOM     19  C   UNL     1      -4.542  -3.491  23.715  0.00  0.00    +0.039 C 
ENDROOT
BRANCH   8  12
ATOM     12  C   UNL     1      -0.520   0.039  26.132  0.00  0.00    -0.013 C 
ATOM     17  C   UNL     1      -0.595   1.563  26.110  0.00  0.00    +0.007 C 
ATOM     18  C   UNL     1      -0.612  -0.486  27.562  0.00  0.00    +0.007 C 
ENDBRANCH   8  12
BRANCH  11  15
ATOM     15  C   UNL     1      -4.805  -0.459  24.739  0.00  0.00    +0.103 C 
BRANCH  15  20
ATOM      1  O   UNL     1      -3.594  -0.294  22.709  0.00  0.00    -0.276 OA
ATOM      3  O   UNL     1      -2.470   5.837  26.206  0.00  0.00    -0.276 OA
ATOM      4  N   UNL     1      -3.714   1.630  24.004  0.00  0.00    -0.298 N 
ATOM      6  N   UNL     1      -2.295   3.894  24.946  0.00  0.00    -0.299 N 
ATOM     20  C   UNL     1      -3.985   0.292  23.721  0.00  0.00    +0.216 C 
ATOM     21  C   UNL     1      -2.920   2.430  23.066  0.00  0.00    +0.126 C 
ATOM     22  C   UNL     1      -4.225   2.377  25.161  0.00  0.00    +0.126 C 
ATOM     23  C   UNL     1      -1.784   3.148  23.789  0.00  0.00    +0.126 C 
ATOM     24  C   UNL     1      -3.088   3.095  25.883  0.00  0.00    +0.126 C 
ATOM     26  C   UNL     1      -2.027   5.232  25.227  0.00  0.00    +0.213 C 
ATOM     28  C   UNL     1      -1.140   5.963  24.249  0.00  0.00    +0.109 C 
ENDBRANCH  15  20
ENDBRANCH  11  15
BRANCH   9  16
ATOM     16  C   UNL     1      -0.279  -1.219  23.221  0.00  0.00    +0.113 C 
BRANCH  16   5
ATOM      2  O   UNL     1       1.895  -0.281  21.570  0.00  0.00    -0.253 OA
ATOM      5  N   UNL     1       1.049  -0.897  23.645  0.00  0.00    -0.299 N 
ATOM      7  N   UNL     1       3.248  -0.208  23.454  0.00  0.00    -0.297 N 
ATOM     25  C   UNL     1       2.053  -0.446  22.779  0.00  0.00    +0.300 C 
ATOM     31  H   UNL     1       1.263  -0.935  24.637  0.00  0.00    +0.150 HD
ATOM     32  H   UNL     1       3.259  -0.305  24.464  0.00  0.00    +0.150 HD
BRANCH   7  27
ATOM     27  C   UNL     1       4.440   0.263  22.790  0.00  0.00    +0.068 C 
ATOM     29  C   UNL     1       5.656   0.077  23.689  0.00  0.00    +0.027 C 
ATOM     30  C   UNL     1       4.280   1.721  22.374  0.00  0.00    +0.027 C 
ENDBRANCH   7  27
ENDBRANCH  16   5
ENDBRANCH   9  16
TORSDOF 6
ENDMDL
MODEL 5
REMARK VINA RESULT:       0.6      1.695      5.297
REMARK  Name = 38026882
REMARK  12 active torsions:
REMARK  status: ('A' for Active; 'I' for Inactive)
REMARK    1  A    between atoms: N_5  and  C_16
REMARK    2  A    between atoms: N_7  and  C_27
REMARK    3  A    between atoms: C_8  and  C_12
REMARK    4  A    between atoms: C_9  and  C_16
REMARK    5  A    between atoms: C_11  and  C_15
REMARK    6  A    between atoms: C_12  and  C_17
REMARK    7  A    between atoms: C_12  and  C_18
REMARK    8  A    between atoms: C_13  and  C_19
REMARK    9  A    between atoms: C_15  and  C_20
REMARK   10  A    between atoms: C_26  and  C_28
REMARK   11  A    between atoms: C_27  and  C_29
REMARK   12  A    between atoms: C_27  and  C_30
REMARK                            x       y       z     vdW  Elec       q    Type
REMARK                         _______ _______ _______ _____ _____    ______ ____
ROOT
ATOM      8  C   UNL     1      -4.018   3.318  25.707  0.00  0.00    +0.000 C 
ATOM      9  C   UNL     1      -4.032   3.729  24.213  0.00  0.00    +0.032 C 
ATOM     10  C   UNL     1      -3.129   4.273  26.517  0.00  0.00    +0.012 C 
ATOM     11  C   UNL     1      -1.676   4.295  26.003  0.00  0.00    +0.023 C 
ATOM     13  C   UNL     1      -1.615   4.428  24.495  0.00  0.00    -0.073 C 
ATOM     14  C   UNL     1      -2.682   4.184  23.712  0.00  0.00    -0.022 C 
ATOM     19  C   UNL     1      -0.311   4.893  23.908  0.00  0.00    +0.039 C 
ENDROOT
BRANCH   8  12
ATOM     12  C   UNL     1      -5.429   3.292  26.303  0.00  0.00    -0.013 C 
ATOM     17  C   UNL     1      -6.299   4.367  25.658  0.00  0.00    +0.007 C 
ATOM     18  C   UNL     1      -6.054   1.911  26.127  0.00  0.00    +0.007 C 
ENDBRANCH   8  12
BRANCH  11  15
ATOM     15  C   UNL     1      -0.905   3.058  26.476  0.00  0.00    +0.103 C 
BRANCH  15  20
ATOM      1  O   UNL     1      -2.266   1.217  25.864  0.00  0.00    -0.276 OA
ATOM      3  O   UNL     1       3.606   0.791  21.812  0.00  0.00    -0.276 OA
ATOM      4  N   UNL     1      -0.383   1.593  24.558  0.00  0.00    -0.298 N 
ATOM      6  N   UNL     1       1.760   0.378  23.158  0.00  0.00    -0.299 N 
ATOM     20  C   UNL     1      -1.254   1.873  25.610  0.00  0.00    +0.216 C 
ATOM     21  C   UNL     1      -0.649   0.456  23.672  0.00  0.00    +0.126 C 
ATOM     22  C   UNL     1       0.788   2.397  24.184  0.00  0.00    +0.126 C 
ATOM     23  C   UNL     1       0.589  -0.427  23.532  0.00  0.00    +0.126 C 
ATOM     24  C   UNL     1       2.025   1.513  24.044  0.00  0.00    +0.126 C 
ATOM     26  C   UNL     1       2.629   0.098  22.105  0.00  0.00    +0.213 C 
ATOM     28  C   UNL     1       2.326  -1.133  21.288  0.00  0.00    +0.109 C 
ENDBRANCH  15  20
ENDBRANCH  11  15
BRANCH   9  16
ATOM     16  C   UNL     1      -4.546   2.585  23.330  0.00  0.00    +0.113 C 
BRANCH  16   5
ATOM      2  O   UNL     1      -5.321   0.029  24.422  0.00  0.00    -0.253 OA
ATOM      5  N   UNL     1      -3.723   1.424  23.474  0.00  0.00    -0.299 N 
ATOM      7  N   UNL     1      -3.169  -0.749  24.039  0.00  0.00    -0.297 N 
ATOM     25  C   UNL     1      -4.175   0.215  24.017  0.00  0.00    +0.300 C 
ATOM     31  H   UNL     1      -2.777   1.453  23.106  0.00  0.00    +0.150 HD
ATOM     32  H   UNL     1      -2.274  -0.522  23.615  0.00  0.00    +0.150 HD
BRANCH   7  27
ATOM     27  C   UNL     1      -3.375  -2.083  24.549  0.00  0.00    +0.068 C 
ATOM     29  C   UNL     1      -2.040  -2.794  24.728  0.00  0.00    +0.027 C 
ATOM     30  C   UNL     1      -4.300  -2.871  23.630  0.00  0.00    +0.027 C 
ENDBRANCH   7  27
ENDBRANCH  16   5
ENDBRANCH   9  16
TORSDOF 6
ENDMDL
MODEL 6
REMARK VINA RESULT:       1.2      2.155      4.518
REMARK  Name = 38026882
REMARK  12 active torsions:
REMARK  status: ('A' for Active; 'I' for Inactive)
REMARK    1  A    between atoms: N_5  and  C_16
REMARK    2  A    between atoms: N_7  and  C_27
REMARK    3  A    between atoms: C_8  and  C_12
REMARK    4  A    between atoms: C_9  and  C_16
REMARK    5  A    between atoms: C_11  and  C_15
REMARK    6  A    between atoms: C_12  and  C_17
REMARK    7  A    between atoms: C_12  and  C_18
REMARK    8  A    between atoms: C_13  and  C_19
REMARK    9  A    between atoms: C_15  and  C_20
REMARK   10  A    between atoms: C_26  and  C_28
REMARK   11  A    between atoms: C_27  and  C_29
REMARK   12  A    between atoms: C_27  and  C_30
REMARK                            x       y       z     vdW  Elec       q    Type
REMARK                         _______ _______ _______ _____ _____    ______ ____
ROOT
ATOM      8  C   UNL     1      -3.349  -0.174  24.979  0.00  0.00    +0.000 C 
ATOM      9  C   UNL     1      -2.072  -0.280  24.109  0.00  0.00    +0.032 C 
ATOM     10  C   UNL     1      -4.536   0.309  24.133  0.00  0.00    +0.012 C 
ATOM     11  C   UNL     1      -4.271   1.682  23.485  0.00  0.00    +0.023 C 
ATOM     13  C   UNL     1      -2.905   1.741  22.832  0.00  0.00    -0.073 C 
ATOM     14  C   UNL     1      -1.939   0.848  23.113  0.00  0.00    -0.022 C 
ATOM     19  C   UNL     1      -2.688   2.825  21.813  0.00  0.00    +0.039 C 
ENDROOT
BRANCH   8  12
ATOM     12  C   UNL     1      -3.695  -1.508  25.646  0.00  0.00    -0.013 C 
ATOM     17  C   UNL     1      -3.388  -2.669  24.706  0.00  0.00    +0.007 C 
ATOM     18  C   UNL     1      -2.934  -1.659  26.960  0.00  0.00    +0.007 C 
ENDBRANCH   8  12
BRANCH  11  15
ATOM     15  C   UNL     1      -4.442   2.814  24.503  0.00  0.00    +0.103 C 
BRANCH  15  20
ATOM      1  O   UNL     1      -3.182   4.552  23.498  0.00  0.00    -0.276 OA
ATOM      3  O   UNL     1       0.872   1.944  28.775  0.00  0.00    -0.276 OA
ATOM      4  N   UNL     1      -2.317   3.640  25.451  0.00  0.00    -0.298 N 
ATOM      6  N   UNL     1       0.039   2.809  26.787  0.00  0.00    -0.299 N 
ATOM     20  C   UNL     1      -3.262   3.751  24.432  0.00  0.00    +0.216 C 
ATOM     21  C   UNL     1      -1.139   4.512  25.453  0.00  0.00    +0.126 C 
ATOM     22  C   UNL     1      -2.419   2.750  26.615  0.00  0.00    +0.126 C 
ATOM     23  C   UNL     1       0.142   3.699  25.623  0.00  0.00    +0.126 C 
ATOM     24  C   UNL     1      -1.139   1.937  26.785  0.00  0.00    +0.126 C 
ATOM     26  C   UNL     1       0.982   2.700  27.807  0.00  0.00    +0.213 C 
ATOM     28  C   UNL     1       2.202   3.580  27.694  0.00  0.00    +0.109 C 
ENDBRANCH  15  20
ENDBRANCH  11  15
BRANCH   9  16
ATOM     16  C   UNL     1      -0.812  -0.343  24.980  0.00  0.00    +0.113 C 
BRANCH  16   5
ATOM      2  O   UNL     1       1.225   1.556  24.222  0.00  0.00    -0.253 OA
ATOM      5  N   UNL     1       0.347  -0.595  24.181  0.00  0.00    -0.299 N 
ATOM      7  N   UNL     1       2.319  -0.132  23.065  0.00  0.00    -0.297 N 
ATOM     25  C   UNL     1       1.293   0.384  23.854  0.00  0.00    +0.300 C 
ATOM     31  H   UNL     1       0.531  -1.548  23.883  0.00  0.00    +0.150 HD
ATOM     32  H   UNL     1       2.325  -1.129  22.873  0.00  0.00    +0.150 HD
BRANCH   7  27
ATOM     27  C   UNL     1       3.421   0.671  22.592  0.00  0.00    +0.068 C 
ATOM     29  C   UNL     1       3.695   0.380  21.122  0.00  0.00    +0.027 C 
ATOM     30  C   UNL     1       4.662   0.430  23.443  0.00  0.00    +0.027 C 
ENDBRANCH   7  27
ENDBRANCH  16   5
ENDBRANCH   9  16
TORSDOF 6
ENDMDL
MODEL 7
REMARK VINA RESULT:       1.9      1.715      6.068
REMARK  Name = 38026882
REMARK  12 active torsions:
REMARK  status: ('A' for Active; 'I' for Inactive)
REMARK    1  A    between atoms: N_5  and  C_16
REMARK    2  A    between atoms: N_7  and  C_27
REMARK    3  A    between atoms: C_8  and  C_12
REMARK    4  A    between atoms: C_9  and  C_16
REMARK    5  A    between atoms: C_11  and  C_15
REMARK    6  A    between atoms: C_12  and  C_17
REMARK    7  A    between atoms: C_12  and  C_18
REMARK    8  A    between atoms: C_13  and  C_19
REMARK    9  A    between atoms: C_15  and  C_20
REMARK   10  A    between atoms: C_26  and  C_28
REMARK   11  A    between atoms: C_27  and  C_29
REMARK   12  A    between atoms: C_27  and  C_30
REMARK                            x       y       z     vdW  Elec       q    Type
REMARK                         _______ _______ _______ _____ _____    ______ ____
ROOT
ATOM      8  C   UNL     1      -3.903   3.001  25.259  0.00  0.00    +0.000 C 
ATOM      9  C   UNL     1      -5.009   2.573  24.261  0.00  0.00    +0.032 C 
ATOM     10  C   UNL     1      -2.836   3.845  24.547  0.00  0.00    +0.012 C 
ATOM     11  C   UNL     1      -2.174   3.084  23.382  0.00  0.00    +0.023 C 
ATOM     13  C   UNL     1      -3.199   2.403  22.499  0.00  0.00    -0.073 C 
ATOM     14  C   UNL     1      -4.465   2.196  22.903  0.00  0.00    -0.022 C 
ATOM     19  C   UNL     1      -2.749   2.007  21.120  0.00  0.00    +0.039 C 
ENDROOT
BRANCH   8  12
ATOM     12  C   UNL     1      -4.479   3.785  26.442  0.00  0.00    -0.013 C 
ATOM     17  C   UNL     1      -3.399   4.647  27.086  0.00  0.00    +0.007 C 
ATOM     18  C   UNL     1      -5.658   4.642  25.990  0.00  0.00    +0.007 C 
ENDBRANCH   8  12
BRANCH  11  15
ATOM     15  C   UNL     1      -1.140   2.077  23.898  0.00  0.00    +0.103 C 
BRANCH  15  20
ATOM      1  O   UNL     1       0.394   3.821  23.424  0.00  0.00    -0.276 OA
ATOM      3  O   UNL     1       4.243  -2.194  23.722  0.00  0.00    -0.276 OA
ATOM      4  N   UNL     1       1.306   1.736  23.887  0.00  0.00    -0.298 N 
ATOM      6  N   UNL     1       3.326  -0.126  23.196  0.00  0.00    -0.299 N 
ATOM     20  C   UNL     1       0.251   2.631  23.715  0.00  0.00    +0.216 C 
ATOM     21  C   UNL     1       2.688   2.194  23.723  0.00  0.00    +0.126 C 
ATOM     22  C   UNL     1       1.174   0.333  24.304  0.00  0.00    +0.126 C 
ATOM     23  C   UNL     1       3.459   1.276  22.778  0.00  0.00    +0.126 C 
ATOM     24  C   UNL     1       1.945  -0.584  23.359  0.00  0.00    +0.126 C 
ATOM     26  C   UNL     1       4.381  -1.020  23.370  0.00  0.00    +0.213 C 
ATOM     28  C   UNL     1       5.768  -0.487  23.109  0.00  0.00    +0.109 C 
ENDBRANCH  15  20
ENDBRANCH  11  15
BRANCH   9  16
ATOM     16  C   UNL     1      -5.838   1.410  24.820  0.00  0.00    +0.113 C 
BRANCH  16   5
ATOM      2  O   UNL     1      -4.333  -0.753  23.643  0.00  0.00    -0.253 OA
ATOM      5  N   UNL     1      -5.002   0.471  25.502  0.00  0.00    -0.299 N 
ATOM      7  N   UNL     1      -3.566  -1.323  25.757  0.00  0.00    -0.297 N 
ATOM     25  C   UNL     1      -4.302  -0.556  24.857  0.00  0.00    +0.300 C 
ATOM     31  H   UNL     1      -4.855   0.589  26.500  0.00  0.00    +0.150 HD
ATOM     32  H   UNL     1      -3.548  -1.038  26.732  0.00  0.00    +0.150 HD
BRANCH   7  27
ATOM     27  C   UNL     1      -2.755  -2.445  25.349  0.00  0.00    +0.068 C 
ATOM     29  C   UNL     1      -1.438  -1.961  24.759  0.00  0.00    +0.027 C 
ATOM     30  C   UNL     1      -3.514  -3.322  24.359  0.00  0.00    +0.027 C 
ENDBRANCH   7  27
ENDBRANCH  16   5
ENDBRANCH   9  16
TORSDOF 6
ENDMDL
MODEL 8
REMARK VINA RESULT:       1.9      2.000      4.750
REMARK  Name = 38026882
REMARK  12 active torsions:
REMARK  status: ('A' for Active; 'I' for Inactive)
REMARK    1  A    between atoms: N_5  and  C_16
REMARK    2  A    between atoms: N_7  and  C_27
REMARK    3  A    between atoms: C_8  and  C_12
REMARK    4  A    between atoms: C_9  and  C_16
REMARK    5  A    between atoms: C_11  and  C_15
REMARK    6  A    between atoms: C_12  and  C_17
REMARK    7  A    between atoms: C_12  and  C_18
REMARK    8  A    between atoms: C_13  and  C_19
REMARK    9  A    between atoms: C_15  and  C_20
REMARK   10  A    between atoms: C_26  and  C_28
REMARK   11  A    between atoms: C_27  and  C_29
REMARK   12  A    between atoms: C_27  and  C_30
REMARK                            x       y       z     vdW  Elec       q    Type
REMARK                         _______ _______ _______ _____ _____    ______ ____
ROOT
ATOM      8  C   UNL     1      -2.339  -1.285  24.822  0.00  0.00    +0.000 C 
ATOM      9  C   UNL     1      -1.636  -0.379  23.780  0.00  0.00    +0.032 C 
ATOM     10  C   UNL     1      -3.789  -1.564  24.399  0.00  0.00    +0.012 C 
ATOM     11  C   UNL     1      -4.610  -0.269  24.244  0.00  0.00    +0.023 C 
ATOM     13  C   UNL     1      -3.863   0.779  23.447  0.00  0.00    -0.073 C 
ATOM     14  C   UNL     1      -2.536   0.707  23.239  0.00  0.00    -0.022 C 
ATOM     19  C   UNL     1      -4.683   1.892  22.855  0.00  0.00    +0.039 C 
ENDROOT
BRANCH   8  12
ATOM     12  C   UNL     1      -1.593  -2.607  25.021  0.00  0.00    -0.013 C 
ATOM     17  C   UNL     1      -1.385  -3.308  23.682  0.00  0.00    +0.007 C 
ATOM     18  C   UNL     1      -0.257  -2.364  25.718  0.00  0.00    +0.007 C 
ENDBRANCH   8  12
BRANCH  11  15
ATOM     15  C   UNL     1      -5.037   0.280  25.609  0.00  0.00    +0.103 C 
BRANCH  15  20
ATOM      1  O   UNL     1      -6.622   2.005  25.252  0.00  0.00    -0.276 OA
ATOM      3  O   UNL     1      -0.211   5.163  25.288  0.00  0.00    -0.276 OA
ATOM      4  N   UNL     1      -4.428   2.672  25.617  0.00  0.00    -0.298 N 
ATOM      6  N   UNL     1      -2.392   4.490  24.858  0.00  0.00    -0.299 N 
ATOM     20  C   UNL     1      -5.442   1.726  25.477  0.00  0.00    +0.216 C 
ATOM     21  C   UNL     1      -4.738   4.100  25.498  0.00  0.00    +0.126 C 
ATOM     22  C   UNL     1      -3.030   2.379  25.957  0.00  0.00    +0.126 C 
ATOM     23  C   UNL     1      -3.790   4.785  24.518  0.00  0.00    +0.126 C 
ATOM     24  C   UNL     1      -2.082   3.064  24.976  0.00  0.00    +0.126 C 
ATOM     26  C   UNL     1      -1.378   5.436  25.000  0.00  0.00    +0.213 C 
ATOM     28  C   UNL     1      -1.767   6.879  24.789  0.00  0.00    +0.109 C 
ENDBRANCH  15  20
ENDBRANCH  11  15
BRANCH   9  16
ATOM     16  C   UNL     1      -0.367   0.253  24.363  0.00  0.00    +0.113 C 
BRANCH  16   5
ATOM      2  O   UNL     1       2.128   1.567  23.748  0.00  0.00    -0.253 OA
ATOM      5  N   UNL     1       0.803  -0.342  23.794  0.00  0.00    -0.299 N 
ATOM      7  N   UNL     1       2.962  -0.455  22.972  0.00  0.00    -0.297 N 
ATOM     25  C   UNL     1       1.981   0.366  23.523  0.00  0.00    +0.300 C 
ATOM     31  H   UNL     1       0.808  -1.345  23.634  0.00  0.00    +0.150 HD
ATOM     32  H   UNL     1       2.770  -1.449  22.891  0.00  0.00    +0.150 HD
BRANCH   7  27
ATOM     27  C   UNL     1       4.270   0.030  22.602  0.00  0.00    +0.068 C 
ATOM     29  C   UNL     1       5.274  -0.254  23.711  0.00  0.00    +0.027 C 
ATOM     30  C   UNL     1       4.217   1.517  22.274  0.00  0.00    +0.027 C 
ENDBRANCH   7  27
ENDBRANCH  16   5
ENDBRANCH   9  16
TORSDOF 6
ENDMDL
