MODEL 1
REMARK VINA RESULT:      -4.3      0.000      0.000
REMARK  Name = 75536766
REMARK  8 active torsions:
REMARK  status: ('A' for Active; 'I' for Inactive)
REMARK    1  A    between atoms: O_2  and  C_8
REMARK    2  A    between atoms: N_4  and  C_7
REMARK    3  A    between atoms: N_4  and  C_12
REMARK    4  A    between atoms: N_5  and  C_11
REMARK    5  A    between atoms: N_6  and  C_16
REMARK    6  A    between atoms: C_9  and  C_11
REMARK    7  A    between atoms: C_12  and  C_13
REMARK    8  A    between atoms: C_12  and  C_14
REMARK                            x       y       z     vdW  Elec       q    Type
REMARK                         _______ _______ _______ _____ _____    ______ ____
ROOT
ATOM     11  C   UNL     1      -2.341  -0.701  24.040  0.00  0.00    +0.140 C 
ENDROOT
BRANCH  11   5
ATOM      3  O   UNL     1       0.337  -1.065  24.988  0.00  0.00    -0.253 OA
ATOM      5  N   UNL     1      -1.132  -0.353  23.350  0.00  0.00    -0.297 N 
ATOM      6  N   UNL     1       1.133  -0.128  22.989  0.00  0.00    -0.269 N 
ATOM     15  C   UNL     1       0.150  -0.563  23.882  0.00  0.00    +0.304 C 
ATOM     24  H   UNL     1      -1.210   0.080  22.435  0.00  0.00    +0.150 HD
ATOM     25  H   UNL     1       0.807   0.267  22.109  0.00  0.00    +0.156 HD
BRANCH   6  16
ATOM     16  C   UNL     1       2.537  -0.167  23.155  0.00  0.00    +0.035 A 
ATOM     17  C   UNL     1       3.150  -1.326  23.631  0.00  0.00    +0.023 A 
ATOM     18  C   UNL     1       3.307   0.952  22.843  0.00  0.00    +0.023 A 
ATOM     19  C   UNL     1       4.535  -1.365  23.795  0.00  0.00    +0.002 A 
ATOM     20  C   UNL     1       4.691   0.914  23.007  0.00  0.00    +0.002 A 
ATOM     21  C   UNL     1       5.305  -0.244  23.483  0.00  0.00    +0.000 A 
ENDBRANCH   6  16
ENDBRANCH  11   5
BRANCH  11   9
ATOM      1  O   UNL     1      -4.337   0.349  24.913  0.00  0.00    -0.371 OA
ATOM      7  C   UNL     1      -4.117   2.557  24.065  0.00  0.00    +0.111 C 
ATOM      8  C   UNL     1      -2.899   1.748  23.660  0.00  0.00    +0.164 C 
ATOM      9  C   UNL     1      -3.431   0.328  23.797  0.00  0.00    +0.165 C 
ATOM     10  C   UNL     1      -4.670   1.717  25.206  0.00  0.00    +0.181 C 
BRANCH   8   2
ATOM      2  O   UNL     1      -2.472   2.026  22.340  0.00  0.00    -0.388 OA
ATOM     23  H   UNL     1      -2.168   2.950  22.306  0.00  0.00    +0.210 HD
ENDBRANCH   8   2
BRANCH   7   4
ATOM      4  N   UNL     1      -3.805   3.919  24.465  0.00  0.00    -0.307 NA
ATOM     22  H   UNL     1      -4.632   4.367  24.860  0.00  0.00    +0.123 HD
BRANCH   4  12
ATOM     12  C   UNL     1      -2.716   3.945  25.434  0.00  0.00    +0.048 C 
ATOM     13  C   UNL     1      -1.640   4.917  24.961  0.00  0.00    +0.023 C 
ATOM     14  C   UNL     1      -3.242   4.338  26.812  0.00  0.00    +0.023 C 
ENDBRANCH   4  12
ENDBRANCH   7   4
ENDBRANCH  11   9
TORSDOF 6
ENDMDL
MODEL 2
REMARK VINA RESULT:      -4.3      1.880      3.583
REMARK  Name = 75536766
REMARK  8 active torsions:
REMARK  status: ('A' for Active; 'I' for Inactive)
REMARK    1  A    between atoms: O_2  and  C_8
REMARK    2  A    between atoms: N_4  and  C_7
REMARK    3  A    between atoms: N_4  and  C_12
REMARK    4  A    between atoms: N_5  and  C_11
REMARK    5  A    between atoms: N_6  and  C_16
REMARK    6  A    between atoms: C_9  and  C_11
REMARK    7  A    between atoms: C_12  and  C_13
REMARK    8  A    between atoms: C_12  and  C_14
REMARK                            x       y       z     vdW  Elec       q    Type
REMARK                         _______ _______ _______ _____ _____    ______ ____
ROOT
ATOM     11  C   UNL     1      -1.742   2.493  23.823  0.00  0.00    +0.140 C 
ENDROOT
BRANCH  11   5
ATOM      3  O   UNL     1       0.978   2.201  24.675  0.00  0.00    -0.253 OA
ATOM      5  N   UNL     1      -0.759   1.607  23.267  0.00  0.00    -0.297 N 
ATOM      6  N   UNL     1       1.286   0.577  23.010  0.00  0.00    -0.269 N 
ATOM     15  C   UNL     1       0.561   1.521  23.741  0.00  0.00    +0.304 C 
ATOM     24  H   UNL     1      -1.029   1.023  22.482  0.00  0.00    +0.150 HD
ATOM     25  H   UNL     1       0.788   0.097  22.264  0.00  0.00    +0.156 HD
BRANCH   6  16
ATOM     16  C   UNL     1       2.640   0.201  23.178  0.00  0.00    +0.035 A 
ATOM     17  C   UNL     1       2.955  -1.080  23.633  0.00  0.00    +0.023 A 
ATOM     18  C   UNL     1       3.656   1.109  22.889  0.00  0.00    +0.023 A 
ATOM     19  C   UNL     1       4.290  -1.450  23.800  0.00  0.00    +0.002 A 
ATOM     20  C   UNL     1       4.990   0.739  23.055  0.00  0.00    +0.002 A 
ATOM     21  C   UNL     1       5.307  -0.541  23.511  0.00  0.00    +0.000 A 
ENDBRANCH   6  16
ENDBRANCH  11   5
BRANCH  11   9
ATOM      1  O   UNL     1      -3.934   1.825  24.595  0.00  0.00    -0.371 OA
ATOM      7  C   UNL     1      -3.435  -0.194  25.742  0.00  0.00    +0.111 C 
ATOM      8  C   UNL     1      -2.160   0.352  25.125  0.00  0.00    +0.164 C 
ATOM      9  C   UNL     1      -2.534   1.815  24.925  0.00  0.00    +0.165 C 
ATOM     10  C   UNL     1      -4.496   0.549  24.947  0.00  0.00    +0.181 C 
BRANCH   8   2
ATOM      2  O   UNL     1      -1.037   0.206  25.972  0.00  0.00    -0.388 OA
ATOM     23  H   UNL     1      -0.234   0.315  25.434  0.00  0.00    +0.210 HD
ENDBRANCH   8   2
BRANCH   7   4
ATOM      4  N   UNL     1      -3.559  -1.639  25.639  0.00  0.00    -0.307 NA
ATOM     22  H   UNL     1      -4.514  -1.925  25.850  0.00  0.00    +0.123 HD
BRANCH   4  12
ATOM     12  C   UNL     1      -3.182  -2.104  24.309  0.00  0.00    +0.048 C 
ATOM     13  C   UNL     1      -1.889  -2.909  24.401  0.00  0.00    +0.023 C 
ATOM     14  C   UNL     1      -4.306  -2.940  23.703  0.00  0.00    +0.023 C 
ENDBRANCH   4  12
ENDBRANCH   7   4
ENDBRANCH  11   9
TORSDOF 6
ENDMDL
MODEL 3
REMARK VINA RESULT:      -4.1      3.515      5.159
REMARK  Name = 75536766
REMARK  8 active torsions:
REMARK  status: ('A' for Active; 'I' for Inactive)
REMARK    1  A    between atoms: O_2  and  C_8
REMARK    2  A    between atoms: N_4  and  C_7
REMARK    3  A    between atoms: N_4  and  C_12
REMARK    4  A    between atoms: N_5  and  C_11
REMARK    5  A    between atoms: N_6  and  C_16
REMARK    6  A    between atoms: C_9  and  C_11
REMARK    7  A    between atoms: C_12  and  C_13
REMARK    8  A    between atoms: C_12  and  C_14
REMARK                            x       y       z     vdW  Elec       q    Type
REMARK                         _______ _______ _______ _____ _____    ______ ____
ROOT
ATOM     11  C   UNL     1      -5.891   3.093  25.327  0.00  0.00    +0.140 C 
ENDROOT
BRANCH  11   5
ATOM      3  O   UNL     1      -4.047   1.458  23.867  0.00  0.00    -0.253 OA
ATOM      5  N   UNL     1      -5.425   1.787  25.696  0.00  0.00    -0.297 N 
ATOM      6  N   UNL     1      -4.246  -0.186  25.530  0.00  0.00    -0.269 N 
ATOM     15  C   UNL     1      -4.516   1.044  24.925  0.00  0.00    +0.304 C 
ATOM     24  H   UNL     1      -5.781   1.375  26.552  0.00  0.00    +0.150 HD
ATOM     25  H   UNL     1      -4.720  -0.375  26.410  0.00  0.00    +0.156 HD
BRANCH   6  16
ATOM     16  C   UNL     1      -3.387  -1.211  25.069  0.00  0.00    +0.035 A 
ATOM     17  C   UNL     1      -2.015  -1.132  25.310  0.00  0.00    +0.023 A 
ATOM     18  C   UNL     1      -3.912  -2.300  24.374  0.00  0.00    +0.023 A 
ATOM     19  C   UNL     1      -1.168  -2.143  24.855  0.00  0.00    +0.002 A 
ATOM     20  C   UNL     1      -3.066  -3.310  23.919  0.00  0.00    +0.002 A 
ATOM     21  C   UNL     1      -1.694  -3.232  24.159  0.00  0.00    +0.000 A 
ENDBRANCH   6  16
ENDBRANCH  11   5
BRANCH  11   9
ATOM      1  O   UNL     1      -4.260   4.133  26.778  0.00  0.00    -0.371 OA
ATOM      7  C   UNL     1      -2.485   4.563  25.259  0.00  0.00    +0.111 C 
ATOM      8  C   UNL     1      -3.601   3.842  24.524  0.00  0.00    +0.164 C 
ATOM      9  C   UNL     1      -4.785   4.126  25.439  0.00  0.00    +0.165 C 
ATOM     10  C   UNL     1      -2.829   4.252  26.707  0.00  0.00    +0.181 C 
BRANCH   8   2
ATOM      2  O   UNL     1      -3.811   4.345  23.219  0.00  0.00    -0.388 OA
ATOM     23  H   UNL     1      -2.956   4.650  22.869  0.00  0.00    +0.210 HD
ENDBRANCH   8   2
BRANCH   7   4
ATOM      4  N   UNL     1      -1.155   4.112  24.883  0.00  0.00    -0.307 NA
ATOM     22  H   UNL     1      -0.448   4.665  25.366  0.00  0.00    +0.123 HD
BRANCH   4  12
ATOM     12  C   UNL     1      -0.974   2.697  25.189  0.00  0.00    +0.048 C 
ATOM     13  C   UNL     1      -0.611   1.946  23.912  0.00  0.00    +0.023 C 
ATOM     14  C   UNL     1       0.103   2.520  26.255  0.00  0.00    +0.023 C 
ENDBRANCH   4  12
ENDBRANCH   7   4
ENDBRANCH  11   9
TORSDOF 6
ENDMDL
MODEL 4
REMARK VINA RESULT:      -4.0     15.387     17.896
REMARK  Name = 75536766
REMARK  8 active torsions:
REMARK  status: ('A' for Active; 'I' for Inactive)
REMARK    1  A    between atoms: O_2  and  C_8
REMARK    2  A    between atoms: N_4  and  C_7
REMARK    3  A    between atoms: N_4  and  C_12
REMARK    4  A    between atoms: N_5  and  C_11
REMARK    5  A    between atoms: N_6  and  C_16
REMARK    6  A    between atoms: C_9  and  C_11
REMARK    7  A    between atoms: C_12  and  C_13
REMARK    8  A    between atoms: C_12  and  C_14
REMARK                            x       y       z     vdW  Elec       q    Type
REMARK                         _______ _______ _______ _____ _____    ______ ____
ROOT
ATOM     11  C   UNL     1      -7.598 -10.030  11.216  0.00  0.00    +0.140 C 
ENDROOT
BRANCH  11   5
ATOM      3  O   UNL     1      -9.423 -10.715  13.315  0.00  0.00    -0.253 OA
ATOM      5  N   UNL     1      -7.679  -9.424  12.514  0.00  0.00    -0.297 N 
ATOM      6  N   UNL     1      -8.449  -9.052  14.654  0.00  0.00    -0.269 N 
ATOM     15  C   UNL     1      -8.605  -9.817  13.495  0.00  0.00    +0.304 C 
ATOM     24  H   UNL     1      -7.041  -8.664  12.729  0.00  0.00    +0.150 HD
ATOM     25  H   UNL     1      -7.719  -8.343  14.639  0.00  0.00    +0.156 HD
BRANCH   6  16
ATOM     16  C   UNL     1      -9.186  -9.140  15.858  0.00  0.00    +0.035 A 
ATOM     17  C   UNL     1      -9.105 -10.291  16.642  0.00  0.00    +0.023 A 
ATOM     18  C   UNL     1      -9.993  -8.077  16.261  0.00  0.00    +0.023 A 
ATOM     19  C   UNL     1      -9.833 -10.379  17.829  0.00  0.00    +0.002 A 
ATOM     20  C   UNL     1     -10.719  -8.164  17.448  0.00  0.00    +0.002 A 
ATOM     21  C   UNL     1     -10.639  -9.315  18.232  0.00  0.00    +0.000 A 
ENDBRANCH   6  16
ENDBRANCH  11   5
BRANCH  11   9
ATOM      1  O   UNL     1      -5.964 -10.658   9.547  0.00  0.00    -0.371 OA
ATOM      7  C   UNL     1      -3.930 -10.163  10.668  0.00  0.00    +0.111 C 
ATOM      8  C   UNL     1      -5.094  -9.769  11.559  0.00  0.00    +0.164 C 
ATOM      9  C   UNL     1      -6.217 -10.607  10.962  0.00  0.00    +0.165 C 
ATOM     10  C   UNL     1      -4.607 -10.249   9.310  0.00  0.00    +0.181 C 
BRANCH   8   2
ATOM      2  O   UNL     1      -4.871 -10.081  12.920  0.00  0.00    -0.388 OA
ATOM     23  H   UNL     1      -4.861 -11.049  13.014  0.00  0.00    +0.210 HD
ENDBRANCH   8   2
BRANCH   7   4
ATOM      4  N   UNL     1      -2.830  -9.213  10.694  0.00  0.00    -0.307 NA
ATOM     22  H   UNL     1      -3.061  -8.424  11.298  0.00  0.00    +0.123 HD
BRANCH   4  12
ATOM     12  C   UNL     1      -1.600  -9.847  11.153  0.00  0.00    +0.048 C 
ATOM     13  C   UNL     1      -0.470  -8.822  11.151  0.00  0.00    +0.023 C 
ATOM     14  C   UNL     1      -1.798 -10.442  12.543  0.00  0.00    +0.023 C 
ENDBRANCH   4  12
ENDBRANCH   7   4
ENDBRANCH  11   9
TORSDOF 6
ENDMDL
MODEL 5
REMARK VINA RESULT:      -3.9      3.494      5.134
REMARK  Name = 75536766
REMARK  8 active torsions:
REMARK  status: ('A' for Active; 'I' for Inactive)
REMARK    1  A    between atoms: O_2  and  C_8
REMARK    2  A    between atoms: N_4  and  C_7
REMARK    3  A    between atoms: N_4  and  C_12
REMARK    4  A    between atoms: N_5  and  C_11
REMARK    5  A    between atoms: N_6  and  C_16
REMARK    6  A    between atoms: C_9  and  C_11
REMARK    7  A    between atoms: C_12  and  C_13
REMARK    8  A    between atoms: C_12  and  C_14
REMARK                            x       y       z     vdW  Elec       q    Type
REMARK                         _______ _______ _______ _____ _____    ______ ____
ROOT
ATOM     11  C   UNL     1      -0.833   3.917  25.416  0.00  0.00    +0.140 C 
ENDROOT
BRANCH  11   5
ATOM      3  O   UNL     1      -1.829   1.727  23.861  0.00  0.00    -0.253 OA
ATOM      5  N   UNL     1      -1.002   2.561  25.854  0.00  0.00    -0.297 N 
ATOM      6  N   UNL     1      -1.551   0.326  25.724  0.00  0.00    -0.269 N 
ATOM     15  C   UNL     1      -1.498   1.538  25.029  0.00  0.00    +0.304 C 
ATOM     24  H   UNL     1      -0.761   2.333  26.813  0.00  0.00    +0.150 HD
ATOM     25  H   UNL     1      -1.238   0.342  26.692  0.00  0.00    +0.156 HD
BRANCH   6  16
ATOM     16  C   UNL     1      -1.990  -0.931  25.246  0.00  0.00    +0.035 A 
ATOM     17  C   UNL     1      -1.119  -1.743  24.521  0.00  0.00    +0.023 A 
ATOM     18  C   UNL     1      -3.293  -1.357  25.500  0.00  0.00    +0.023 A 
ATOM     19  C   UNL     1      -1.552  -2.983  24.049  0.00  0.00    +0.002 A 
ATOM     20  C   UNL     1      -3.726  -2.596  25.029  0.00  0.00    +0.002 A 
ATOM     21  C   UNL     1      -2.855  -3.409  24.303  0.00  0.00    +0.000 A 
ENDBRANCH   6  16
ENDBRANCH  11   5
BRANCH  11   9
ATOM      1  O   UNL     1      -2.579   4.726  23.952  0.00  0.00    -0.371 OA
ATOM      7  C   UNL     1      -4.505   4.438  25.311  0.00  0.00    +0.111 C 
ATOM      8  C   UNL     1      -3.291   3.917  26.058  0.00  0.00    +0.164 C 
ATOM      9  C   UNL     1      -2.165   4.637  25.326  0.00  0.00    +0.165 C 
ATOM     10  C   UNL     1      -3.990   4.463  23.881  0.00  0.00    +0.181 C 
BRANCH   8   2
ATOM      2  O   UNL     1      -3.315   4.240  27.435  0.00  0.00    -0.388 OA
ATOM     23  H   UNL     1      -2.654   4.935  27.597  0.00  0.00    +0.210 HD
ENDBRANCH   8   2
BRANCH   7   4
ATOM      4  N   UNL     1      -5.688   3.608  25.473  0.00  0.00    -0.307 NA
ATOM     22  H   UNL     1      -6.254   3.635  24.626  0.00  0.00    +0.123 HD
BRANCH   4  12
ATOM     12  C   UNL     1      -5.324   2.231  25.785  0.00  0.00    +0.048 C 
ATOM     13  C   UNL     1      -6.338   1.648  26.765  0.00  0.00    +0.023 C 
ATOM     14  C   UNL     1      -5.256   1.399  24.508  0.00  0.00    +0.023 C 
ENDBRANCH   4  12
ENDBRANCH   7   4
ENDBRANCH  11   9
TORSDOF 6
ENDMDL
MODEL 6
REMARK VINA RESULT:      -3.7      3.331      5.375
REMARK  Name = 75536766
REMARK  8 active torsions:
REMARK  status: ('A' for Active; 'I' for Inactive)
REMARK    1  A    between atoms: O_2  and  C_8
REMARK    2  A    between atoms: N_4  and  C_7
REMARK    3  A    between atoms: N_4  and  C_12
REMARK    4  A    between atoms: N_5  and  C_11
REMARK    5  A    between atoms: N_6  and  C_16
REMARK    6  A    between atoms: C_9  and  C_11
REMARK    7  A    between atoms: C_12  and  C_13
REMARK    8  A    between atoms: C_12  and  C_14
REMARK                            x       y       z     vdW  Elec       q    Type
REMARK                         _______ _______ _______ _____ _____    ______ ____
ROOT
ATOM     11  C   UNL     1       0.449   2.658  25.970  0.00  0.00    +0.140 C 
ENDROOT
BRANCH  11   5
ATOM      3  O   UNL     1      -1.025   1.161  24.023  0.00  0.00    -0.253 OA
ATOM      5  N   UNL     1      -0.326   1.474  26.205  0.00  0.00    -0.297 N 
ATOM      6  N   UNL     1      -1.686  -0.321  25.718  0.00  0.00    -0.269 N 
ATOM     15  C   UNL     1      -1.024   0.793  25.195  0.00  0.00    +0.304 C 
ATOM     24  H   UNL     1      -0.381   1.119  27.154  0.00  0.00    +0.150 HD
ATOM     25  H   UNL     1      -1.582  -0.486  26.717  0.00  0.00    +0.156 HD
BRANCH   6  16
ATOM     16  C   UNL     1      -2.492  -1.256  25.028  0.00  0.00    +0.035 A 
ATOM     17  C   UNL     1      -3.771  -0.895  24.603  0.00  0.00    +0.023 A 
ATOM     18  C   UNL     1      -2.008  -2.538  24.771  0.00  0.00    +0.023 A 
ATOM     19  C   UNL     1      -4.565  -1.818  23.922  0.00  0.00    +0.002 A 
ATOM     20  C   UNL     1      -2.801  -3.461  24.091  0.00  0.00    +0.002 A 
ATOM     21  C   UNL     1      -4.080  -3.101  23.666  0.00  0.00    +0.000 A 
ENDBRANCH   6  16
ENDBRANCH  11   5
BRANCH  11   9
ATOM      1  O   UNL     1      -0.285   4.382  24.441  0.00  0.00    -0.371 OA
ATOM      7  C   UNL     1      -2.546   4.672  25.109  0.00  0.00    +0.111 C 
ATOM      8  C   UNL     1      -1.924   3.562  25.936  0.00  0.00    +0.164 C 
ATOM      9  C   UNL     1      -0.442   3.872  25.776  0.00  0.00    +0.165 C 
ATOM     10  C   UNL     1      -1.580   4.750  23.937  0.00  0.00    +0.181 C 
BRANCH   8   2
ATOM      2  O   UNL     1      -2.327   3.600  27.292  0.00  0.00    -0.388 OA
ATOM     23  H   UNL     1      -1.534   3.509  27.848  0.00  0.00    +0.210 HD
ENDBRANCH   8   2
BRANCH   7   4
ATOM      4  N   UNL     1      -3.913   4.397  24.698  0.00  0.00    -0.307 NA
ATOM     22  H   UNL     1      -4.100   4.823  23.791  0.00  0.00    +0.123 HD
BRANCH   4  12
ATOM     12  C   UNL     1      -4.163   2.962  24.634  0.00  0.00    +0.048 C 
ATOM     13  C   UNL     1      -5.530   2.658  25.237  0.00  0.00    +0.023 C 
ATOM     14  C   UNL     1      -4.080   2.475  23.191  0.00  0.00    +0.023 C 
ENDBRANCH   4  12
ENDBRANCH   7   4
ENDBRANCH  11   9
TORSDOF 6
ENDMDL
MODEL 7
REMARK VINA RESULT:      -2.8      1.508      2.275
REMARK  Name = 75536766
REMARK  8 active torsions:
REMARK  status: ('A' for Active; 'I' for Inactive)
REMARK    1  A    between atoms: O_2  and  C_8
REMARK    2  A    between atoms: N_4  and  C_7
REMARK    3  A    between atoms: N_4  and  C_12
REMARK    4  A    between atoms: N_5  and  C_11
REMARK    5  A    between atoms: N_6  and  C_16
REMARK    6  A    between atoms: C_9  and  C_11
REMARK    7  A    between atoms: C_12  and  C_13
REMARK    8  A    between atoms: C_12  and  C_14
REMARK                            x       y       z     vdW  Elec       q    Type
REMARK                         _______ _______ _______ _____ _____    ______ ____
ROOT
ATOM     11  C   UNL     1      -1.925  -0.123  24.008  0.00  0.00    +0.140 C 
ENDROOT
BRANCH  11   5
ATOM      3  O   UNL     1       0.665   0.963  24.568  0.00  0.00    -0.253 OA
ATOM      5  N   UNL     1      -0.669  -0.596  23.501  0.00  0.00    -0.297 N 
ATOM      6  N   UNL     1       1.612  -0.680  23.185  0.00  0.00    -0.269 N 
ATOM     15  C   UNL     1       0.566  -0.008  23.823  0.00  0.00    +0.304 C 
ATOM     24  H   UNL     1      -0.676  -1.389  22.868  0.00  0.00    +0.150 HD
ATOM     25  H   UNL     1       1.356  -1.470  22.598  0.00  0.00    +0.156 HD
BRANCH   6  16
ATOM     16  C   UNL     1       2.996  -0.395  23.254  0.00  0.00    +0.035 A 
ATOM     17  C   UNL     1       3.482   0.822  22.776  0.00  0.00    +0.023 A 
ATOM     18  C   UNL     1       3.873  -1.331  23.800  0.00  0.00    +0.023 A 
ATOM     19  C   UNL     1       4.847   1.102  22.843  0.00  0.00    +0.002 A 
ATOM     20  C   UNL     1       5.238  -1.051  23.868  0.00  0.00    +0.002 A 
ATOM     21  C   UNL     1       5.725   0.165  23.389  0.00  0.00    +0.000 A 
ENDBRANCH   6  16
ENDBRANCH  11   5
BRANCH  11   9
ATOM      1  O   UNL     1      -3.091   1.691  22.912  0.00  0.00    -0.371 OA
ATOM      7  C   UNL     1      -3.085   3.350  24.612  0.00  0.00    +0.111 C 
ATOM      8  C   UNL     1      -2.433   2.089  25.150  0.00  0.00    +0.164 C 
ATOM      9  C   UNL     1      -2.050   1.382  23.856  0.00  0.00    +0.165 C 
ATOM     10  C   UNL     1      -3.846   2.807  23.413  0.00  0.00    +0.181 C 
BRANCH   8   2
ATOM      2  O   UNL     1      -1.303   2.359  25.957  0.00  0.00    -0.388 OA
ATOM     23  H   UNL     1      -1.023   1.527  26.376  0.00  0.00    +0.210 HD
ENDBRANCH   8   2
BRANCH   7   4
ATOM      4  N   UNL     1      -3.946   4.016  25.575  0.00  0.00    -0.307 NA
ATOM     22  H   UNL     1      -3.796   5.024  25.541  0.00  0.00    +0.123 HD
BRANCH   4  12
ATOM     12  C   UNL     1      -5.350   3.714  25.321  0.00  0.00    +0.048 C 
ATOM     13  C   UNL     1      -5.787   2.554  26.211  0.00  0.00    +0.023 C 
ATOM     14  C   UNL     1      -6.210   4.949  25.568  0.00  0.00    +0.023 C 
ENDBRANCH   4  12
ENDBRANCH   7   4
ENDBRANCH  11   9
TORSDOF 6
ENDMDL
MODEL 8
REMARK VINA RESULT:      -2.3      1.561      2.089
REMARK  Name = 75536766
REMARK  8 active torsions:
REMARK  status: ('A' for Active; 'I' for Inactive)
REMARK    1  A    between atoms: O_2  and  C_8
REMARK    2  A    between atoms: N_4  and  C_7
REMARK    3  A    between atoms: N_4  and  C_12
REMARK    4  A    between atoms: N_5  and  C_11
REMARK    5  A    between atoms: N_6  and  C_16
REMARK    6  A    between atoms: C_9  and  C_11
REMARK    7  A    between atoms: C_12  and  C_13
REMARK    8  A    between atoms: C_12  and  C_14
REMARK                            x       y       z     vdW  Elec       q    Type
REMARK                         _______ _______ _______ _____ _____    ______ ____
ROOT
ATOM     11  C   UNL     1      -1.871  -1.784  24.215  0.00  0.00    +0.140 C 
ENDROOT
BRANCH  11   5
ATOM      3  O   UNL     1       0.872  -1.725  25.037  0.00  0.00    -0.253 OA
ATOM      5  N   UNL     1      -0.778  -1.172  23.514  0.00  0.00    -0.297 N 
ATOM      6  N   UNL     1       1.390  -0.513  23.095  0.00  0.00    -0.269 N 
ATOM     15  C   UNL     1       0.545  -1.184  23.983  0.00  0.00    +0.304 C 
ATOM     24  H   UNL     1      -0.977  -0.694  22.641  0.00  0.00    +0.150 HD
ATOM     25  H   UNL     1       0.956  -0.120  22.263  0.00  0.00    +0.156 HD
BRANCH   6  16
ATOM     16  C   UNL     1       2.785  -0.308  23.209  0.00  0.00    +0.035 A 
ATOM     17  C   UNL     1       3.597  -1.320  23.722  0.00  0.00    +0.023 A 
ATOM     18  C   UNL     1       3.347   0.903  22.808  0.00  0.00    +0.023 A 
ATOM     19  C   UNL     1       4.973  -1.118  23.835  0.00  0.00    +0.002 A 
ATOM     20  C   UNL     1       4.722   1.104  22.920  0.00  0.00    +0.002 A 
ATOM     21  C   UNL     1       5.535   0.094  23.434  0.00  0.00    +0.000 A 
ENDBRANCH   6  16
ENDBRANCH  11   5
BRANCH  11   9
ATOM      1  O   UNL     1      -1.780   0.306  25.429  0.00  0.00    -0.371 OA
ATOM      7  C   UNL     1      -3.929   1.209  24.973  0.00  0.00    +0.111 C 
ATOM      8  C   UNL     1      -3.777  -0.104  24.228  0.00  0.00    +0.164 C 
ATOM      9  C   UNL     1      -2.653  -0.761  25.019  0.00  0.00    +0.165 C 
ATOM     10  C   UNL     1      -2.479   1.552  25.276  0.00  0.00    +0.181 C 
BRANCH   8   2
ATOM      2  O   UNL     1      -4.958  -0.883  24.245  0.00  0.00    -0.388 OA
ATOM     23  H   UNL     1      -5.621  -0.442  23.687  0.00  0.00    +0.210 HD
ENDBRANCH   8   2
BRANCH   7   4
ATOM      4  N   UNL     1      -4.606   2.240  24.203  0.00  0.00    -0.307 NA
ATOM     22  H   UNL     1      -5.069   1.827  23.394  0.00  0.00    +0.123 HD
BRANCH   4  12
ATOM     12  C   UNL     1      -5.578   2.954  25.022  0.00  0.00    +0.048 C 
ATOM     13  C   UNL     1      -6.094   2.027  26.119  0.00  0.00    +0.023 C 
ATOM     14  C   UNL     1      -4.948   4.209  25.618  0.00  0.00    +0.023 C 
ENDBRANCH   4  12
ENDBRANCH   7   4
ENDBRANCH  11   9
TORSDOF 6
ENDMDL
MODEL 9
REMARK VINA RESULT:      -2.2      2.573      6.604
REMARK  Name = 75536766
REMARK  8 active torsions:
REMARK  status: ('A' for Active; 'I' for Inactive)
REMARK    1  A    between atoms: O_2  and  C_8
REMARK    2  A    between atoms: N_4  and  C_7
REMARK    3  A    between atoms: N_4  and  C_12
REMARK    4  A    between atoms: N_5  and  C_11
REMARK    5  A    between atoms: N_6  and  C_16
REMARK    6  A    between atoms: C_9  and  C_11
REMARK    7  A    between atoms: C_12  and  C_13
REMARK    8  A    between atoms: C_12  and  C_14
REMARK                            x       y       z     vdW  Elec       q    Type
REMARK                         _______ _______ _______ _____ _____    ______ ____
ROOT
ATOM     11  C   UNL     1      -2.341  -2.298  24.091  0.00  0.00    +0.140 C 
ENDROOT
BRANCH  11   5
ATOM      3  O   UNL     1      -3.050   0.405  23.457  0.00  0.00    -0.253 OA
ATOM      5  N   UNL     1      -3.149  -1.415  24.882  0.00  0.00    -0.297 N 
ATOM      6  N   UNL     1      -4.257   0.520  25.466  0.00  0.00    -0.269 N 
ATOM     15  C   UNL     1      -3.455  -0.097  24.502  0.00  0.00    +0.304 C 
ATOM     24  H   UNL     1      -3.508  -1.758  25.767  0.00  0.00    +0.150 HD
ATOM     25  H   UNL     1      -4.505  -0.039  26.279  0.00  0.00    +0.156 HD
BRANCH   6  16
ATOM     16  C   UNL     1      -4.774   1.837  25.453  0.00  0.00    +0.035 A 
ATOM     17  C   UNL     1      -3.936   2.910  25.149  0.00  0.00    +0.023 A 
ATOM     18  C   UNL     1      -6.119   2.061  25.743  0.00  0.00    +0.023 A 
ATOM     19  C   UNL     1      -4.446   4.209  25.136  0.00  0.00    +0.002 A 
ATOM     20  C   UNL     1      -6.628   3.359  25.730  0.00  0.00    +0.002 A 
ATOM     21  C   UNL     1      -5.791   4.433  25.426  0.00  0.00    +0.000 A 
ENDBRANCH   6  16
ENDBRANCH  11   5
BRANCH  11   9
ATOM      1  O   UNL     1      -0.477  -1.507  22.768  0.00  0.00    -0.371 OA
ATOM      7  C   UNL     1       0.634  -0.092  24.318  0.00  0.00    +0.111 C 
ATOM      8  C   UNL     1      -0.622  -0.644  24.966  0.00  0.00    +0.164 C 
ATOM      9  C   UNL     1      -0.885  -1.869  24.099  0.00  0.00    +0.165 C 
ATOM     10  C   UNL     1       0.342  -0.328  22.845  0.00  0.00    +0.181 C 
BRANCH   8   2
ATOM      2  O   UNL     1      -0.431  -0.991  26.324  0.00  0.00    -0.388 OA
ATOM     23  H   UNL     1      -1.268  -1.347  26.668  0.00  0.00    +0.210 HD
ENDBRANCH   8   2
BRANCH   7   4
ATOM      4  N   UNL     1       0.882   1.307  24.629  0.00  0.00    -0.307 NA
ATOM     22  H   UNL     1       1.324   1.770  23.835  0.00  0.00    +0.123 HD
BRANCH   4  12
ATOM     12  C   UNL     1      -0.355   1.994  24.980  0.00  0.00    +0.048 C 
ATOM     13  C   UNL     1      -0.259   2.510  26.412  0.00  0.00    +0.023 C 
ATOM     14  C   UNL     1      -0.622   3.135  24.003  0.00  0.00    +0.023 C 
ENDBRANCH   4  12
ENDBRANCH   7   4
ENDBRANCH  11   9
TORSDOF 6
ENDMDL
MODEL 10
REMARK VINA RESULT:      -2.1      2.145      3.840
REMARK  Name = 75536766
REMARK  8 active torsions:
REMARK  status: ('A' for Active; 'I' for Inactive)
REMARK    1  A    between atoms: O_2  and  C_8
REMARK    2  A    between atoms: N_4  and  C_7
REMARK    3  A    between atoms: N_4  and  C_12
REMARK    4  A    between atoms: N_5  and  C_11
REMARK    5  A    between atoms: N_6  and  C_16
REMARK    6  A    between atoms: C_9  and  C_11
REMARK    7  A    between atoms: C_12  and  C_13
REMARK    8  A    between atoms: C_12  and  C_14
REMARK                            x       y       z     vdW  Elec       q    Type
REMARK                         _______ _______ _______ _____ _____    ______ ____
ROOT
ATOM     11  C   UNL     1      -2.071   4.311  25.439  0.00  0.00    +0.140 C 
ENDROOT
BRANCH  11   5
ATOM      3  O   UNL     1      -0.634   3.344  23.157  0.00  0.00    -0.253 OA
ATOM      5  N   UNL     1      -1.066   3.287  25.429  0.00  0.00    -0.297 N 
ATOM      6  N   UNL     1       0.520   1.858  24.561  0.00  0.00    -0.269 N 
ATOM     15  C   UNL     1      -0.403   2.865  24.265  0.00  0.00    +0.304 C 
ATOM     24  H   UNL     1      -0.832   2.836  26.308  0.00  0.00    +0.150 HD
ATOM     25  H   UNL     1       0.589   1.574  25.535  0.00  0.00    +0.156 HD
BRANCH   6  16
ATOM     16  C   UNL     1       1.379   1.177  23.666  0.00  0.00    +0.035 A 
ATOM     17  C   UNL     1       2.723   1.538  23.580  0.00  0.00    +0.023 A 
ATOM     18  C   UNL     1       0.881   0.144  22.872  0.00  0.00    +0.023 A 
ATOM     19  C   UNL     1       3.570   0.867  22.697  0.00  0.00    +0.002 A 
ATOM     20  C   UNL     1       1.727  -0.527  21.990  0.00  0.00    +0.002 A 
ATOM     21  C   UNL     1       3.072  -0.166  21.903  0.00  0.00    +0.000 A 
ENDBRANCH   6  16
ENDBRANCH  11   5
BRANCH  11   9
ATOM      1  O   UNL     1      -3.207   3.315  23.551  0.00  0.00    -0.371 OA
ATOM      7  C   UNL     1      -4.817   1.948  24.638  0.00  0.00    +0.111 C 
ATOM      8  C   UNL     1      -3.952   2.622  25.687  0.00  0.00    +0.164 C 
ATOM      9  C   UNL     1      -3.390   3.795  24.894  0.00  0.00    +0.165 C 
ATOM     10  C   UNL     1      -3.953   2.096  23.396  0.00  0.00    +0.181 C 
BRANCH   8   2
ATOM      2  O   UNL     1      -4.693   3.053  26.812  0.00  0.00    -0.388 OA
ATOM     23  H   UNL     1      -4.463   2.481  27.565  0.00  0.00    +0.210 HD
ENDBRANCH   8   2
BRANCH   7   4
ATOM      4  N   UNL     1      -5.133   0.563  24.946  0.00  0.00    -0.307 NA
ATOM     22  H   UNL     1      -5.926   0.251  24.386  0.00  0.00    +0.123 HD
BRANCH   4  12
ATOM     12  C   UNL     1      -3.985  -0.303  24.706  0.00  0.00    +0.048 C 
ATOM     13  C   UNL     1      -3.475  -0.849  26.036  0.00  0.00    +0.023 C 
ATOM     14  C   UNL     1      -4.366  -1.437  23.758  0.00  0.00    +0.023 C 
ENDBRANCH   4  12
ENDBRANCH   7   4
ENDBRANCH  11   9
TORSDOF 6
ENDMDL
