MODEL 1
REMARK VINA RESULT:      -3.1      0.000      0.000
REMARK  Name = 75536320
REMARK  10 active torsions:
REMARK  status: ('A' for Active; 'I' for Inactive)
REMARK    1  A    between atoms: O_2  and  C_8
REMARK    2  A    between atoms: O_4  and  C_22
REMARK    3  A    between atoms: O_4  and  C_30
REMARK    4  A    between atoms: N_5  and  C_12
REMARK    5  A    between atoms: N_5  and  C_15
REMARK    6  A    between atoms: C_7  and  C_12
REMARK    7  A    between atoms: C_9  and  C_13
REMARK    8  A    between atoms: C_13  and  C_14
REMARK    9  A    between atoms: C_15  and  C_17
REMARK   10  A    between atoms: C_18  and  C_19
REMARK                            x       y       z     vdW  Elec       q    Type
REMARK                         _______ _______ _______ _____ _____    ______ ____
ROOT
ATOM      1  O   UNL     1      -3.590   0.524  23.531  0.00  0.00    -0.369 OA
ATOM      7  C   UNL     1      -4.500  -0.041  24.484  0.00  0.00    +0.161 C 
ATOM      8  C   UNL     1      -3.950  -1.346  25.075  0.00  0.00    +0.145 C 
ATOM      9  C   UNL     1      -2.268   0.760  24.020  0.00  0.00    +0.125 C 
ATOM     10  C   UNL     1      -2.515  -1.199  25.572  0.00  0.00    +0.036 C 
ATOM     11  C   UNL     1      -1.635  -0.540  24.513  0.00  0.00    +0.034 C 
ENDROOT
BRANCH   8   2
ATOM      2  O   UNL     1      -3.959  -2.352  24.060  0.00  0.00    -0.389 OA
ATOM     32  H   UNL     1      -4.339  -1.956  23.257  0.00  0.00    +0.210 HD
ENDBRANCH   8   2
BRANCH   7  12
ATOM     12  C   UNL     1      -4.886   0.981  25.551  0.00  0.00    +0.115 C 
BRANCH  12   5
ATOM      5  N   UNL     1      -4.956   2.320  24.985  0.00  0.00    -0.309 NA
ATOM     31  H   UNL     1      -4.384   2.359  24.140  0.00  0.00    +0.122 HD
BRANCH   5  15
ATOM     15  C   UNL     1      -4.463   3.313  25.931  0.00  0.00    +0.116 C 
BRANCH  15  17
ATOM     17  C   UNL     1      -3.064   3.758  25.598  0.00  0.00    -0.030 A 
ATOM     20  C   UNL     1      -1.971   3.011  26.038  0.00  0.00    +0.050 A 
ATOM     21  C   UNL     1      -2.860   4.917  24.849  0.00  0.00    +0.005 A 
ATOM     22  C   UNL     1      -0.675   3.423  25.728  0.00  0.00    +0.120 A 
ATOM     23  C   UNL     1      -1.564   5.330  24.540  0.00  0.00    +0.004 A 
ATOM     26  C   UNL     1      -0.471   4.582  24.979  0.00  0.00    +0.045 A 
BRANCH  22   4
ATOM      4  O   UNL     1       0.391   2.694  26.157  0.00  0.00    -0.495 OA
ATOM     30  C   UNL     1       0.420   2.337  27.539  0.00  0.00    +0.277 C 
ENDBRANCH  22   4
ENDBRANCH  15  17
ENDBRANCH   5  15
ENDBRANCH  12   5
ENDBRANCH   7  12
BRANCH   9  13
ATOM     13  C   UNL     1      -1.457   1.359  22.876  0.00  0.00    +0.090 C 
BRANCH  13  14
ATOM      3  O   UNL     1       1.446  -0.601  22.027  0.00  0.00    -0.354 OA
ATOM      6  N   UNL     1       0.112  -0.245  21.865  0.00  0.00    -0.083 NA
ATOM     14  C   UNL     1      -0.098   0.721  22.763  0.00  0.00    +0.087 A 
ATOM     16  C   UNL     1       1.054   1.015  23.512  0.00  0.00    +0.076 A 
ATOM     18  C   UNL     1       1.996   0.156  23.011  0.00  0.00    +0.167 A 
BRANCH  18  19
ATOM     19  C   UNL     1       3.379  -0.098  23.291  0.00  0.00    +0.020 A 
ATOM     24  C   UNL     1       3.780  -1.359  23.733  0.00  0.00    +0.011 A 
ATOM     25  C   UNL     1       4.323   0.915  23.124  0.00  0.00    +0.011 A 
ATOM     27  C   UNL     1       5.124  -1.608  24.007  0.00  0.00    +0.001 A 
ATOM     28  C   UNL     1       5.668   0.666  23.398  0.00  0.00    +0.001 A 
ATOM     29  C   UNL     1       6.069  -0.595  23.840  0.00  0.00    +0.000 A 
ENDBRANCH  18  19
ENDBRANCH  13  14
ENDBRANCH   9  13
TORSDOF 9
ENDMDL
MODEL 2
REMARK VINA RESULT:      -2.2      2.126      4.546
REMARK  Name = 75536320
REMARK  10 active torsions:
REMARK  status: ('A' for Active; 'I' for Inactive)
REMARK    1  A    between atoms: O_2  and  C_8
REMARK    2  A    between atoms: O_4  and  C_22
REMARK    3  A    between atoms: O_4  and  C_30
REMARK    4  A    between atoms: N_5  and  C_12
REMARK    5  A    between atoms: N_5  and  C_15
REMARK    6  A    between atoms: C_7  and  C_12
REMARK    7  A    between atoms: C_9  and  C_13
REMARK    8  A    between atoms: C_13  and  C_14
REMARK    9  A    between atoms: C_15  and  C_17
REMARK   10  A    between atoms: C_18  and  C_19
REMARK                            x       y       z     vdW  Elec       q    Type
REMARK                         _______ _______ _______ _____ _____    ______ ____
ROOT
ATOM      1  O   UNL     1      -3.644   2.495  25.713  0.00  0.00    -0.369 OA
ATOM      7  C   UNL     1      -4.889   1.946  25.260  0.00  0.00    +0.161 C 
ATOM      8  C   UNL     1      -6.081   2.753  25.791  0.00  0.00    +0.145 C 
ATOM      9  C   UNL     1      -3.442   3.876  25.404  0.00  0.00    +0.125 C 
ATOM     10  C   UNL     1      -5.920   4.251  25.554  0.00  0.00    +0.036 C 
ATOM     11  C   UNL     1      -4.548   4.734  26.016  0.00  0.00    +0.034 C 
ENDROOT
BRANCH   8   2
ATOM      2  O   UNL     1      -6.187   2.543  27.201  0.00  0.00    -0.389 OA
ATOM     32  H   UNL     1      -5.287   2.543  27.568  0.00  0.00    +0.210 HD
ENDBRANCH   8   2
BRANCH   7  12
ATOM     12  C   UNL     1      -4.903   1.790  23.741  0.00  0.00    +0.115 C 
BRANCH  12   5
ATOM      5  N   UNL     1      -3.620   2.172  23.169  0.00  0.00    -0.309 NA
ATOM     31  H   UNL     1      -3.767   2.901  22.469  0.00  0.00    +0.122 HD
BRANCH   5  15
ATOM     15  C   UNL     1      -2.974   1.032  22.530  0.00  0.00    +0.116 C 
BRANCH  15  17
ATOM     17  C   UNL     1      -2.959  -0.178  23.425  0.00  0.00    -0.030 A 
ATOM     20  C   UNL     1      -1.902  -0.377  24.313  0.00  0.00    +0.050 A 
ATOM     21  C   UNL     1      -4.004  -1.101  23.367  0.00  0.00    +0.005 A 
ATOM     22  C   UNL     1      -1.889  -1.498  25.143  0.00  0.00    +0.120 A 
ATOM     23  C   UNL     1      -3.991  -2.222  24.196  0.00  0.00    +0.004 A 
ATOM     26  C   UNL     1      -2.934  -2.421  25.085  0.00  0.00    +0.045 A 
BRANCH  22   4
ATOM      4  O   UNL     1      -0.857  -1.692  26.008  0.00  0.00    -0.495 OA
ATOM     30  C   UNL     1       0.266  -2.427  25.525  0.00  0.00    +0.277 C 
ENDBRANCH  22   4
ENDBRANCH  15  17
ENDBRANCH   5  15
ENDBRANCH  12   5
ENDBRANCH   7  12
BRANCH   9  13
ATOM     13  C   UNL     1      -2.078   4.273  25.957  0.00  0.00    +0.090 C 
BRANCH  13  14
ATOM      3  O   UNL     1       0.558   1.823  25.758  0.00  0.00    -0.354 OA
ATOM      6  N   UNL     1      -0.341   2.608  26.472  0.00  0.00    -0.083 NA
ATOM     14  C   UNL     1      -1.004   3.302  25.544  0.00  0.00    +0.087 A 
ATOM     16  C   UNL     1      -0.573   3.001  24.240  0.00  0.00    +0.076 A 
ATOM     18  C   UNL     1       0.410   2.067  24.431  0.00  0.00    +0.167 A 
BRANCH  18  19
ATOM     19  C   UNL     1       1.275   1.323  23.563  0.00  0.00    +0.020 A 
ATOM     24  C   UNL     1       0.759   0.287  22.784  0.00  0.00    +0.011 A 
ATOM     25  C   UNL     1       2.633   1.634  23.497  0.00  0.00    +0.011 A 
ATOM     27  C   UNL     1       1.600  -0.438  21.940  0.00  0.00    +0.001 A 
ATOM     28  C   UNL     1       3.475   0.910  22.653  0.00  0.00    +0.001 A 
ATOM     29  C   UNL     1       2.959  -0.126  21.874  0.00  0.00    +0.000 A 
ENDBRANCH  18  19
ENDBRANCH  13  14
ENDBRANCH   9  13
TORSDOF 9
ENDMDL
MODEL 3
REMARK VINA RESULT:      -2.0      1.459      1.783
REMARK  Name = 75536320
REMARK  10 active torsions:
REMARK  status: ('A' for Active; 'I' for Inactive)
REMARK    1  A    between atoms: O_2  and  C_8
REMARK    2  A    between atoms: O_4  and  C_22
REMARK    3  A    between atoms: O_4  and  C_30
REMARK    4  A    between atoms: N_5  and  C_12
REMARK    5  A    between atoms: N_5  and  C_15
REMARK    6  A    between atoms: C_7  and  C_12
REMARK    7  A    between atoms: C_9  and  C_13
REMARK    8  A    between atoms: C_13  and  C_14
REMARK    9  A    between atoms: C_15  and  C_17
REMARK   10  A    between atoms: C_18  and  C_19
REMARK                            x       y       z     vdW  Elec       q    Type
REMARK                         _______ _______ _______ _____ _____    ______ ____
ROOT
ATOM      1  O   UNL     1      -3.610  -0.067  23.698  0.00  0.00    -0.369 OA
ATOM      7  C   UNL     1      -4.461  -0.739  24.637  0.00  0.00    +0.161 C 
ATOM      8  C   UNL     1      -3.885  -2.104  25.036  0.00  0.00    +0.145 C 
ATOM      9  C   UNL     1      -2.257   0.109  24.124  0.00  0.00    +0.125 C 
ATOM     10  C   UNL     1      -2.419  -2.017  25.451  0.00  0.00    +0.036 C 
ATOM     11  C   UNL     1      -1.604  -1.241  24.420  0.00  0.00    +0.034 C 
ENDROOT
BRANCH   8   2
ATOM      2  O   UNL     1      -3.969  -2.985  23.914  0.00  0.00    -0.389 OA
ATOM     32  H   UNL     1      -4.043  -2.437  23.114  0.00  0.00    +0.210 HD
ENDBRANCH   8   2
BRANCH   7  12
ATOM     12  C   UNL     1      -4.768   0.153  25.838  0.00  0.00    +0.115 C 
BRANCH  12   5
ATOM      5  N   UNL     1      -5.986   0.919  25.617  0.00  0.00    -0.309 NA
ATOM     31  H   UNL     1      -6.243   0.865  24.631  0.00  0.00    +0.122 HD
BRANCH   5  15
ATOM     15  C   UNL     1      -5.795   2.318  25.977  0.00  0.00    +0.116 C 
BRANCH  15  17
ATOM     17  C   UNL     1      -4.708   2.964  25.160  0.00  0.00    -0.030 A 
ATOM     20  C   UNL     1      -3.661   3.632  25.795  0.00  0.00    +0.050 A 
ATOM     21  C   UNL     1      -4.747   2.894  23.767  0.00  0.00    +0.005 A 
ATOM     22  C   UNL     1      -2.654   4.229  25.038  0.00  0.00    +0.120 A 
ATOM     23  C   UNL     1      -3.740   3.491  23.010  0.00  0.00    +0.004 A 
ATOM     26  C   UNL     1      -2.693   4.158  23.645  0.00  0.00    +0.045 A 
BRANCH  22   4
ATOM      4  O   UNL     1      -1.632   4.880  25.658  0.00  0.00    -0.495 OA
ATOM     30  C   UNL     1      -0.532   5.286  24.844  0.00  0.00    +0.277 C 
ENDBRANCH  22   4
ENDBRANCH  15  17
ENDBRANCH   5  15
ENDBRANCH  12   5
ENDBRANCH   7  12
BRANCH   9  13
ATOM     13  C   UNL     1      -1.517   0.836  23.007  0.00  0.00    +0.090 C 
BRANCH  13  14
ATOM      3  O   UNL     1       1.859   1.703  23.923  0.00  0.00    -0.354 OA
ATOM      6  N   UNL     1       0.500   1.979  23.832  0.00  0.00    -0.083 NA
ATOM     14  C   UNL     1      -0.035   0.895  23.266  0.00  0.00    +0.087 A 
ATOM     16  C   UNL     1       0.927  -0.090  22.982  0.00  0.00    +0.076 A 
ATOM     18  C   UNL     1       2.100   0.468  23.414  0.00  0.00    +0.167 A 
BRANCH  18  19
ATOM     19  C   UNL     1       3.469   0.041  23.442  0.00  0.00    +0.020 A 
ATOM     24  C   UNL     1       3.784  -1.266  23.816  0.00  0.00    +0.011 A 
ATOM     25  C   UNL     1       4.485   0.932  23.097  0.00  0.00    +0.011 A 
ATOM     27  C   UNL     1       5.115  -1.682  23.845  0.00  0.00    +0.001 A 
ATOM     28  C   UNL     1       5.816   0.515  23.126  0.00  0.00    +0.001 A 
ATOM     29  C   UNL     1       6.132  -0.791  23.500  0.00  0.00    +0.000 A 
ENDBRANCH  18  19
ENDBRANCH  13  14
ENDBRANCH   9  13
TORSDOF 9
ENDMDL
MODEL 4
REMARK VINA RESULT:      -1.5      1.579      4.358
REMARK  Name = 75536320
REMARK  10 active torsions:
REMARK  status: ('A' for Active; 'I' for Inactive)
REMARK    1  A    between atoms: O_2  and  C_8
REMARK    2  A    between atoms: O_4  and  C_22
REMARK    3  A    between atoms: O_4  and  C_30
REMARK    4  A    between atoms: N_5  and  C_12
REMARK    5  A    between atoms: N_5  and  C_15
REMARK    6  A    between atoms: C_7  and  C_12
REMARK    7  A    between atoms: C_9  and  C_13
REMARK    8  A    between atoms: C_13  and  C_14
REMARK    9  A    between atoms: C_15  and  C_17
REMARK   10  A    between atoms: C_18  and  C_19
REMARK                            x       y       z     vdW  Elec       q    Type
REMARK                         _______ _______ _______ _____ _____    ______ ____
ROOT
ATOM      1  O   UNL     1      -0.741   2.965  24.206  0.00  0.00    -0.369 OA
ATOM      7  C   UNL     1      -0.801   3.685  25.445  0.00  0.00    +0.161 C 
ATOM      8  C   UNL     1      -2.067   4.548  25.528  0.00  0.00    +0.145 C 
ATOM      9  C   UNL     1      -1.878   2.146  23.924  0.00  0.00    +0.125 C 
ATOM     10  C   UNL     1      -3.329   3.763  25.183  0.00  0.00    +0.036 C 
ATOM     11  C   UNL     1      -3.152   2.988  23.880  0.00  0.00    +0.034 C 
ENDROOT
BRANCH   8   2
ATOM      2  O   UNL     1      -1.953   5.624  24.593  0.00  0.00    -0.389 OA
ATOM     32  H   UNL     1      -1.152   5.470  24.063  0.00  0.00    +0.210 HD
ENDBRANCH   8   2
BRANCH   7  12
ATOM     12  C   UNL     1      -0.641   2.744  26.637  0.00  0.00    +0.115 C 
BRANCH  12   5
ATOM      5  N   UNL     1      -0.018   1.494  26.231  0.00  0.00    -0.309 NA
ATOM     31  H   UNL     1      -0.126   1.376  25.222  0.00  0.00    +0.122 HD
BRANCH   5  15
ATOM     15  C   UNL     1      -0.638   0.359  26.904  0.00  0.00    +0.116 C 
BRANCH  15  17
ATOM     17  C   UNL     1      -1.391  -0.521  25.942  0.00  0.00    -0.030 A 
ATOM     20  C   UNL     1      -2.724  -0.243  25.640  0.00  0.00    +0.050 A 
ATOM     21  C   UNL     1      -0.755  -1.613  25.351  0.00  0.00    +0.005 A 
ATOM     22  C   UNL     1      -3.421  -1.057  24.748  0.00  0.00    +0.120 A 
ATOM     23  C   UNL     1      -1.452  -2.428  24.460  0.00  0.00    +0.004 A 
ATOM     26  C   UNL     1      -2.785  -2.150  24.157  0.00  0.00    +0.045 A 
BRANCH  22   4
ATOM      4  O   UNL     1      -4.722  -0.787  24.453  0.00  0.00    -0.495 OA
ATOM     30  C   UNL     1      -5.234   0.476  24.877  0.00  0.00    +0.277 C 
ENDBRANCH  22   4
ENDBRANCH  15  17
ENDBRANCH   5  15
ENDBRANCH  12   5
ENDBRANCH   7  12
BRANCH   9  13
ATOM     13  C   UNL     1      -1.631   1.466  22.582  0.00  0.00    +0.090 C 
BRANCH  13  14
ATOM      3  O   UNL     1       1.240  -0.611  21.923  0.00  0.00    -0.354 OA
ATOM      6  N   UNL     1      -0.082  -0.236  21.711  0.00  0.00    -0.083 NA
ATOM     14  C   UNL     1      -0.286   0.792  22.539  0.00  0.00    +0.087 A 
ATOM     16  C   UNL     1       0.859   1.108  23.290  0.00  0.00    +0.076 A 
ATOM     18  C   UNL     1       1.789   0.197  22.866  0.00  0.00    +0.167 A 
BRANCH  18  19
ATOM     19  C   UNL     1       3.160  -0.071  23.191  0.00  0.00    +0.020 A 
ATOM     24  C   UNL     1       3.533  -1.332  23.656  0.00  0.00    +0.011 A 
ATOM     25  C   UNL     1       4.120   0.931  23.043  0.00  0.00    +0.011 A 
ATOM     27  C   UNL     1       4.866  -1.592  23.973  0.00  0.00    +0.001 A 
ATOM     28  C   UNL     1       5.453   0.670  23.361  0.00  0.00    +0.001 A 
ATOM     29  C   UNL     1       5.826  -0.591  23.826  0.00  0.00    +0.000 A 
ENDBRANCH  18  19
ENDBRANCH  13  14
ENDBRANCH   9  13
TORSDOF 9
ENDMDL
MODEL 5
REMARK VINA RESULT:      -1.2      1.371      2.213
REMARK  Name = 75536320
REMARK  10 active torsions:
REMARK  status: ('A' for Active; 'I' for Inactive)
REMARK    1  A    between atoms: O_2  and  C_8
REMARK    2  A    between atoms: O_4  and  C_22
REMARK    3  A    between atoms: O_4  and  C_30
REMARK    4  A    between atoms: N_5  and  C_12
REMARK    5  A    between atoms: N_5  and  C_15
REMARK    6  A    between atoms: C_7  and  C_12
REMARK    7  A    between atoms: C_9  and  C_13
REMARK    8  A    between atoms: C_13  and  C_14
REMARK    9  A    between atoms: C_15  and  C_17
REMARK   10  A    between atoms: C_18  and  C_19
REMARK                            x       y       z     vdW  Elec       q    Type
REMARK                         _______ _______ _______ _____ _____    ______ ____
ROOT
ATOM      1  O   UNL     1      -4.090   1.153  23.592  0.00  0.00    -0.369 OA
ATOM      7  C   UNL     1      -4.954   2.269  23.842  0.00  0.00    +0.161 C 
ATOM      8  C   UNL     1      -6.042   1.915  24.864  0.00  0.00    +0.145 C 
ATOM      9  C   UNL     1      -3.470   0.592  24.752  0.00  0.00    +0.125 C 
ATOM     10  C   UNL     1      -5.472   1.256  26.116  0.00  0.00    +0.036 C 
ATOM     11  C   UNL     1      -4.525   0.116  25.750  0.00  0.00    +0.034 C 
ENDROOT
BRANCH   8   2
ATOM      2  O   UNL     1      -6.956   0.994  24.263  0.00  0.00    -0.389 OA
ATOM     32  H   UNL     1      -7.452   0.563  24.979  0.00  0.00    +0.210 HD
ENDBRANCH   8   2
BRANCH   7  12
ATOM     12  C   UNL     1      -4.152   3.510  24.230  0.00  0.00    +0.115 C 
BRANCH  12   5
ATOM      5  N   UNL     1      -4.777   4.203  25.347  0.00  0.00    -0.309 NA
ATOM     31  H   UNL     1      -5.142   5.100  25.025  0.00  0.00    +0.122 HD
BRANCH   5  15
ATOM     15  C   UNL     1      -3.816   4.444  26.416  0.00  0.00    +0.116 C 
BRANCH  15  17
ATOM     17  C   UNL     1      -2.396   4.297  25.937  0.00  0.00    -0.030 A 
ATOM     20  C   UNL     1      -1.593   3.273  26.438  0.00  0.00    +0.050 A 
ATOM     21  C   UNL     1      -1.884   5.186  24.991  0.00  0.00    +0.005 A 
ATOM     22  C   UNL     1      -0.278   3.137  25.993  0.00  0.00    +0.120 A 
ATOM     23  C   UNL     1      -0.569   5.050  24.546  0.00  0.00    +0.004 A 
ATOM     26  C   UNL     1       0.234   4.025  25.047  0.00  0.00    +0.045 A 
BRANCH  22   4
ATOM      4  O   UNL     1       0.505   2.137  26.483  0.00  0.00    -0.495 OA
ATOM     30  C   UNL     1       1.077   2.334  27.775  0.00  0.00    +0.277 C 
ENDBRANCH  22   4
ENDBRANCH  15  17
ENDBRANCH   5  15
ENDBRANCH  12   5
ENDBRANCH   7  12
BRANCH   9  13
ATOM     13  C   UNL     1      -2.598  -0.569  24.289  0.00  0.00    +0.090 C 
BRANCH  13  14
ATOM      3  O   UNL     1       0.326   1.188  23.124  0.00  0.00    -0.354 OA
ATOM      6  N   UNL     1      -1.044   1.088  23.343  0.00  0.00    -0.083 NA
ATOM     14  C   UNL     1      -1.216  -0.110  23.907  0.00  0.00    +0.087 A 
ATOM     16  C   UNL     1      -0.005  -0.804  24.069  0.00  0.00    +0.076 A 
ATOM     18  C   UNL     1       0.933   0.055  23.561  0.00  0.00    +0.167 A 
BRANCH  18  19
ATOM     19  C   UNL     1       2.357   0.014  23.403  0.00  0.00    +0.020 A 
ATOM     24  C   UNL     1       3.034   1.117  22.882  0.00  0.00    +0.011 A 
ATOM     25  C   UNL     1       3.067  -1.130  23.769  0.00  0.00    +0.011 A 
ATOM     27  C   UNL     1       4.419   1.077  22.727  0.00  0.00    +0.001 A 
ATOM     28  C   UNL     1       4.453  -1.170  23.614  0.00  0.00    +0.001 A 
ATOM     29  C   UNL     1       5.129  -0.067  23.093  0.00  0.00    +0.000 A 
ENDBRANCH  18  19
ENDBRANCH  13  14
ENDBRANCH   9  13
TORSDOF 9
ENDMDL
MODEL 6
REMARK VINA RESULT:      -1.0      1.801      4.044
REMARK  Name = 75536320
REMARK  10 active torsions:
REMARK  status: ('A' for Active; 'I' for Inactive)
REMARK    1  A    between atoms: O_2  and  C_8
REMARK    2  A    between atoms: O_4  and  C_22
REMARK    3  A    between atoms: O_4  and  C_30
REMARK    4  A    between atoms: N_5  and  C_12
REMARK    5  A    between atoms: N_5  and  C_15
REMARK    6  A    between atoms: C_7  and  C_12
REMARK    7  A    between atoms: C_9  and  C_13
REMARK    8  A    between atoms: C_13  and  C_14
REMARK    9  A    between atoms: C_15  and  C_17
REMARK   10  A    between atoms: C_18  and  C_19
REMARK                            x       y       z     vdW  Elec       q    Type
REMARK                         _______ _______ _______ _____ _____    ______ ____
ROOT
ATOM      1  O   UNL     1      -2.780   2.006  24.755  0.00  0.00    -0.369 OA
ATOM      7  C   UNL     1      -3.463   2.943  25.599  0.00  0.00    +0.161 C 
ATOM      8  C   UNL     1      -3.116   4.389  25.221  0.00  0.00    +0.145 C 
ATOM      9  C   UNL     1      -2.996   2.182  23.353  0.00  0.00    +0.125 C 
ATOM     10  C   UNL     1      -3.265   4.651  23.726  0.00  0.00    +0.036 C 
ATOM     11  C   UNL     1      -2.552   3.576  22.910  0.00  0.00    +0.034 C 
ENDROOT
BRANCH   8   2
ATOM      2  O   UNL     1      -1.756   4.645  25.576  0.00  0.00    -0.389 OA
ATOM     32  H   UNL     1      -1.696   4.627  26.547  0.00  0.00    +0.210 HD
ENDBRANCH   8   2
BRANCH   7  12
ATOM     12  C   UNL     1      -4.966   2.675  25.616  0.00  0.00    +0.115 C 
BRANCH  12   5
ATOM      5  N   UNL     1      -5.243   1.300  26.005  0.00  0.00    -0.309 NA
ATOM     31  H   UNL     1      -4.450   0.934  26.534  0.00  0.00    +0.122 HD
BRANCH   5  15
ATOM     15  C   UNL     1      -5.454   0.459  24.834  0.00  0.00    +0.116 C 
BRANCH  15  17
ATOM     17  C   UNL     1      -4.417  -0.627  24.730  0.00  0.00    -0.030 A 
ATOM     20  C   UNL     1      -3.208  -0.505  25.413  0.00  0.00    +0.050 A 
ATOM     21  C   UNL     1      -4.666  -1.757  23.950  0.00  0.00    +0.005 A 
ATOM     22  C   UNL     1      -2.248  -1.512  25.317  0.00  0.00    +0.120 A 
ATOM     23  C   UNL     1      -3.706  -2.764  23.853  0.00  0.00    +0.004 A 
ATOM     26  C   UNL     1      -2.497  -2.642  24.537  0.00  0.00    +0.045 A 
BRANCH  22   4
ATOM      4  O   UNL     1      -1.067  -1.393  25.984  0.00  0.00    -0.495 OA
ATOM     30  C   UNL     1       0.049  -2.112  25.462  0.00  0.00    +0.277 C 
ENDBRANCH  22   4
ENDBRANCH  15  17
ENDBRANCH   5  15
ENDBRANCH  12   5
ENDBRANCH   7  12
BRANCH   9  13
ATOM     13  C   UNL     1      -2.199   1.103  22.628  0.00  0.00    +0.090 C 
BRANCH  13  14
ATOM      3  O   UNL     1       1.035   1.713  24.098  0.00  0.00    -0.354 OA
ATOM      6  N   UNL     1      -0.317   1.994  23.940  0.00  0.00    -0.083 NA
ATOM     14  C   UNL     1      -0.754   1.100  23.050  0.00  0.00    +0.087 A 
ATOM     16  C   UNL     1       0.266   0.237  22.614  0.00  0.00    +0.076 A 
ATOM     18  C   UNL     1       1.370   0.665  23.302  0.00  0.00    +0.167 A 
BRANCH  18  19
ATOM     19  C   UNL     1       2.743   0.256  23.360  0.00  0.00    +0.020 A 
ATOM     24  C   UNL     1       3.067  -1.056  23.709  0.00  0.00    +0.011 A 
ATOM     25  C   UNL     1       3.756   1.169  23.068  0.00  0.00    +0.011 A 
ATOM     27  C   UNL     1       4.401  -1.454  23.766  0.00  0.00    +0.001 A 
ATOM     28  C   UNL     1       5.092   0.771  23.124  0.00  0.00    +0.001 A 
ATOM     29  C   UNL     1       5.415  -0.541  23.473  0.00  0.00    +0.000 A 
ENDBRANCH  18  19
ENDBRANCH  13  14
ENDBRANCH   9  13
TORSDOF 9
ENDMDL
MODEL 7
REMARK VINA RESULT:      -0.2      2.521      5.370
REMARK  Name = 75536320
REMARK  10 active torsions:
REMARK  status: ('A' for Active; 'I' for Inactive)
REMARK    1  A    between atoms: O_2  and  C_8
REMARK    2  A    between atoms: O_4  and  C_22
REMARK    3  A    between atoms: O_4  and  C_30
REMARK    4  A    between atoms: N_5  and  C_12
REMARK    5  A    between atoms: N_5  and  C_15
REMARK    6  A    between atoms: C_7  and  C_12
REMARK    7  A    between atoms: C_9  and  C_13
REMARK    8  A    between atoms: C_13  and  C_14
REMARK    9  A    between atoms: C_15  and  C_17
REMARK   10  A    between atoms: C_18  and  C_19
REMARK                            x       y       z     vdW  Elec       q    Type
REMARK                         _______ _______ _______ _____ _____    ______ ____
ROOT
ATOM      1  O   UNL     1      -3.381   2.333  25.008  0.00  0.00    -0.369 OA
ATOM      7  C   UNL     1      -4.645   2.340  25.684  0.00  0.00    +0.161 C 
ATOM      8  C   UNL     1      -5.061   3.764  26.075  0.00  0.00    +0.145 C 
ATOM      9  C   UNL     1      -3.307   3.171  23.851  0.00  0.00    +0.125 C 
ATOM     10  C   UNL     1      -4.957   4.741  24.909  0.00  0.00    +0.036 C 
ATOM     11  C   UNL     1      -3.600   4.625  24.218  0.00  0.00    +0.034 C 
ENDROOT
BRANCH   8   2
ATOM      2  O   UNL     1      -4.195   4.228  27.113  0.00  0.00    -0.389 OA
ATOM     32  H   UNL     1      -3.518   3.545  27.259  0.00  0.00    +0.210 HD
ENDBRANCH   8   2
BRANCH   7  12
ATOM     12  C   UNL     1      -5.710   1.609  24.868  0.00  0.00    +0.115 C 
BRANCH  12   5
ATOM      5  N   UNL     1      -5.297   0.244  24.582  0.00  0.00    -0.309 NA
ATOM     31  H   UNL     1      -6.125  -0.348  24.497  0.00  0.00    +0.122 HD
BRANCH   5  15
ATOM     15  C   UNL     1      -4.453  -0.281  25.647  0.00  0.00    +0.116 C 
BRANCH  15  17
ATOM     17  C   UNL     1      -3.351  -1.156  25.109  0.00  0.00    -0.030 A 
ATOM     20  C   UNL     1      -2.047  -0.667  25.032  0.00  0.00    +0.050 A 
ATOM     21  C   UNL     1      -3.635  -2.455  24.689  0.00  0.00    +0.005 A 
ATOM     22  C   UNL     1      -1.027  -1.478  24.536  0.00  0.00    +0.120 A 
ATOM     23  C   UNL     1      -2.615  -3.266  24.192  0.00  0.00    +0.004 A 
ATOM     26  C   UNL     1      -1.310  -2.777  24.116  0.00  0.00    +0.045 A 
BRANCH  22   4
ATOM      4  O   UNL     1       0.245  -1.000  24.460  0.00  0.00    -0.495 OA
ATOM     30  C   UNL     1       0.729  -0.642  23.166  0.00  0.00    +0.277 C 
ENDBRANCH  22   4
ENDBRANCH  15  17
ENDBRANCH   5  15
ENDBRANCH  12   5
ENDBRANCH   7  12
BRANCH   9  13
ATOM     13  C   UNL     1      -1.903   3.030  23.274  0.00  0.00    +0.090 C 
BRANCH  13  14
ATOM      3  O   UNL     1       0.944   2.041  25.250  0.00  0.00    -0.354 OA
ATOM      6  N   UNL     1       0.242   2.109  24.052  0.00  0.00    -0.083 NA
ATOM     14  C   UNL     1      -0.882   2.765  24.348  0.00  0.00    +0.087 A 
ATOM     16  C   UNL     1      -0.945   3.134  25.703  0.00  0.00    +0.076 A 
ATOM     18  C   UNL     1       0.227   2.655  26.225  0.00  0.00    +0.167 A 
BRANCH  18  19
ATOM     19  C   UNL     1       0.829   2.666  27.526  0.00  0.00    +0.020 A 
ATOM     24  C   UNL     1       2.189   2.947  27.663  0.00  0.00    +0.011 A 
ATOM     25  C   UNL     1       0.057   2.394  28.655  0.00  0.00    +0.011 A 
ATOM     27  C   UNL     1       2.776   2.957  28.927  0.00  0.00    +0.001 A 
ATOM     28  C   UNL     1       0.644   2.404  29.921  0.00  0.00    +0.001 A 
ATOM     29  C   UNL     1       2.003   2.686  30.057  0.00  0.00    +0.000 A 
ENDBRANCH  18  19
ENDBRANCH  13  14
ENDBRANCH   9  13
TORSDOF 9
ENDMDL
MODEL 8
REMARK VINA RESULT:       0.1      2.028      7.099
REMARK  Name = 75536320
REMARK  10 active torsions:
REMARK  status: ('A' for Active; 'I' for Inactive)
REMARK    1  A    between atoms: O_2  and  C_8
REMARK    2  A    between atoms: O_4  and  C_22
REMARK    3  A    between atoms: O_4  and  C_30
REMARK    4  A    between atoms: N_5  and  C_12
REMARK    5  A    between atoms: N_5  and  C_15
REMARK    6  A    between atoms: C_7  and  C_12
REMARK    7  A    between atoms: C_9  and  C_13
REMARK    8  A    between atoms: C_13  and  C_14
REMARK    9  A    between atoms: C_15  and  C_17
REMARK   10  A    between atoms: C_18  and  C_19
REMARK                            x       y       z     vdW  Elec       q    Type
REMARK                         _______ _______ _______ _____ _____    ______ ____
ROOT
ATOM      1  O   UNL     1       0.347   0.795  23.310  0.00  0.00    -0.369 OA
ATOM      7  C   UNL     1       0.605  -0.579  22.994  0.00  0.00    +0.161 C 
ATOM      8  C   UNL     1       1.853  -0.725  22.114  0.00  0.00    +0.145 C 
ATOM      9  C   UNL     1       1.432   1.490  23.930  0.00  0.00    +0.125 C 
ATOM     10  C   UNL     1       3.051   0.037  22.674  0.00  0.00    +0.036 C 
ATOM     11  C   UNL     1       2.667   1.471  23.031  0.00  0.00    +0.034 C 
ENDROOT
BRANCH   8   2
ATOM      2  O   UNL     1       1.567  -0.196  20.817  0.00  0.00    -0.389 OA
ATOM     32  H   UNL     1       2.305  -0.436  20.232  0.00  0.00    +0.210 HD
ENDBRANCH   8   2
BRANCH   7  12
ATOM     12  C   UNL     1       0.663  -1.434  24.259  0.00  0.00    +0.115 C 
BRANCH  12   5
ATOM      5  N   UNL     1       0.101  -0.719  25.394  0.00  0.00    -0.309 NA
ATOM     31  H   UNL     1       0.825  -0.590  26.103  0.00  0.00    +0.122 HD
BRANCH   5  15
ATOM     15  C   UNL     1      -1.005  -1.463  25.984  0.00  0.00    +0.116 C 
BRANCH  15  17
ATOM     17  C   UNL     1      -2.241  -1.404  25.127  0.00  0.00    -0.030 A 
ATOM     20  C   UNL     1      -2.563  -0.231  24.445  0.00  0.00    +0.050 A 
ATOM     21  C   UNL     1      -3.064  -2.525  25.013  0.00  0.00    +0.005 A 
ATOM     22  C   UNL     1      -3.706  -0.177  23.650  0.00  0.00    +0.120 A 
ATOM     23  C   UNL     1      -4.208  -2.472  24.218  0.00  0.00    +0.004 A 
ATOM     26  C   UNL     1      -4.530  -1.298  23.536  0.00  0.00    +0.045 A 
BRANCH  22   4
ATOM      4  O   UNL     1      -4.020   0.968  22.985  0.00  0.00    -0.495 OA
ATOM     30  C   UNL     1      -2.968   1.612  22.269  0.00  0.00    +0.277 C 
ENDBRANCH  22   4
ENDBRANCH  15  17
ENDBRANCH   5  15
ENDBRANCH  12   5
ENDBRANCH   7  12
BRANCH   9  13
ATOM     13  C   UNL     1       0.971   2.920  24.189  0.00  0.00    +0.090 C 
BRANCH  13  14
ATOM      3  O   UNL     1      -1.821   2.798  26.466  0.00  0.00    -0.354 OA
ATOM      6  N   UNL     1      -0.468   2.669  26.169  0.00  0.00    -0.083 NA
ATOM     14  C   UNL     1      -0.371   2.958  24.869  0.00  0.00    +0.087 A 
ATOM     16  C   UNL     1      -1.616   3.276  24.297  0.00  0.00    +0.076 A 
ATOM     18  C   UNL     1      -2.492   3.160  25.343  0.00  0.00    +0.167 A 
BRANCH  18  19
ATOM     19  C   UNL     1      -3.908   3.335  25.495  0.00  0.00    +0.020 A 
ATOM     24  C   UNL     1      -4.718   2.239  25.789  0.00  0.00    +0.011 A 
ATOM     25  C   UNL     1      -4.474   4.601  25.348  0.00  0.00    +0.011 A 
ATOM     27  C   UNL     1      -6.094   2.407  25.937  0.00  0.00    +0.001 A 
ATOM     28  C   UNL     1      -5.851   4.770  25.495  0.00  0.00    +0.001 A 
ATOM     29  C   UNL     1      -6.661   3.674  25.789  0.00  0.00    +0.000 A 
ENDBRANCH  18  19
ENDBRANCH  13  14
ENDBRANCH   9  13
TORSDOF 9
ENDMDL
MODEL 9
REMARK VINA RESULT:       0.2      1.498      2.632
REMARK  Name = 75536320
REMARK  10 active torsions:
REMARK  status: ('A' for Active; 'I' for Inactive)
REMARK    1  A    between atoms: O_2  and  C_8
REMARK    2  A    between atoms: O_4  and  C_22
REMARK    3  A    between atoms: O_4  and  C_30
REMARK    4  A    between atoms: N_5  and  C_12
REMARK    5  A    between atoms: N_5  and  C_15
REMARK    6  A    between atoms: C_7  and  C_12
REMARK    7  A    between atoms: C_9  and  C_13
REMARK    8  A    between atoms: C_13  and  C_14
REMARK    9  A    between atoms: C_15  and  C_17
REMARK   10  A    between atoms: C_18  and  C_19
REMARK                            x       y       z     vdW  Elec       q    Type
REMARK                         _______ _______ _______ _____ _____    ______ ____
ROOT
ATOM      1  O   UNL     1      -1.886  -1.163  23.515  0.00  0.00    -0.369 OA
ATOM      7  C   UNL     1      -2.565  -2.160  24.289  0.00  0.00    +0.161 C 
ATOM      8  C   UNL     1      -1.962  -2.282  25.695  0.00  0.00    +0.145 C 
ATOM      9  C   UNL     1      -1.834   0.136  24.109  0.00  0.00    +0.125 C 
ATOM     10  C   UNL     1      -1.816  -0.928  26.384  0.00  0.00    +0.036 C 
ATOM     11  C   UNL     1      -1.133   0.081  25.465  0.00  0.00    +0.034 C 
ENDROOT
BRANCH   8   2
ATOM      2  O   UNL     1      -0.659  -2.860  25.588  0.00  0.00    -0.389 OA
ATOM     32  H   UNL     1      -0.403  -3.174  26.473  0.00  0.00    +0.210 HD
ENDBRANCH   8   2
BRANCH   7  12
ATOM     12  C   UNL     1      -4.072  -1.914  24.306  0.00  0.00    +0.115 C 
BRANCH  12   5
ATOM      5  N   UNL     1      -4.394  -0.725  25.080  0.00  0.00    -0.309 NA
ATOM     31  H   UNL     1      -4.897  -0.999  25.925  0.00  0.00    +0.122 HD
BRANCH   5  15
ATOM     15  C   UNL     1      -5.232   0.188  24.312  0.00  0.00    +0.116 C 
BRANCH  15  17
ATOM     17  C   UNL     1      -5.081   1.612  24.776  0.00  0.00    -0.030 A 
ATOM     20  C   UNL     1      -3.898   2.307  24.524  0.00  0.00    +0.050 A 
ATOM     21  C   UNL     1      -6.125   2.238  25.457  0.00  0.00    +0.005 A 
ATOM     22  C   UNL     1      -3.759   3.626  24.952  0.00  0.00    +0.120 A 
ATOM     23  C   UNL     1      -5.987   3.557  25.886  0.00  0.00    +0.004 A 
ATOM     26  C   UNL     1      -4.803   4.252  25.634  0.00  0.00    +0.045 A 
BRANCH  22   4
ATOM      4  O   UNL     1      -2.605   4.304  24.706  0.00  0.00    -0.495 OA
ATOM     30  C   UNL     1      -1.430   3.850  25.378  0.00  0.00    +0.277 C 
ENDBRANCH  22   4
ENDBRANCH  15  17
ENDBRANCH   5  15
ENDBRANCH  12   5
ENDBRANCH   7  12
BRANCH   9  13
ATOM     13  C   UNL     1      -1.084   1.050  23.147  0.00  0.00    +0.090 C 
BRANCH  13  14
ATOM      3  O   UNL     1       1.993  -0.323  21.867  0.00  0.00    -0.354 OA
ATOM      6  N   UNL     1       0.642  -0.016  21.754  0.00  0.00    -0.083 NA
ATOM     14  C   UNL     1       0.324   0.573  22.909  0.00  0.00    +0.087 A 
ATOM     16  C   UNL     1       1.422   0.667  23.781  0.00  0.00    +0.076 A 
ATOM     18  C   UNL     1       2.445   0.089  23.079  0.00  0.00    +0.167 A 
BRANCH  18  19
ATOM     19  C   UNL     1       3.833  -0.161  23.341  0.00  0.00    +0.020 A 
ATOM     24  C   UNL     1       4.771   0.856  23.159  0.00  0.00    +0.011 A 
ATOM     25  C   UNL     1       4.245  -1.420  23.777  0.00  0.00    +0.011 A 
ATOM     27  C   UNL     1       6.120   0.614  23.413  0.00  0.00    +0.001 A 
ATOM     28  C   UNL     1       5.595  -1.662  24.032  0.00  0.00    +0.001 A 
ATOM     29  C   UNL     1       6.533  -0.645  23.849  0.00  0.00    +0.000 A 
ENDBRANCH  18  19
ENDBRANCH  13  14
ENDBRANCH   9  13
TORSDOF 9
ENDMDL
MODEL 10
REMARK VINA RESULT:       0.8      2.994      3.944
REMARK  Name = 75536320
REMARK  10 active torsions:
REMARK  status: ('A' for Active; 'I' for Inactive)
REMARK    1  A    between atoms: O_2  and  C_8
REMARK    2  A    between atoms: O_4  and  C_22
REMARK    3  A    between atoms: O_4  and  C_30
REMARK    4  A    between atoms: N_5  and  C_12
REMARK    5  A    between atoms: N_5  and  C_15
REMARK    6  A    between atoms: C_7  and  C_12
REMARK    7  A    between atoms: C_9  and  C_13
REMARK    8  A    between atoms: C_13  and  C_14
REMARK    9  A    between atoms: C_15  and  C_17
REMARK   10  A    between atoms: C_18  and  C_19
REMARK                            x       y       z     vdW  Elec       q    Type
REMARK                         _______ _______ _______ _____ _____    ______ ____
ROOT
ATOM      1  O   UNL     1      -3.583   0.041  23.669  0.00  0.00    -0.369 OA
ATOM      7  C   UNL     1      -4.742  -0.641  24.168  0.00  0.00    +0.161 C 
ATOM      8  C   UNL     1      -4.508  -2.155  24.247  0.00  0.00    +0.145 C 
ATOM      9  C   UNL     1      -2.376  -0.203  24.395  0.00  0.00    +0.125 C 
ATOM     10  C   UNL     1      -3.205  -2.505  24.960  0.00  0.00    +0.036 C 
ATOM     11  C   UNL     1      -2.040  -1.694  24.399  0.00  0.00    +0.034 C 
ENDROOT
BRANCH   8   2
ATOM      2  O   UNL     1      -4.434  -2.680  22.920  0.00  0.00    -0.389 OA
ATOM     32  H   UNL     1      -3.765  -3.385  22.919  0.00  0.00    +0.210 HD
ENDBRANCH   8   2
BRANCH   7  12
ATOM     12  C   UNL     1      -5.207  -0.038  25.492  0.00  0.00    +0.115 C 
BRANCH  12   5
ATOM      5  N   UNL     1      -6.219   0.983  25.270  0.00  0.00    -0.309 NA
ATOM     31  H   UNL     1      -6.347   1.118  24.266  0.00  0.00    +0.122 HD
BRANCH   5  15
ATOM     15  C   UNL     1      -5.820   2.252  25.865  0.00  0.00    +0.116 C 
BRANCH  15  17
ATOM     17  C   UNL     1      -4.710   2.910  25.090  0.00  0.00    -0.030 A 
ATOM     20  C   UNL     1      -3.694   3.588  25.764  0.00  0.00    +0.050 A 
ATOM     21  C   UNL     1      -4.696   2.842  23.697  0.00  0.00    +0.005 A 
ATOM     22  C   UNL     1      -2.665   4.197  25.046  0.00  0.00    +0.120 A 
ATOM     23  C   UNL     1      -3.668   3.450  22.978  0.00  0.00    +0.004 A 
ATOM     26  C   UNL     1      -2.652   4.128  23.653  0.00  0.00    +0.045 A 
BRANCH  22   4
ATOM      4  O   UNL     1      -1.675   4.858  25.704  0.00  0.00    -0.495 OA
ATOM     30  C   UNL     1      -0.806   5.674  24.919  0.00  0.00    +0.277 C 
ENDBRANCH  22   4
ENDBRANCH  15  17
ENDBRANCH   5  15
ENDBRANCH  12   5
ENDBRANCH   7  12
BRANCH   9  13
ATOM     13  C   UNL     1      -1.268   0.601  23.723  0.00  0.00    +0.090 C 
BRANCH  13  14
ATOM      3  O   UNL     1       0.964   2.816  25.484  0.00  0.00    -0.354 OA
ATOM      6  N   UNL     1       0.360   2.346  24.324  0.00  0.00    -0.083 NA
ATOM     14  C   UNL     1      -0.440   1.356  24.728  0.00  0.00    +0.087 A 
ATOM     16  C   UNL     1      -0.385   1.158  26.119  0.00  0.00    +0.076 A 
ATOM     18  C   UNL     1       0.512   2.101  26.546  0.00  0.00    +0.167 A 
BRANCH  18  19
ATOM     19  C   UNL     1       1.049   2.476  27.821  0.00  0.00    +0.020 A 
ATOM     24  C   UNL     1       0.268   2.353  28.971  0.00  0.00    +0.011 A 
ATOM     25  C   UNL     1       2.352   2.965  27.913  0.00  0.00    +0.011 A 
ATOM     27  C   UNL     1       0.788   2.719  30.211  0.00  0.00    +0.001 A 
ATOM     28  C   UNL     1       2.873   3.331  29.155  0.00  0.00    +0.001 A 
ATOM     29  C   UNL     1       2.092   3.208  30.304  0.00  0.00    +0.000 A 
ENDBRANCH  18  19
ENDBRANCH  13  14
ENDBRANCH   9  13
TORSDOF 9
ENDMDL
