MODEL 1
REMARK VINA RESULT:      -4.6      0.000      0.000
REMARK  Name = 26743454
REMARK  7 active torsions:
REMARK  status: ('A' for Active; 'I' for Inactive)
REMARK    1  A    between atoms: S_1  and  C_19
REMARK    2  A    between atoms: S_1  and  C_21
REMARK    3  A    between atoms: O_3  and  C_13
REMARK    4  A    between atoms: N_7  and  C_15
REMARK    5  A    between atoms: C_11  and  C_16
REMARK    6  A    between atoms: C_15  and  C_17
REMARK    7  A    between atoms: C_18  and  C_19
REMARK                            x       y       z     vdW  Elec       q    Type
REMARK                         _______ _______ _______ _____ _____    ______ ____
ROOT
ATOM      4  O   UNL     1      -2.083   1.916  25.573  0.00  0.00    -0.336 OA
ATOM      8  N   UNL     1      -1.624   2.231  23.403  0.00  0.00    -0.193 NA
ATOM      9  N   UNL     1      -0.710   1.682  25.428  0.00  0.00    -0.060 NA
ATOM     16  C   UNL     1      -2.544   2.233  24.335  0.00  0.00    +0.245 A 
ATOM     18  C   UNL     1      -0.516   1.887  24.121  0.00  0.00    +0.193 A 
ENDROOT
BRANCH  16  11
ATOM      7  N   UNL     1      -4.861   1.579  24.967  0.00  0.00    -0.283 NA
ATOM     11  C   UNL     1      -4.022   2.539  24.222  0.00  0.00    +0.149 C 
ATOM     12  C   UNL     1      -4.392   3.918  24.803  0.00  0.00    +0.061 C 
ATOM     13  C   UNL     1      -5.477   3.633  25.834  0.00  0.00    +0.130 C 
ATOM     14  C   UNL     1      -6.059   2.308  25.380  0.00  0.00    +0.117 C 
BRANCH  13   3
ATOM      3  O   UNL     1      -6.449   4.660  25.837  0.00  0.00    -0.390 OA
ATOM     30  H   UNL     1      -6.783   4.749  24.929  0.00  0.00    +0.210 HD
ENDBRANCH  13   3
BRANCH   7  15
ATOM     15  C   UNL     1      -5.184   0.383  24.199  0.00  0.00    +0.140 C 
BRANCH  15  17
ATOM     10  N   UNL     1      -3.700  -0.699  25.794  0.00  0.00    -0.259 NA
ATOM     17  C   UNL     1      -4.331  -0.790  24.602  0.00  0.00    +0.055 A 
ATOM     20  C   UNL     1      -4.234  -1.881  23.753  0.00  0.00    +0.024 A 
ATOM     22  C   UNL     1      -3.439  -2.949  24.156  0.00  0.00    +0.003 A 
ATOM     23  C   UNL     1      -2.937  -1.756  26.151  0.00  0.00    +0.111 A 
ATOM     24  C   UNL     1      -2.774  -2.893  25.375  0.00  0.00    +0.020 A 
ENDBRANCH  15  17
ENDBRANCH   7  15
ENDBRANCH  16  11
BRANCH  18  19
ATOM     19  C   UNL     1       0.806   1.750  23.501  0.00  0.00    +0.251 C 
BRANCH  19   1
ATOM      1  S   UNL     1       1.096   0.036  23.156  0.00  0.00    +0.004 S 
ATOM      5  O   UNL     1       0.711  -0.203  21.778  0.00  0.00    -0.169 OA
ATOM      6  O   UNL     1       0.522  -0.754  24.229  0.00  0.00    -0.169 OA
BRANCH   1  21
ATOM      2  F   UNL     1       6.954  -0.510  23.542  0.00  0.00    -0.205 F 
ATOM     21  C   UNL     1       2.851  -0.128  23.271  0.00  0.00    +0.089 A 
ATOM     25  C   UNL     1       3.413  -1.331  23.700  0.00  0.00    +0.030 A 
ATOM     26  C   UNL     1       3.676   0.946  22.934  0.00  0.00    +0.030 A 
ATOM     27  C   UNL     1       4.799  -1.460  23.791  0.00  0.00    +0.040 A 
ATOM     28  C   UNL     1       5.061   0.817  23.025  0.00  0.00    +0.040 A 
ATOM     29  C   UNL     1       5.623  -0.386  23.454  0.00  0.00    +0.124 A 
ENDBRANCH   1  21
ENDBRANCH  19   1
ENDBRANCH  18  19
TORSDOF 7
ENDMDL
MODEL 2
REMARK VINA RESULT:      -2.8      3.256      6.276
REMARK  Name = 26743454
REMARK  7 active torsions:
REMARK  status: ('A' for Active; 'I' for Inactive)
REMARK    1  A    between atoms: S_1  and  C_19
REMARK    2  A    between atoms: S_1  and  C_21
REMARK    3  A    between atoms: O_3  and  C_13
REMARK    4  A    between atoms: N_7  and  C_15
REMARK    5  A    between atoms: C_11  and  C_16
REMARK    6  A    between atoms: C_15  and  C_17
REMARK    7  A    between atoms: C_18  and  C_19
REMARK                            x       y       z     vdW  Elec       q    Type
REMARK                         _______ _______ _______ _____ _____    ______ ____
ROOT
ATOM      4  O   UNL     1      -0.663   4.071  25.008  0.00  0.00    -0.336 OA
ATOM      8  N   UNL     1      -2.019   2.739  26.193  0.00  0.00    -0.193 NA
ATOM      9  N   UNL     1      -1.763   4.859  25.371  0.00  0.00    -0.060 NA
ATOM     16  C   UNL     1      -0.893   2.839  25.532  0.00  0.00    +0.245 A 
ATOM     18  C   UNL     1      -2.517   4.003  26.067  0.00  0.00    +0.193 A 
ENDROOT
BRANCH  16  11
ATOM      7  N   UNL     1      -0.394   0.529  24.750  0.00  0.00    -0.283 NA
ATOM     11  C   UNL     1       0.167   1.788  25.279  0.00  0.00    +0.149 C 
ATOM     12  C   UNL     1       1.205   2.228  24.229  0.00  0.00    +0.061 C 
ATOM     13  C   UNL     1       1.186   1.131  23.172  0.00  0.00    +0.130 C 
ATOM     14  C   UNL     1       0.648  -0.073  23.921  0.00  0.00    +0.117 C 
BRANCH  13   3
ATOM      3  O   UNL     1       2.487   0.898  22.668  0.00  0.00    -0.390 OA
ATOM     30  H   UNL     1       3.070   0.733  23.428  0.00  0.00    +0.210 HD
ENDBRANCH  13   3
BRANCH   7  15
ATOM     15  C   UNL     1      -0.856  -0.378  25.794  0.00  0.00    +0.140 C 
BRANCH  15  17
ATOM     10  N   UNL     1      -1.486  -2.326  24.481  0.00  0.00    -0.259 NA
ATOM     17  C   UNL     1      -1.909  -1.327  25.287  0.00  0.00    +0.055 A 
ATOM     20  C   UNL     1      -3.229  -1.138  25.663  0.00  0.00    +0.024 A 
ATOM     22  C   UNL     1      -4.177  -2.034  25.178  0.00  0.00    +0.003 A 
ATOM     23  C   UNL     1      -2.435  -3.176  24.030  0.00  0.00    +0.111 A 
ATOM     24  C   UNL     1      -3.781  -3.074  24.346  0.00  0.00    +0.020 A 
ENDBRANCH  15  17
ENDBRANCH   7  15
ENDBRANCH  16  11
BRANCH  18  19
ATOM     19  C   UNL     1      -3.800   4.401  26.657  0.00  0.00    +0.251 C 
BRANCH  19   1
ATOM      1  S   UNL     1      -5.108   3.635  25.739  0.00  0.00    +0.004 S 
ATOM      5  O   UNL     1      -6.013   4.685  25.310  0.00  0.00    -0.169 OA
ATOM      6  O   UNL     1      -5.601   2.501  26.496  0.00  0.00    -0.169 OA
BRANCH   1  21
ATOM      2  F   UNL     1      -2.405   1.487  20.959  0.00  0.00    -0.205 F 
ATOM     21  C   UNL     1      -4.299   2.991  24.306  0.00  0.00    +0.089 A 
ATOM     25  C   UNL     1      -3.965   1.638  24.243  0.00  0.00    +0.030 A 
ATOM     26  C   UNL     1      -3.993   3.836  23.239  0.00  0.00    +0.030 A 
ATOM     27  C   UNL     1      -3.325   1.130  23.112  0.00  0.00    +0.040 A 
ATOM     28  C   UNL     1      -3.354   3.328  22.108  0.00  0.00    +0.040 A 
ATOM     29  C   UNL     1      -3.020   1.974  22.044  0.00  0.00    +0.124 A 
ENDBRANCH   1  21
ENDBRANCH  19   1
ENDBRANCH  18  19
TORSDOF 7
ENDMDL
MODEL 3
REMARK VINA RESULT:      -1.7      3.297      4.065
REMARK  Name = 26743454
REMARK  7 active torsions:
REMARK  status: ('A' for Active; 'I' for Inactive)
REMARK    1  A    between atoms: S_1  and  C_19
REMARK    2  A    between atoms: S_1  and  C_21
REMARK    3  A    between atoms: O_3  and  C_13
REMARK    4  A    between atoms: N_7  and  C_15
REMARK    5  A    between atoms: C_11  and  C_16
REMARK    6  A    between atoms: C_15  and  C_17
REMARK    7  A    between atoms: C_18  and  C_19
REMARK                            x       y       z     vdW  Elec       q    Type
REMARK                         _______ _______ _______ _____ _____    ______ ____
ROOT
ATOM      4  O   UNL     1      -3.325   2.465  21.993  0.00  0.00    -0.336 OA
ATOM      8  N   UNL     1      -2.513   1.206  23.659  0.00  0.00    -0.193 NA
ATOM      9  N   UNL     1      -2.059   2.034  21.574  0.00  0.00    -0.060 NA
ATOM     16  C   UNL     1      -3.513   1.933  23.229  0.00  0.00    +0.245 A 
ATOM     18  C   UNL     1      -1.645   1.297  22.610  0.00  0.00    +0.193 A 
ENDROOT
BRANCH  16  11
ATOM      7  N   UNL     1      -4.965   1.593  25.222  0.00  0.00    -0.283 NA
ATOM     11  C   UNL     1      -4.828   2.253  23.909  0.00  0.00    +0.149 C 
ATOM     12  C   UNL     1      -4.996   3.756  24.204  0.00  0.00    +0.061 C 
ATOM     13  C   UNL     1      -5.268   3.835  25.701  0.00  0.00    +0.130 C 
ATOM     14  C   UNL     1      -5.815   2.461  26.035  0.00  0.00    +0.117 C 
BRANCH  13   3
ATOM      3  O   UNL     1      -6.204   4.856  25.987  0.00  0.00    -0.390 OA
ATOM     30  H   UNL     1      -5.909   5.660  25.527  0.00  0.00    +0.210 HD
ENDBRANCH  13   3
BRANCH   7  15
ATOM     15  C   UNL     1      -5.493   0.237  25.131  0.00  0.00    +0.140 C 
BRANCH  15  17
ATOM     10  N   UNL     1      -3.424  -0.745  25.951  0.00  0.00    -0.259 NA
ATOM     17  C   UNL     1      -4.395  -0.786  25.011  0.00  0.00    +0.055 A 
ATOM     20  C   UNL     1      -4.430  -1.699  23.969  0.00  0.00    +0.024 A 
ATOM     22  C   UNL     1      -3.401  -2.631  23.888  0.00  0.00    +0.003 A 
ATOM     23  C   UNL     1      -2.442  -1.667  25.838  0.00  0.00    +0.111 A 
ATOM     24  C   UNL     1      -2.385  -2.621  24.835  0.00  0.00    +0.020 A 
ENDBRANCH  15  17
ENDBRANCH   7  15
ENDBRANCH  16  11
BRANCH  18  19
ATOM     19  C   UNL     1      -0.339   0.630  22.615  0.00  0.00    +0.251 C 
BRANCH  19   1
ATOM      1  S   UNL     1       0.518   1.072  24.102  0.00  0.00    +0.004 S 
ATOM      5  O   UNL     1       1.893   1.366  23.743  0.00  0.00    -0.169 OA
ATOM      6  O   UNL     1       0.217   0.083  25.119  0.00  0.00    -0.169 OA
BRANCH   1  21
ATOM      2  F   UNL     1      -2.055   6.110  25.765  0.00  0.00    -0.205 F 
ATOM     21  C   UNL     1      -0.253   2.582  24.601  0.00  0.00    +0.089 A 
ATOM     25  C   UNL     1      -1.094   2.601  25.714  0.00  0.00    +0.030 A 
ATOM     26  C   UNL     1      -0.021   3.754  23.881  0.00  0.00    +0.030 A 
ATOM     27  C   UNL     1      -1.702   3.793  26.108  0.00  0.00    +0.040 A 
ATOM     28  C   UNL     1      -0.629   4.946  24.274  0.00  0.00    +0.040 A 
ATOM     29  C   UNL     1      -1.470   4.966  25.388  0.00  0.00    +0.124 A 
ENDBRANCH   1  21
ENDBRANCH  19   1
ENDBRANCH  18  19
TORSDOF 7
ENDMDL
MODEL 4
REMARK VINA RESULT:      -1.5     14.853     16.753
REMARK  Name = 26743454
REMARK  7 active torsions:
REMARK  status: ('A' for Active; 'I' for Inactive)
REMARK    1  A    between atoms: S_1  and  C_19
REMARK    2  A    between atoms: S_1  and  C_21
REMARK    3  A    between atoms: O_3  and  C_13
REMARK    4  A    between atoms: N_7  and  C_15
REMARK    5  A    between atoms: C_11  and  C_16
REMARK    6  A    between atoms: C_15  and  C_17
REMARK    7  A    between atoms: C_18  and  C_19
REMARK                            x       y       z     vdW  Elec       q    Type
REMARK                         _______ _______ _______ _____ _____    ______ ____
ROOT
ATOM      4  O   UNL     1      -6.569  -8.915  11.604  0.00  0.00    -0.336 OA
ATOM      8  N   UNL     1      -6.008 -10.486  10.109  0.00  0.00    -0.193 NA
ATOM      9  N   UNL     1      -5.221  -9.215  11.841  0.00  0.00    -0.060 NA
ATOM     16  C   UNL     1      -6.954  -9.707  10.570  0.00  0.00    +0.245 A 
ATOM     18  C   UNL     1      -4.964 -10.149  10.920  0.00  0.00    +0.193 A 
ENDROOT
BRANCH  16  11
ATOM      7  N   UNL     1      -9.261  -8.967  11.141  0.00  0.00    -0.283 NA
ATOM     11  C   UNL     1      -8.390  -9.570  10.112  0.00  0.00    +0.149 C 
ATOM     12  C   UNL     1      -8.539  -8.652   8.883  0.00  0.00    +0.061 C 
ATOM     13  C   UNL     1      -9.547  -7.590   9.305  0.00  0.00    +0.130 C 
ATOM     14  C   UNL     1     -10.320  -8.259  10.425  0.00  0.00    +0.117 C 
BRANCH  13   3
ATOM      3  O   UNL     1     -10.387  -7.238   8.223  0.00  0.00    -0.390 OA
ATOM     30  H   UNL     1      -9.861  -6.702   7.606  0.00  0.00    +0.210 HD
ENDBRANCH  13   3
BRANCH   7  15
ATOM     15  C   UNL     1      -9.793  -9.942  12.085  0.00  0.00    +0.140 C 
BRANCH  15  17
ATOM     10  N   UNL     1     -10.637  -8.693  13.995  0.00  0.00    -0.259 NA
ATOM     17  C   UNL     1      -9.649  -9.478  13.510  0.00  0.00    +0.055 A 
ATOM     20  C   UNL     1      -8.539  -9.870  14.242  0.00  0.00    +0.024 A 
ATOM     22  C   UNL     1      -8.438  -9.425  15.556  0.00  0.00    +0.003 A 
ATOM     23  C   UNL     1     -10.503  -8.281  15.275  0.00  0.00    +0.111 A 
ATOM     24  C   UNL     1      -9.433  -8.616  16.089  0.00  0.00    +0.020 A 
ENDBRANCH  15  17
ENDBRANCH   7  15
ENDBRANCH  16  11
BRANCH  18  19
ATOM     19  C   UNL     1      -3.641 -10.770  10.792  0.00  0.00    +0.251 C 
BRANCH  19   1
ATOM      1  S   UNL     1      -2.429  -9.666  11.465  0.00  0.00    +0.004 S 
ATOM      5  O   UNL     1      -2.907  -8.311  11.254  0.00  0.00    -0.169 OA
ATOM      6  O   UNL     1      -1.121 -10.068  10.985  0.00  0.00    -0.169 OA
BRANCH   1  21
ATOM      2  F   UNL     1      -2.570 -10.777  17.254  0.00  0.00    -0.205 F 
ATOM     21  C   UNL     1      -2.471  -9.998  13.200  0.00  0.00    +0.089 A 
ATOM     25  C   UNL     1      -1.345  -9.750  13.986  0.00  0.00    +0.030 A 
ATOM     26  C   UNL     1      -3.631 -10.509  13.784  0.00  0.00    +0.030 A 
ATOM     27  C   UNL     1      -1.379 -10.013  15.355  0.00  0.00    +0.040 A 
ATOM     28  C   UNL     1      -3.664 -10.771  15.153  0.00  0.00    +0.040 A 
ATOM     29  C   UNL     1      -2.538 -10.524  15.939  0.00  0.00    +0.124 A 
ENDBRANCH   1  21
ENDBRANCH  19   1
ENDBRANCH  18  19
TORSDOF 7
ENDMDL
MODEL 5
REMARK VINA RESULT:      -1.1      3.011      6.386
REMARK  Name = 26743454
REMARK  7 active torsions:
REMARK  status: ('A' for Active; 'I' for Inactive)
REMARK    1  A    between atoms: S_1  and  C_19
REMARK    2  A    between atoms: S_1  and  C_21
REMARK    3  A    between atoms: O_3  and  C_13
REMARK    4  A    between atoms: N_7  and  C_15
REMARK    5  A    between atoms: C_11  and  C_16
REMARK    6  A    between atoms: C_15  and  C_17
REMARK    7  A    between atoms: C_18  and  C_19
REMARK                            x       y       z     vdW  Elec       q    Type
REMARK                         _______ _______ _______ _____ _____    ______ ____
ROOT
ATOM      4  O   UNL     1      -2.025   1.415  22.922  0.00  0.00    -0.336 OA
ATOM      8  N   UNL     1      -2.750   1.067  25.013  0.00  0.00    -0.193 NA
ATOM      9  N   UNL     1      -3.406   1.646  22.899  0.00  0.00    -0.060 NA
ATOM     16  C   UNL     1      -1.722   1.079  24.203  0.00  0.00    +0.245 A 
ATOM     18  C   UNL     1      -3.761   1.421  24.168  0.00  0.00    +0.193 A 
ENDROOT
BRANCH  16  11
ATOM      7  N   UNL     1       0.168  -0.521  23.948  0.00  0.00    -0.283 NA
ATOM     11  C   UNL     1      -0.267   0.779  24.496  0.00  0.00    +0.149 C 
ATOM     12  C   UNL     1       0.692   1.810  23.871  0.00  0.00    +0.061 C 
ATOM     13  C   UNL     1       1.656   0.989  23.024  0.00  0.00    +0.130 C 
ATOM     14  C   UNL     1       1.593  -0.390  23.651  0.00  0.00    +0.117 C 
BRANCH  13   3
ATOM      3  O   UNL     1       2.961   1.532  23.079  0.00  0.00    -0.390 OA
ATOM     30  H   UNL     1       3.538   0.961  22.545  0.00  0.00    +0.210 HD
ENDBRANCH  13   3
BRANCH   7  15
ATOM     15  C   UNL     1      -0.107  -1.641  24.840  0.00  0.00    +0.140 C 
BRANCH  15  17
ATOM     10  N   UNL     1      -2.310  -1.671  25.871  0.00  0.00    -0.259 NA
ATOM     17  C   UNL     1      -1.558  -2.040  24.810  0.00  0.00    +0.055 A 
ATOM     20  C   UNL     1      -2.045  -2.746  23.721  0.00  0.00    +0.024 A 
ATOM     22  C   UNL     1      -3.390  -3.097  23.724  0.00  0.00    +0.003 A 
ATOM     23  C   UNL     1      -3.612  -2.031  25.838  0.00  0.00    +0.111 A 
ATOM     24  C   UNL     1      -4.195  -2.737  24.798  0.00  0.00    +0.020 A 
ENDBRANCH  15  17
ENDBRANCH   7  15
ENDBRANCH  16  11
BRANCH  18  19
ATOM     19  C   UNL     1      -5.150   1.548  24.620  0.00  0.00    +0.251 C 
BRANCH  19   1
ATOM      1  S   UNL     1      -5.293   3.013  25.608  0.00  0.00    +0.004 S 
ATOM      5  O   UNL     1      -5.389   2.597  26.995  0.00  0.00    -0.169 OA
ATOM      6  O   UNL     1      -6.310   3.866  25.024  0.00  0.00    -0.169 OA
BRANCH   1  21
ATOM      2  F   UNL     1      -0.110   5.724  24.866  0.00  0.00    -0.205 F 
ATOM     21  C   UNL     1      -3.740   3.826  25.386  0.00  0.00    +0.089 A 
ATOM     25  C   UNL     1      -3.530   4.636  24.269  0.00  0.00    +0.030 A 
ATOM     26  C   UNL     1      -2.724   3.658  26.327  0.00  0.00    +0.030 A 
ATOM     27  C   UNL     1      -2.304   5.277  24.094  0.00  0.00    +0.040 A 
ATOM     28  C   UNL     1      -1.498   4.299  26.151  0.00  0.00    +0.040 A 
ATOM     29  C   UNL     1      -1.288   5.109  25.035  0.00  0.00    +0.124 A 
ENDBRANCH   1  21
ENDBRANCH  19   1
ENDBRANCH  18  19
TORSDOF 7
ENDMDL
MODEL 6
REMARK VINA RESULT:      -1.1      1.839      3.564
REMARK  Name = 26743454
REMARK  7 active torsions:
REMARK  status: ('A' for Active; 'I' for Inactive)
REMARK    1  A    between atoms: S_1  and  C_19
REMARK    2  A    between atoms: S_1  and  C_21
REMARK    3  A    between atoms: O_3  and  C_13
REMARK    4  A    between atoms: N_7  and  C_15
REMARK    5  A    between atoms: C_11  and  C_16
REMARK    6  A    between atoms: C_15  and  C_17
REMARK    7  A    between atoms: C_18  and  C_19
REMARK                            x       y       z     vdW  Elec       q    Type
REMARK                         _______ _______ _______ _____ _____    ______ ____
ROOT
ATOM      4  O   UNL     1      -3.101  -1.044  24.810  0.00  0.00    -0.336 OA
ATOM      8  N   UNL     1      -1.360   0.349  24.596  0.00  0.00    -0.193 NA
ATOM      9  N   UNL     1      -2.001  -1.844  24.472  0.00  0.00    -0.060 NA
ATOM     16  C   UNL     1      -2.636   0.231  24.862  0.00  0.00    +0.245 A 
ATOM     18  C   UNL     1      -1.013  -0.950  24.362  0.00  0.00    +0.193 A 
ENDROOT
BRANCH  16  11
ATOM      7  N   UNL     1      -4.496   1.685  24.072  0.00  0.00    -0.283 NA
ATOM     11  C   UNL     1      -3.645   1.303  25.217  0.00  0.00    +0.149 C 
ATOM     12  C   UNL     1      -4.633   0.854  26.310  0.00  0.00    +0.061 C 
ATOM     13  C   UNL     1      -6.014   1.062  25.702  0.00  0.00    +0.130 C 
ATOM     14  C   UNL     1      -5.777   2.110  24.633  0.00  0.00    +0.117 C 
BRANCH  13   3
ATOM      3  O   UNL     1      -6.931   1.508  26.682  0.00  0.00    -0.390 OA
ATOM     30  H   UNL     1      -7.816   1.209  26.412  0.00  0.00    +0.210 HD
ENDBRANCH  13   3
BRANCH   7  15
ATOM     15  C   UNL     1      -3.898   2.712  23.229  0.00  0.00    +0.140 C 
BRANCH  15  17
ATOM     10  N   UNL     1      -1.562   3.331  23.512  0.00  0.00    -0.259 NA
ATOM     17  C   UNL     1      -2.830   3.484  23.957  0.00  0.00    +0.055 A 
ATOM     20  C   UNL     1      -3.187   4.296  25.021  0.00  0.00    +0.024 A 
ATOM     22  C   UNL     1      -2.177   4.997  25.671  0.00  0.00    +0.003 A 
ATOM     23  C   UNL     1      -0.608   4.028  24.170  0.00  0.00    +0.111 A 
ATOM     24  C   UNL     1      -0.861   4.865  25.244  0.00  0.00    +0.020 A 
ENDBRANCH  15  17
ENDBRANCH   7  15
ENDBRANCH  16  11
BRANCH  18  19
ATOM     19  C   UNL     1       0.356  -1.344  24.014  0.00  0.00    +0.251 C 
BRANCH  19   1
ATOM      1  S   UNL     1       0.998  -0.183  22.839  0.00  0.00    +0.004 S 
ATOM      5  O   UNL     1       0.495   1.129  23.201  0.00  0.00    -0.169 OA
ATOM      6  O   UNL     1       0.784  -0.711  21.505  0.00  0.00    -0.169 OA
BRANCH   1  21
ATOM      2  F   UNL     1       6.811  -0.246  23.824  0.00  0.00    -0.205 F 
ATOM     21  C   UNL     1       2.740  -0.202  23.133  0.00  0.00    +0.089 A 
ATOM     25  C   UNL     1       3.349  -1.350  23.644  0.00  0.00    +0.030 A 
ATOM     26  C   UNL     1       3.507   0.930  22.856  0.00  0.00    +0.030 A 
ATOM     27  C   UNL     1       4.724  -1.364  23.877  0.00  0.00    +0.040 A 
ATOM     28  C   UNL     1       4.881   0.915  23.089  0.00  0.00    +0.040 A 
ATOM     29  C   UNL     1       5.490  -0.232  23.600  0.00  0.00    +0.124 A 
ENDBRANCH   1  21
ENDBRANCH  19   1
ENDBRANCH  18  19
TORSDOF 7
ENDMDL
MODEL 7
REMARK VINA RESULT:      -0.9      1.678      3.717
REMARK  Name = 26743454
REMARK  7 active torsions:
REMARK  status: ('A' for Active; 'I' for Inactive)
REMARK    1  A    between atoms: S_1  and  C_19
REMARK    2  A    between atoms: S_1  and  C_21
REMARK    3  A    between atoms: O_3  and  C_13
REMARK    4  A    between atoms: N_7  and  C_15
REMARK    5  A    between atoms: C_11  and  C_16
REMARK    6  A    between atoms: C_15  and  C_17
REMARK    7  A    between atoms: C_18  and  C_19
REMARK                            x       y       z     vdW  Elec       q    Type
REMARK                         _______ _______ _______ _____ _____    ______ ____
ROOT
ATOM      4  O   UNL     1      -1.353   1.268  25.937  0.00  0.00    -0.336 OA
ATOM      8  N   UNL     1      -1.007   0.345  23.925  0.00  0.00    -0.193 NA
ATOM      9  N   UNL     1      -0.124   1.767  25.486  0.00  0.00    -0.060 NA
ATOM     16  C   UNL     1      -1.804   0.440  24.959  0.00  0.00    +0.245 A 
ATOM     18  C   UNL     1       0.010   1.176  24.294  0.00  0.00    +0.193 A 
ENDROOT
BRANCH  16  11
ATOM      7  N   UNL     1      -4.230   0.353  24.405  0.00  0.00    -0.283 NA
ATOM     11  C   UNL     1      -3.138  -0.234  25.206  0.00  0.00    +0.149 C 
ATOM     12  C   UNL     1      -3.131  -1.727  24.827  0.00  0.00    +0.061 C 
ATOM     13  C   UNL     1      -4.282  -1.889  23.843  0.00  0.00    +0.130 C 
ATOM     14  C   UNL     1      -5.192  -0.720  24.166  0.00  0.00    +0.117 C 
BRANCH  13   3
ATOM      3  O   UNL     1      -4.933  -3.130  24.032  0.00  0.00    -0.390 OA
ATOM     30  H   UNL     1      -5.217  -3.448  23.158  0.00  0.00    +0.210 HD
ENDBRANCH  13   3
BRANCH   7  15
ATOM     15  C   UNL     1      -4.847   1.513  25.038  0.00  0.00    +0.140 C 
BRANCH  15  17
ATOM     10  N   UNL     1      -3.299   3.007  23.904  0.00  0.00    -0.259 NA
ATOM     17  C   UNL     1      -3.919   2.698  25.064  0.00  0.00    +0.055 A 
ATOM     20  C   UNL     1      -3.750   3.400  26.247  0.00  0.00    +0.024 A 
ATOM     22  C   UNL     1      -2.886   4.491  26.236  0.00  0.00    +0.003 A 
ATOM     23  C   UNL     1      -2.468   4.073  23.933  0.00  0.00    +0.111 A 
ATOM     24  C   UNL     1      -2.230   4.840  25.063  0.00  0.00    +0.020 A 
ENDBRANCH  15  17
ENDBRANCH   7  15
ENDBRANCH  16  11
BRANCH  18  19
ATOM     19  C   UNL     1       1.178   1.411  23.439  0.00  0.00    +0.251 C 
BRANCH  19   1
ATOM      1  S   UNL     1       1.717  -0.143  22.778  0.00  0.00    +0.004 S 
ATOM      5  O   UNL     1       1.593  -0.070  21.333  0.00  0.00    -0.169 OA
ATOM      6  O   UNL     1       1.071  -1.209  23.519  0.00  0.00    -0.169 OA
BRANCH   1  21
ATOM      2  F   UNL     1       7.457  -0.331  24.114  0.00  0.00    -0.205 F 
ATOM     21  C   UNL     1       3.437  -0.200  23.177  0.00  0.00    +0.089 A 
ATOM     25  C   UNL     1       3.996  -1.371  23.690  0.00  0.00    +0.030 A 
ATOM     26  C   UNL     1       4.236   0.927  22.981  0.00  0.00    +0.030 A 
ATOM     27  C   UNL     1       5.353  -1.415  24.006  0.00  0.00    +0.040 A 
ATOM     28  C   UNL     1       5.594   0.882  23.297  0.00  0.00    +0.040 A 
ATOM     29  C   UNL     1       6.153  -0.289  23.810  0.00  0.00    +0.124 A 
ENDBRANCH   1  21
ENDBRANCH  19   1
ENDBRANCH  18  19
TORSDOF 7
ENDMDL
