MODEL 1
REMARK VINA RESULT:      -2.9      0.000      0.000
REMARK  Name = 45784363
REMARK  12 active torsions:
REMARK  status: ('A' for Active; 'I' for Inactive)
REMARK    1  A    between atoms: O_3  and  C_12
REMARK    2  A    between atoms: O_6  and  C_25
REMARK    3  A    between atoms: O_6  and  C_28
REMARK    4  A    between atoms: N_7  and  C_16
REMARK    5  A    between atoms: N_8  and  C_26
REMARK    6  A    between atoms: C_9  and  C_19
REMARK    7  A    between atoms: C_11  and  C_21
REMARK    8  A    between atoms: C_15  and  C_20
REMARK    9  A    between atoms: C_20  and  C_22
REMARK   10  A    between atoms: C_20  and  C_23
REMARK   11  A    between atoms: C_24  and  C_25
REMARK   12  A    between atoms: C_26  and  C_27
REMARK                            x       y       z     vdW  Elec       q    Type
REMARK                         _______ _______ _______ _____ _____    ______ ____
ROOT
ATOM      9  C   UNL     1      -2.317  -1.079  25.156  0.00  0.00    -0.027 C 
ATOM     10  C   UNL     1      -2.344   0.096  24.122  0.00  0.00    +0.028 C 
ATOM     11  C   UNL     1      -0.903   0.683  23.905  0.00  0.00    +0.012 C 
ATOM     12  C   UNL     1      -3.443   1.137  24.481  0.00  0.00    +0.122 C 
ATOM     13  C   UNL     1      -3.726  -1.706  25.262  0.00  0.00    +0.007 C 
ATOM     14  C   UNL     1      -1.351  -2.173  24.649  0.00  0.00    +0.009 C 
ATOM     15  C   UNL     1      -4.832   0.489  24.687  0.00  0.00    +0.029 C 
ATOM     16  C   UNL     1       0.076  -0.442  23.467  0.00  0.00    +0.076 C 
ATOM     17  C   UNL     1      -4.799  -0.696  25.651  0.00  0.00    +0.007 C 
ATOM     18  C   UNL     1       0.058  -1.657  24.394  0.00  0.00    +0.023 C 
ATOM     19  C   UNL     1      -1.870  -0.618  26.567  0.00  0.00    +0.011 C 
ATOM     21  C   UNL     1      -0.853   1.826  22.875  0.00  0.00    +0.010 C 
ENDROOT
BRANCH  16   7
ATOM      5  O   UNL     1       1.753  -0.411  21.112  0.00  0.00    -0.273 OA
ATOM      7  N   UNL     1       1.437   0.041  23.370  0.00  0.00    -0.310 N 
ATOM     24  C   UNL     1       2.160   0.012  22.189  0.00  0.00    +0.239 C 
ATOM     34  H   UNL     1       1.895   0.354  24.222  0.00  0.00    +0.149 HD
BRANCH  24  25
ATOM     25  C   UNL     1       3.552   0.579  22.375  0.00  0.00    +0.255 C 
BRANCH  25   6
ATOM      6  O   UNL     1       4.356  -0.309  23.120  0.00  0.00    -0.374 OA
ATOM     28  C   UNL     1       5.378   0.375  23.840  0.00  0.00    +0.194 C 
ENDBRANCH  25   6
ENDBRANCH  24  25
ENDBRANCH  16   7
BRANCH  12   3
ATOM      3  O   UNL     1      -3.584   2.071  23.409  0.00  0.00    -0.391 OA
ATOM     35  H   UNL     1      -2.800   2.645  23.402  0.00  0.00    +0.210 HD
ENDBRANCH  12   3
BRANCH  15  20
ATOM     20  C   UNL     1      -5.871   1.511  25.167  0.00  0.00    +0.077 C 
ATOM     22  C   UNL     1      -7.044   1.564  24.196  0.00  0.00    +0.017 C 
BRANCH  20  23
ATOM      4  O   UNL     1      -5.443   3.817  24.562  0.00  0.00    -0.276 OA
ATOM      8  N   UNL     1      -4.352   2.935  26.408  0.00  0.00    -0.311 N 
ATOM     23  C   UNL     1      -5.216   2.880  25.325  0.00  0.00    +0.216 C 
ATOM     36  H   UNL     1      -4.258   2.133  27.023  0.00  0.00    +0.149 HD
BRANCH   8  26
ATOM     26  C   UNL     1      -3.614   4.126  26.760  0.00  0.00    +0.139 C 
BRANCH  26  27
ATOM      1  F   UNL     1       0.848   2.206  26.334  0.00  0.00    -0.205 F 
ATOM      2  F   UNL     1      -0.249   6.056  23.805  0.00  0.00    -0.205 F 
ATOM     27  C   UNL     1      -2.236   4.129  26.165  0.00  0.00    -0.025 A 
ATOM     29  C   UNL     1      -1.875   5.112  25.244  0.00  0.00    +0.043 A 
ATOM     30  C   UNL     1      -1.315   3.147  26.533  0.00  0.00    +0.043 A 
ATOM     31  C   UNL     1      -0.035   3.148  25.980  0.00  0.00    +0.126 A 
ATOM     32  C   UNL     1      -0.595   5.114  24.690  0.00  0.00    +0.126 A 
ATOM     33  C   UNL     1       0.325   4.132  25.058  0.00  0.00    +0.076 A 
ENDBRANCH  26  27
ENDBRANCH   8  26
ENDBRANCH  20  23
ENDBRANCH  15  20
TORSDOF 8
ENDMDL
