MODEL 1
REMARK VINA RESULT:       6.9      0.000      0.000
REMARK  Name = 7134361
REMARK  10 active torsions:
REMARK  status: ('A' for Active; 'I' for Inactive)
REMARK    1  A    between atoms: N_7  and  C_13
REMARK    2  A    between atoms: N_8  and  C_21
REMARK    3  A    between atoms: N_9  and  C_30
REMARK    4  A    between atoms: C_14  and  C_18
REMARK    5  A    between atoms: C_19  and  C_20
REMARK    6  A    between atoms: C_21  and  C_23
REMARK    7  A    between atoms: C_21  and  C_26
REMARK    8  A    between atoms: C_22  and  C_25
REMARK    9  A    between atoms: C_23  and  C_28
REMARK   10  A    between atoms: C_31  and  C_34
REMARK                            x       y       z     vdW  Elec       q    Type
REMARK                         _______ _______ _______ _____ _____    ______ ____
ROOT
ATOM      3  O   UNL     1      -2.727  -0.121  26.445  0.00  0.00    -0.268 OA
ATOM      6  N   UNL     1      -1.350   0.211  24.604  0.00  0.00    -0.285 N 
ATOM     13  C   UNL     1       1.229   1.111  23.557  0.00  0.00    +0.077 C 
ATOM     14  C   UNL     1      -0.673   1.346  25.244  0.00  0.00    +0.164 C 
ATOM     15  C   UNL     1       0.836   1.376  25.012  0.00  0.00    +0.054 C 
ATOM     16  C   UNL     1       0.566  -0.172  23.064  0.00  0.00    +0.041 C 
ATOM     17  C   UNL     1      -0.948  -0.110  23.224  0.00  0.00    +0.111 C 
ATOM     19  C   UNL     1      -2.419  -0.415  25.289  0.00  0.00    +0.264 C 
ENDROOT
BRANCH  19  20
ATOM      9  N   UNL     1      -2.720  -2.719  24.359  0.00  0.00    -0.346 N 
ATOM     20  C   UNL     1      -3.167  -1.444  24.575  0.00  0.00    +0.104 A 
ATOM     24  C   UNL     1      -4.413  -1.328  24.003  0.00  0.00    +0.032 A 
ATOM     27  C   UNL     1      -3.663  -3.423  23.659  0.00  0.00    +0.086 A 
ATOM     29  C   UNL     1      -4.728  -2.581  23.423  0.00  0.00    +0.020 A 
ATOM     30  C   UNL     1      -1.450  -3.260  24.797  0.00  0.00    +0.149 C 
ENDBRANCH  19  20
BRANCH  14  18
ATOM      2  O   UNL     1      -1.418   2.841  23.535  0.00  0.00    -0.274 OA
ATOM      8  N   UNL     1      -1.842   3.374  25.762  0.00  0.00    -0.302 N 
ATOM     18  C   UNL     1      -1.350   2.586  24.735  0.00  0.00    +0.234 C 
ATOM     39  H   UNL     1      -1.853   2.999  26.706  0.00  0.00    +0.150 HD
BRANCH   8  21
ATOM     21  C   UNL     1      -2.515   4.632  25.540  0.00  0.00    +0.163 C 
BRANCH  21  26
ATOM      5  O   UNL     1      -1.736   6.754  24.647  0.00  0.00    -0.274 OA
ATOM     10  N   UNL     1      -0.223   5.043  24.891  0.00  0.00    -0.328 N 
ATOM     26  C   UNL     1      -1.485   5.595  24.966  0.00  0.00    +0.231 C 
ATOM     40  H   UNL     1       0.561   5.583  24.539  0.00  0.00    +0.145 HD
ATOM     41  H   UNL     1      -0.026   4.090  25.180  0.00  0.00    +0.145 HD
ENDBRANCH  21  26
BRANCH  21  23
ATOM     23  C   UNL     1      -3.705   4.493  24.584  0.00  0.00    +0.067 C 
BRANCH  23  28
ATOM     28  C   UNL     1      -4.648   3.384  24.984  0.00  0.00    -0.045 A 
ATOM     32  C   UNL     1      -4.825   2.303  24.135  0.00  0.00    +0.004 A 
ATOM     33  C   UNL     1      -5.319   3.467  26.194  0.00  0.00    +0.004 A 
ATOM     35  C   UNL     1      -5.696   1.278  24.505  0.00  0.00    +0.000 A 
ATOM     36  C   UNL     1      -6.190   2.442  26.564  0.00  0.00    +0.000 A 
ATOM     37  C   UNL     1      -6.378   1.347  25.719  0.00  0.00    +0.000 A 
ENDBRANCH  23  28
ENDBRANCH  21  23
ENDBRANCH   8  21
ENDBRANCH  14  18
BRANCH  13   7
ATOM      4  O   UNL     1       2.768  -1.251  23.645  0.00  0.00    -0.270 OA
ATOM      7  N   UNL     1       2.664   1.033  23.420  0.00  0.00    -0.308 N 
ATOM     22  C   UNL     1       3.352  -0.178  23.477  0.00  0.00    +0.254 C 
ATOM     38  H   UNL     1       3.189   1.898  23.318  0.00  0.00    +0.149 HD
BRANCH  22  25
ATOM      1  S   UNL     1       5.500  -0.673  21.856  0.00  0.00    +0.041 S 
ATOM     11  N   UNL     1       7.049   0.292  23.574  0.00  0.00    -0.146 NA
ATOM     12  N   UNL     1       7.040  -0.261  22.371  0.00  0.00    -0.110 NA
ATOM     25  C   UNL     1       4.807  -0.098  23.288  0.00  0.00    +0.117 A 
ATOM     31  C   UNL     1       5.771   0.386  24.099  0.00  0.00    +0.081 A 
ATOM     34  C   UNL     1       5.611   0.983  25.440  0.00  0.00    +0.069 C 
ENDBRANCH  22  25
ENDBRANCH  13   7
TORSDOF 8
ENDMDL
MODEL 2
REMARK VINA RESULT:       8.9      1.271      1.646
REMARK  Name = 7134361
REMARK  10 active torsions:
REMARK  status: ('A' for Active; 'I' for Inactive)
REMARK    1  A    between atoms: N_7  and  C_13
REMARK    2  A    between atoms: N_8  and  C_21
REMARK    3  A    between atoms: N_9  and  C_30
REMARK    4  A    between atoms: C_14  and  C_18
REMARK    5  A    between atoms: C_19  and  C_20
REMARK    6  A    between atoms: C_21  and  C_23
REMARK    7  A    between atoms: C_21  and  C_26
REMARK    8  A    between atoms: C_22  and  C_25
REMARK    9  A    between atoms: C_23  and  C_28
REMARK   10  A    between atoms: C_31  and  C_34
REMARK                            x       y       z     vdW  Elec       q    Type
REMARK                         _______ _______ _______ _____ _____    ______ ____
ROOT
ATOM      3  O   UNL     1      -2.906   0.654  26.225  0.00  0.00    -0.268 OA
ATOM      6  N   UNL     1      -1.292   0.501  24.563  0.00  0.00    -0.285 N 
ATOM     13  C   UNL     1       1.481   0.940  23.740  0.00  0.00    +0.077 C 
ATOM     14  C   UNL     1      -0.567   1.668  25.081  0.00  0.00    +0.164 C 
ATOM     15  C   UNL     1       0.952   1.510  25.058  0.00  0.00    +0.054 C 
ATOM     16  C   UNL     1       0.734  -0.345  23.393  0.00  0.00    +0.041 C 
ATOM     17  C   UNL     1      -0.770  -0.112  23.329  0.00  0.00    +0.111 C 
ATOM     19  C   UNL     1      -2.500   0.119  25.192  0.00  0.00    +0.264 C 
ENDROOT
BRANCH  19  20
ATOM      9  N   UNL     1      -2.910  -2.271  24.569  0.00  0.00    -0.346 N 
ATOM     20  C   UNL     1      -3.275  -0.952  24.572  0.00  0.00    +0.104 A 
ATOM     24  C   UNL     1      -4.469  -0.839  23.899  0.00  0.00    +0.032 A 
ATOM     27  C   UNL     1      -3.856  -3.005  23.904  0.00  0.00    +0.086 A 
ATOM     29  C   UNL     1      -4.838  -2.139  23.475  0.00  0.00    +0.020 A 
ATOM     30  C   UNL     1      -1.716  -2.823  25.171  0.00  0.00    +0.149 C 
ENDBRANCH  19  20
BRANCH  14  18
ATOM      2  O   UNL     1      -0.254   3.735  23.924  0.00  0.00    -0.274 OA
ATOM      8  N   UNL     1      -2.387   2.805  24.015  0.00  0.00    -0.302 N 
ATOM     18  C   UNL     1      -1.028   2.847  24.275  0.00  0.00    +0.234 C 
ATOM     39  H   UNL     1      -2.903   1.958  24.232  0.00  0.00    +0.150 HD
BRANCH   8  21
ATOM     21  C   UNL     1      -3.083   3.835  23.278  0.00  0.00    +0.163 C 
BRANCH  21  26
ATOM      5  O   UNL     1      -4.421   3.698  21.254  0.00  0.00    -0.274 OA
ATOM     10  N   UNL     1      -2.860   2.061  21.651  0.00  0.00    -0.328 N 
ATOM     26  C   UNL     1      -3.552   3.210  21.972  0.00  0.00    +0.231 C 
ATOM     40  H   UNL     1      -3.064   1.551  20.798  0.00  0.00    +0.145 HD
ATOM     41  H   UNL     1      -2.128   1.681  22.244  0.00  0.00    +0.145 HD
ENDBRANCH  21  26
BRANCH  21  23
ATOM     23  C   UNL     1      -4.275   4.402  24.057  0.00  0.00    +0.067 C 
BRANCH  23  28
ATOM     28  C   UNL     1      -5.000   3.349  24.861  0.00  0.00    -0.045 A 
ATOM     32  C   UNL     1      -5.663   2.327  24.201  0.00  0.00    +0.004 A 
ATOM     33  C   UNL     1      -4.988   3.424  26.246  0.00  0.00    +0.004 A 
ATOM     35  C   UNL     1      -6.333   1.354  24.945  0.00  0.00    +0.000 A 
ATOM     36  C   UNL     1      -5.657   2.452  26.988  0.00  0.00    +0.000 A 
ATOM     37  C   UNL     1      -6.329   1.417  26.338  0.00  0.00    +0.000 A 
ENDBRANCH  23  28
ENDBRANCH  21  23
ENDBRANCH   8  21
ENDBRANCH  14  18
BRANCH  13   7
ATOM      4  O   UNL     1       3.124   0.045  21.629  0.00  0.00    -0.270 OA
ATOM      7  N   UNL     1       2.903   0.703  23.819  0.00  0.00    -0.308 N 
ATOM     22  C   UNL     1       3.645   0.258  22.726  0.00  0.00    +0.254 C 
ATOM     38  H   UNL     1       3.366   0.829  24.715  0.00  0.00    +0.149 HD
BRANCH  22  25
ATOM      1  S   UNL     1       6.037  -0.685  21.792  0.00  0.00    +0.041 S 
ATOM     11  N   UNL     1       7.197   0.146  23.851  0.00  0.00    -0.146 NA
ATOM     12  N   UNL     1       7.424  -0.485  22.710  0.00  0.00    -0.110 NA
ATOM     25  C   UNL     1       5.087   0.094  22.954  0.00  0.00    +0.117 A 
ATOM     31  C   UNL     1       5.859   0.477  23.991  0.00  0.00    +0.081 A 
ATOM     34  C   UNL     1       5.442   1.188  25.218  0.00  0.00    +0.069 C 
ENDBRANCH  22  25
ENDBRANCH  13   7
TORSDOF 8
ENDMDL
