MODEL 1
REMARK VINA RESULT:      -2.4      0.000      0.000
REMARK  Name = 11886479
REMARK  5 active torsions:
REMARK  status: ('A' for Active; 'I' for Inactive)
REMARK    1  A    between atoms: O_4  and  C_27
REMARK    2  A    between atoms: O_4  and  C_32
REMARK    3  A    between atoms: N_5  and  C_15
REMARK    4  A    between atoms: N_7  and  C_23
REMARK    5  A    between atoms: N_8  and  C_26
REMARK                            x       y       z     vdW  Elec       q    Type
REMARK                         _______ _______ _______ _____ _____    ______ ____
ROOT
ATOM      2  O   UNL     1      12.299  -5.639  31.646  0.00  0.00    -0.266 OA
ATOM      5  N   UNL     1      16.507  -6.307  29.007  0.00  0.00    -0.298 NA
ATOM      6  N   UNL     1      14.606  -5.991  31.550  0.00  0.00    -0.310 N 
ATOM      9  C   UNL     1      16.227  -4.310  30.496  0.00  0.00    +0.024 C 
ATOM     10  C   UNL     1      17.088  -6.402  31.435  0.00  0.00    +0.050 C 
ATOM     11  C   UNL     1      17.232  -4.882  31.486  0.00  0.00    +0.017 C 
ATOM     12  C   UNL     1      16.522  -4.841  29.077  0.00  0.00    +0.090 C 
ATOM     13  C   UNL     1      17.405  -6.903  30.008  0.00  0.00    +0.094 C 
ATOM     14  C   UNL     1      14.810  -4.655  30.971  0.00  0.00    +0.130 C 
ATOM     16  C   UNL     1      15.689  -6.824  31.848  0.00  0.00    +0.026 A 
ATOM     19  C   UNL     1      15.491  -7.994  32.476  0.00  0.00    +0.024 A 
ATOM     20  C   UNL     1      13.281  -6.345  31.876  0.00  0.00    +0.273 A 
ATOM     23  C   UNL     1      13.099  -7.668  32.553  0.00  0.00    +0.100 A 
ATOM     24  C   UNL     1      14.167  -8.423  32.833  0.00  0.00    +0.030 A 
ENDROOT
BRANCH   5  15
ATOM      1  O   UNL     1      16.197  -6.876  24.858  0.00  0.00    -0.380 OA
ATOM     15  C   UNL     1      16.841  -6.771  27.663  0.00  0.00    +0.061 C 
ATOM     17  C   UNL     1      17.091  -5.591  26.718  0.00  0.00    +0.047 C 
ATOM     18  C   UNL     1      15.721  -7.657  27.110  0.00  0.00    +0.047 C 
ATOM     21  C   UNL     1      17.306  -6.089  25.293  0.00  0.00    +0.161 C 
ATOM     22  C   UNL     1      16.012  -8.040  25.663  0.00  0.00    +0.161 C 
ENDBRANCH   5  15
BRANCH  23   7
ATOM      3  O   UNL     1      11.037  -8.344  30.714  0.00  0.00    -0.252 OA
ATOM      7  N   UNL     1      11.831  -8.054  32.873  0.00  0.00    -0.265 N 
ATOM      8  N   UNL     1       9.659  -8.732  32.574  0.00  0.00    -0.266 N 
ATOM     25  C   UNL     1      10.848  -8.377  31.928  0.00  0.00    +0.308 C 
ATOM     33  H   UNL     1      11.517  -7.862  33.821  0.00  0.00    +0.157 HD
ATOM     34  H   UNL     1       9.667  -8.707  33.590  0.00  0.00    +0.156 HD
BRANCH   8  26
ATOM     26  C   UNL     1       8.434  -9.122  31.984  0.00  0.00    +0.077 A 
ATOM     27  C   UNL     1       7.308  -8.327  32.133  0.00  0.00    +0.141 A 
ATOM     28  C   UNL     1       8.389 -10.306  31.265  0.00  0.00    +0.027 A 
ATOM     29  C   UNL     1       6.107  -8.725  31.546  0.00  0.00    +0.047 A 
ATOM     30  C   UNL     1       7.187 -10.704  30.677  0.00  0.00    +0.002 A 
ATOM     31  C   UNL     1       6.046  -9.914  30.818  0.00  0.00    +0.004 A 
BRANCH  27   4
ATOM      4  O   UNL     1       7.346  -7.161  32.839  0.00  0.00    -0.493 OA
ATOM     32  C   UNL     1       6.237  -6.279  32.690  0.00  0.00    +0.277 C 
ENDBRANCH  27   4
ENDBRANCH   8  26
ENDBRANCH  23   7
TORSDOF 4
ENDMDL
