MODEL 1
REMARK VINA RESULT:      10.1      0.000      0.000
REMARK  Name = 11882070
REMARK  10 active torsions:
REMARK  status: ('A' for Active; 'I' for Inactive)
REMARK    1  A    between atoms: S_2  and  C_35
REMARK    2  A    between atoms: S_2  and  C_38
REMARK    3  A    between atoms: N_8  and  C_14
REMARK    4  A    between atoms: N_9  and  C_20
REMARK    5  A    between atoms: N_10  and  C_27
REMARK    6  A    between atoms: C_15  and  C_18
REMARK    7  A    between atoms: C_19  and  C_22
REMARK    8  A    between atoms: C_20  and  C_23
REMARK    9  A    between atoms: C_20  and  C_24
REMARK   10  A    between atoms: C_23  and  C_26
REMARK                            x       y       z     vdW  Elec       q    Type
REMARK                         _______ _______ _______ _____ _____    ______ ____
ROOT
ATOM      4  O   UNL     1      -0.780   4.283  25.394  0.00  0.00    -0.268 OA
ATOM      7  N   UNL     1      -0.811   1.984  25.020  0.00  0.00    -0.283 N 
ATOM     14  C   UNL     1      -0.798   0.646  23.063  0.00  0.00    +0.105 C 
ATOM     15  C   UNL     1      -1.112   2.045  23.594  0.00  0.00    +0.182 C 
ATOM     16  C   UNL     1      -1.024  -0.256  24.278  0.00  0.00    +0.043 C 
ATOM     17  C   UNL     1      -0.586   0.606  25.456  0.00  0.00    +0.111 C 
ATOM     19  C   UNL     1      -0.587   3.130  25.772  0.00  0.00    +0.267 C 
ENDROOT
BRANCH  14   8
ATOM      5  O   UNL     1       1.421  -0.475  24.485  0.00  0.00    -0.252 OA
ATOM      8  N   UNL     1       0.567   0.557  22.600  0.00  0.00    -0.294 N 
ATOM     10  N   UNL     1       2.803   0.046  22.660  0.00  0.00    -0.269 N 
ATOM     21  C   UNL     1       1.596  -0.008  23.362  0.00  0.00    +0.304 C 
ATOM     39  H   UNL     1       0.780   0.860  21.655  0.00  0.00    +0.151 HD
ATOM     41  H   UNL     1       2.776   0.468  21.736  0.00  0.00    +0.156 HD
BRANCH  10  27
ATOM     27  C   UNL     1       4.072  -0.419  23.079  0.00  0.00    +0.036 A 
ATOM     30  C   UNL     1       5.163   0.450  23.100  0.00  0.00    +0.038 A 
ATOM     32  C   UNL     1       4.232  -1.748  23.473  0.00  0.00    +0.023 A 
ATOM     35  C   UNL     1       6.414  -0.009  23.514  0.00  0.00    +0.009 A 
ATOM     36  C   UNL     1       5.483  -2.207  23.887  0.00  0.00    +0.003 A 
ATOM     37  C   UNL     1       6.573  -1.338  23.907  0.00  0.00    +0.015 A 
BRANCH  35   2
ATOM      2  S   UNL     1       7.806   1.102  23.541  0.00  0.00    -0.129 S 
ATOM     38  C   UNL     1       9.178  -0.014  23.131  0.00  0.00    +0.090 C 
ENDBRANCH  35   2
ENDBRANCH  10  27
ENDBRANCH  14   8
BRANCH  19  22
ATOM     11  N   UNL     1       1.257   2.738  27.252  0.00  0.00    -0.247 NA
ATOM     13  N   UNL     1      -0.438   2.819  29.485  0.00  0.00    -0.259 NA
ATOM     22  C   UNL     1      -0.069   2.947  27.135  0.00  0.00    +0.144 A 
ATOM     25  C   UNL     1      -0.902   2.986  28.231  0.00  0.00    +0.143 A 
ATOM     29  C   UNL     1       1.721   2.571  28.507  0.00  0.00    +0.131 A 
ATOM     31  C   UNL     1       0.888   2.611  29.604  0.00  0.00    +0.130 A 
ENDBRANCH  19  22
BRANCH  15  18
ATOM      3  O   UNL     1      -3.048   2.881  22.475  0.00  0.00    -0.274 OA
ATOM      9  N   UNL     1      -3.270   2.034  24.631  0.00  0.00    -0.302 N 
ATOM     18  C   UNL     1      -2.572   2.365  23.482  0.00  0.00    +0.236 C 
ATOM     40  H   UNL     1      -2.756   1.685  25.435  0.00  0.00    +0.150 HD
BRANCH   9  20
ATOM     20  C   UNL     1      -4.689   2.263  24.788  0.00  0.00    +0.163 C 
BRANCH  20  24
ATOM      6  O   UNL     1      -3.916   3.979  26.325  0.00  0.00    -0.274 OA
ATOM     12  N   UNL     1      -6.146   3.920  25.775  0.00  0.00    -0.328 N 
ATOM     24  C   UNL     1      -4.849   3.455  25.719  0.00  0.00    +0.231 C 
ATOM     42  H   UNL     1      -6.387   4.721  26.349  0.00  0.00    +0.145 HD
ATOM     43  H   UNL     1      -6.906   3.479  25.267  0.00  0.00    +0.145 HD
ENDBRANCH  20  24
BRANCH  20  23
ATOM     23  C   UNL     1      -5.417   1.039  25.355  0.00  0.00    +0.074 C 
BRANCH  23  26
ATOM      1  S   UNL     1      -3.778  -1.028  26.249  0.00  0.00    -0.102 S 
ATOM     26  C   UNL     1      -4.703  -0.254  25.035  0.00  0.00    -0.008 A 
ATOM     28  C   UNL     1      -4.681  -0.949  23.846  0.00  0.00    +0.011 A 
ATOM     33  C   UNL     1      -3.894  -2.132  23.932  0.00  0.00    +0.008 A 
ATOM     34  C   UNL     1      -3.344  -2.297  25.186  0.00  0.00    +0.045 A 
ENDBRANCH  23  26
ENDBRANCH  20  23
ENDBRANCH   9  20
ENDBRANCH  15  18
TORSDOF 9
ENDMDL
MODEL 2
REMARK VINA RESULT:      10.6      2.502      4.702
REMARK  Name = 11882070
REMARK  10 active torsions:
REMARK  status: ('A' for Active; 'I' for Inactive)
REMARK    1  A    between atoms: S_2  and  C_35
REMARK    2  A    between atoms: S_2  and  C_38
REMARK    3  A    between atoms: N_8  and  C_14
REMARK    4  A    between atoms: N_9  and  C_20
REMARK    5  A    between atoms: N_10  and  C_27
REMARK    6  A    between atoms: C_15  and  C_18
REMARK    7  A    between atoms: C_19  and  C_22
REMARK    8  A    between atoms: C_20  and  C_23
REMARK    9  A    between atoms: C_20  and  C_24
REMARK   10  A    between atoms: C_23  and  C_26
REMARK                            x       y       z     vdW  Elec       q    Type
REMARK                         _______ _______ _______ _____ _____    ______ ____
ROOT
ATOM      4  O   UNL     1      -2.010  -0.640  26.347  0.00  0.00    -0.268 OA
ATOM      7  N   UNL     1      -2.201   0.602  24.386  0.00  0.00    -0.283 N 
ATOM     14  C   UNL     1      -1.133   2.560  23.580  0.00  0.00    +0.105 C 
ATOM     15  C   UNL     1      -1.459   1.771  24.848  0.00  0.00    +0.182 C 
ATOM     16  C   UNL     1      -2.268   2.185  22.625  0.00  0.00    +0.043 C 
ATOM     17  C   UNL     1      -2.577   0.736  22.978  0.00  0.00    +0.111 C 
ATOM     19  C   UNL     1      -2.330  -0.540  25.165  0.00  0.00    +0.267 C 
ENDROOT
BRANCH  14   8
ATOM      5  O   UNL     1       0.760   0.774  24.777  0.00  0.00    -0.252 OA
ATOM      8  N   UNL     1       0.148   2.171  23.039  0.00  0.00    -0.294 N 
ATOM     10  N   UNL     1       2.175   1.101  22.933  0.00  0.00    -0.269 N 
ATOM     21  C   UNL     1       1.017   1.289  23.691  0.00  0.00    +0.304 C 
ATOM     39  H   UNL     1       0.404   2.501  22.114  0.00  0.00    +0.151 HD
ATOM     41  H   UNL     1       2.232   1.605  22.051  0.00  0.00    +0.156 HD
BRANCH  10  27
ATOM     27  C   UNL     1       3.292   0.288  23.240  0.00  0.00    +0.036 A 
ATOM     30  C   UNL     1       4.566   0.850  23.311  0.00  0.00    +0.038 A 
ATOM     32  C   UNL     1       3.117  -1.076  23.474  0.00  0.00    +0.023 A 
ATOM     35  C   UNL     1       5.667   0.047  23.615  0.00  0.00    +0.009 A 
ATOM     36  C   UNL     1       4.217  -1.878  23.778  0.00  0.00    +0.003 A 
ATOM     37  C   UNL     1       5.491  -1.317  23.848  0.00  0.00    +0.015 A 
BRANCH  35   2
ATOM      2  S   UNL     1       7.295   0.765  23.707  0.00  0.00    -0.129 S 
ATOM     38  C   UNL     1       8.305  -0.503  22.891  0.00  0.00    +0.090 C 
ENDBRANCH  35   2
ENDBRANCH  10  27
ENDBRANCH  14   8
BRANCH  19  22
ATOM     11  N   UNL     1      -2.030  -2.728  24.233  0.00  0.00    -0.247 NA
ATOM     13  N   UNL     1      -4.762  -2.911  23.626  0.00  0.00    -0.259 NA
ATOM     22  C   UNL     1      -2.893  -1.733  24.518  0.00  0.00    +0.144 A 
ATOM     25  C   UNL     1      -4.234  -1.823  24.220  0.00  0.00    +0.143 A 
ATOM     29  C   UNL     1      -2.557  -3.818  23.639  0.00  0.00    +0.131 A 
ATOM     31  C   UNL     1      -3.900  -3.908  23.341  0.00  0.00    +0.130 A 
ENDBRANCH  19  22
BRANCH  15  18
ATOM      3  O   UNL     1      -1.972   3.182  26.704  0.00  0.00    -0.274 OA
ATOM      9  N   UNL     1      -3.713   2.378  25.385  0.00  0.00    -0.302 N 
ATOM     18  C   UNL     1      -2.386   2.530  25.750  0.00  0.00    +0.236 C 
ATOM     40  H   UNL     1      -3.943   1.747  24.623  0.00  0.00    +0.150 HD
BRANCH   9  20
ATOM     20  C   UNL     1      -4.806   2.989  26.106  0.00  0.00    +0.163 C 
BRANCH  20  24
ATOM      6  O   UNL     1      -6.392   1.760  24.736  0.00  0.00    -0.274 OA
ATOM     12  N   UNL     1      -6.700   1.791  27.013  0.00  0.00    -0.328 N 
ATOM     24  C   UNL     1      -6.041   2.138  25.852  0.00  0.00    +0.231 C 
ATOM     42  H   UNL     1      -7.532   1.212  26.985  0.00  0.00    +0.145 HD
ATOM     43  H   UNL     1      -6.397   2.108  27.929  0.00  0.00    +0.145 HD
ENDBRANCH  20  24
BRANCH  20  23
ATOM     23  C   UNL     1      -5.055   4.438  25.668  0.00  0.00    +0.074 C 
BRANCH  23  26
ATOM      1  S   UNL     1      -3.684   5.432  23.457  0.00  0.00    -0.102 S 
ATOM     26  C   UNL     1      -3.806   5.098  25.132  0.00  0.00    -0.008 A 
ATOM     28  C   UNL     1      -2.683   5.498  25.822  0.00  0.00    +0.011 A 
ATOM     33  C   UNL     1      -1.710   6.087  24.965  0.00  0.00    +0.008 A 
ATOM     34  C   UNL     1      -2.126   6.114  23.651  0.00  0.00    +0.045 A 
ENDBRANCH  23  26
ENDBRANCH  20  23
ENDBRANCH   9  20
ENDBRANCH  15  18
TORSDOF 9
ENDMDL
MODEL 3
REMARK VINA RESULT:      11.2      2.329      4.151
REMARK  Name = 11882070
REMARK  10 active torsions:
REMARK  status: ('A' for Active; 'I' for Inactive)
REMARK    1  A    between atoms: S_2  and  C_35
REMARK    2  A    between atoms: S_2  and  C_38
REMARK    3  A    between atoms: N_8  and  C_14
REMARK    4  A    between atoms: N_9  and  C_20
REMARK    5  A    between atoms: N_10  and  C_27
REMARK    6  A    between atoms: C_15  and  C_18
REMARK    7  A    between atoms: C_19  and  C_22
REMARK    8  A    between atoms: C_20  and  C_23
REMARK    9  A    between atoms: C_20  and  C_24
REMARK   10  A    between atoms: C_23  and  C_26
REMARK                            x       y       z     vdW  Elec       q    Type
REMARK                         _______ _______ _______ _____ _____    ______ ____
ROOT
ATOM      4  O   UNL     1      -1.733  -0.247  26.339  0.00  0.00    -0.268 OA
ATOM      7  N   UNL     1      -1.773   0.681  24.204  0.00  0.00    -0.283 N 
ATOM     14  C   UNL     1      -0.394   2.246  23.076  0.00  0.00    +0.105 C 
ATOM     15  C   UNL     1      -0.807   1.745  24.460  0.00  0.00    +0.182 C 
ATOM     16  C   UNL     1      -1.619   1.949  22.209  0.00  0.00    +0.043 C 
ATOM     17  C   UNL     1      -2.178   0.660  22.798  0.00  0.00    +0.111 C 
ATOM     19  C   UNL     1      -2.080  -0.276  25.161  0.00  0.00    +0.267 C 
ENDROOT
BRANCH  14   8
ATOM      5  O   UNL     1       1.792   1.262  24.644  0.00  0.00    -0.252 OA
ATOM      8  N   UNL     1       0.767   1.538  22.590  0.00  0.00    -0.294 N 
ATOM     10  N   UNL     1       2.781   0.442  22.680  0.00  0.00    -0.269 N 
ATOM     21  C   UNL     1       1.795   1.090  23.428  0.00  0.00    +0.304 C 
ATOM     39  H   UNL     1       0.812   1.298  21.605  0.00  0.00    +0.151 HD
ATOM     41  H   UNL     1       2.631   0.386  21.676  0.00  0.00    +0.156 HD
BRANCH  10  27
ATOM     27  C   UNL     1       3.976  -0.152  23.149  0.00  0.00    +0.036 A 
ATOM     30  C   UNL     1       5.163   0.582  23.162  0.00  0.00    +0.038 A 
ATOM     32  C   UNL     1       3.968  -1.471  23.601  0.00  0.00    +0.023 A 
ATOM     35  C   UNL     1       6.341  -0.005  23.626  0.00  0.00    +0.009 A 
ATOM     36  C   UNL     1       5.146  -2.058  24.065  0.00  0.00    +0.003 A 
ATOM     37  C   UNL     1       6.331  -1.325  24.078  0.00  0.00    +0.015 A 
BRANCH  35   2
ATOM      2  S   UNL     1       7.856   0.932  23.643  0.00  0.00    -0.129 S 
ATOM     38  C   UNL     1       9.042  -0.269  22.977  0.00  0.00    +0.090 C 
ENDBRANCH  35   2
ENDBRANCH  10  27
ENDBRANCH  14   8
BRANCH  19  22
ATOM     11  N   UNL     1      -2.287  -2.634  24.780  0.00  0.00    -0.247 NA
ATOM     13  N   UNL     1      -4.924  -2.319  23.878  0.00  0.00    -0.259 NA
ATOM     22  C   UNL     1      -2.883  -1.427  24.725  0.00  0.00    +0.144 A 
ATOM     25  C   UNL     1      -4.178  -1.272  24.281  0.00  0.00    +0.143 A 
ATOM     29  C   UNL     1      -3.034  -3.682  24.377  0.00  0.00    +0.131 A 
ATOM     31  C   UNL     1      -4.329  -3.528  23.935  0.00  0.00    +0.130 A 
ENDBRANCH  19  22
BRANCH  15  18
ATOM      3  O   UNL     1      -1.461   2.872  26.460  0.00  0.00    -0.274 OA
ATOM      9  N   UNL     1      -2.288   3.627  24.419  0.00  0.00    -0.302 N 
ATOM     18  C   UNL     1      -1.536   2.800  25.236  0.00  0.00    +0.236 C 
ATOM     40  H   UNL     1      -2.337   3.421  23.425  0.00  0.00    +0.150 HD
BRANCH   9  20
ATOM     20  C   UNL     1      -3.102   4.709  24.924  0.00  0.00    +0.163 C 
BRANCH  20  24
ATOM      6  O   UNL     1      -2.512   6.889  25.822  0.00  0.00    -0.274 OA
ATOM     12  N   UNL     1      -0.860   5.613  24.861  0.00  0.00    -0.328 N 
ATOM     24  C   UNL     1      -2.162   5.862  25.244  0.00  0.00    +0.231 C 
ATOM     42  H   UNL     1      -0.129   6.295  25.031  0.00  0.00    +0.145 HD
ATOM     43  H   UNL     1      -0.585   4.759  24.387  0.00  0.00    +0.145 HD
ENDBRANCH  20  24
BRANCH  20  23
ATOM     23  C   UNL     1      -3.899   4.306  26.170  0.00  0.00    +0.074 C 
BRANCH  23  26
ATOM      1  S   UNL     1      -5.028   2.583  24.295  0.00  0.00    -0.102 S 
ATOM     26  C   UNL     1      -4.910   3.221  25.879  0.00  0.00    -0.008 A 
ATOM     28  C   UNL     1      -5.804   2.629  26.744  0.00  0.00    +0.011 A 
ATOM     33  C   UNL     1      -6.597   1.638  26.097  0.00  0.00    +0.008 A 
ATOM     34  C   UNL     1      -6.279   1.511  24.762  0.00  0.00    +0.045 A 
ENDBRANCH  23  26
ENDBRANCH  20  23
ENDBRANCH   9  20
ENDBRANCH  15  18
TORSDOF 9
ENDMDL
MODEL 4
REMARK VINA RESULT:      12.7      2.700      5.709
REMARK  Name = 11882070
REMARK  10 active torsions:
REMARK  status: ('A' for Active; 'I' for Inactive)
REMARK    1  A    between atoms: S_2  and  C_35
REMARK    2  A    between atoms: S_2  and  C_38
REMARK    3  A    between atoms: N_8  and  C_14
REMARK    4  A    between atoms: N_9  and  C_20
REMARK    5  A    between atoms: N_10  and  C_27
REMARK    6  A    between atoms: C_15  and  C_18
REMARK    7  A    between atoms: C_19  and  C_22
REMARK    8  A    between atoms: C_20  and  C_23
REMARK    9  A    between atoms: C_20  and  C_24
REMARK   10  A    between atoms: C_23  and  C_26
REMARK                            x       y       z     vdW  Elec       q    Type
REMARK                         _______ _______ _______ _____ _____    ______ ____
ROOT
ATOM      4  O   UNL     1      -0.383  -0.534  24.059  0.00  0.00    -0.268 OA
ATOM      7  N   UNL     1      -0.413   1.773  23.744  0.00  0.00    -0.283 N 
ATOM     14  C   UNL     1      -1.465   3.565  24.887  0.00  0.00    +0.105 C 
ATOM     15  C   UNL     1      -1.523   2.056  24.648  0.00  0.00    +0.182 C 
ATOM     16  C   UNL     1      -0.817   4.104  23.609  0.00  0.00    +0.043 C 
ATOM     17  C   UNL     1       0.162   3.007  23.208  0.00  0.00    +0.111 C 
ATOM     19  C   UNL     1       0.110   0.495  23.603  0.00  0.00    +0.267 C 
ENDROOT
BRANCH  14   8
ATOM      5  O   UNL     1      -0.107   1.700  26.584  0.00  0.00    -0.252 OA
ATOM      8  N   UNL     1      -0.662   3.879  26.045  0.00  0.00    -0.294 N 
ATOM     10  N   UNL     1       0.673   3.500  27.873  0.00  0.00    -0.269 N 
ATOM     21  C   UNL     1      -0.029   2.903  26.824  0.00  0.00    +0.304 C 
ATOM     39  H   UNL     1      -0.494   4.854  26.270  0.00  0.00    +0.151 HD
ATOM     41  H   UNL     1       0.633   4.515  27.931  0.00  0.00    +0.156 HD
BRANCH  10  27
ATOM     27  C   UNL     1       1.441   2.864  28.877  0.00  0.00    +0.036 A 
ATOM     30  C   UNL     1       0.885   2.621  30.133  0.00  0.00    +0.038 A 
ATOM     32  C   UNL     1       2.754   2.478  28.610  0.00  0.00    +0.023 A 
ATOM     35  C   UNL     1       1.643   1.993  31.122  0.00  0.00    +0.009 A 
ATOM     36  C   UNL     1       3.512   1.850  29.599  0.00  0.00    +0.003 A 
ATOM     37  C   UNL     1       2.956   1.608  30.854  0.00  0.00    +0.015 A 
BRANCH  35   2
ATOM      2  S   UNL     1       0.932   1.682  32.726  0.00  0.00    -0.129 S 
ATOM     38  C   UNL     1      -0.260   3.043  32.873  0.00  0.00    +0.090 C 
ENDBRANCH  35   2
ENDBRANCH  10  27
ENDBRANCH  14   8
BRANCH  19  22
ATOM     11  N   UNL     1       2.467   0.890  23.418  0.00  0.00    -0.247 NA
ATOM     13  N   UNL     1       2.549  -0.393  20.926  0.00  0.00    -0.259 NA
ATOM     22  C   UNL     1       1.364   0.363  22.850  0.00  0.00    +0.144 A 
ATOM     25  C   UNL     1       1.404  -0.267  21.626  0.00  0.00    +0.143 A 
ATOM     29  C   UNL     1       3.612   0.763  22.718  0.00  0.00    +0.131 A 
ATOM     31  C   UNL     1       3.652   0.132  21.494  0.00  0.00    +0.130 A 
ENDBRANCH  19  22
BRANCH  15  18
ATOM      3  O   UNL     1      -2.807   1.563  22.697  0.00  0.00    -0.274 OA
ATOM      9  N   UNL     1      -3.836   1.449  24.781  0.00  0.00    -0.302 N 
ATOM     18  C   UNL     1      -2.773   1.659  23.920  0.00  0.00    +0.236 C 
ATOM     40  H   UNL     1      -3.710   1.637  25.772  0.00  0.00    +0.150 HD
BRANCH   9  20
ATOM     20  C   UNL     1      -5.158   1.080  24.329  0.00  0.00    +0.163 C 
BRANCH  20  24
ATOM      6  O   UNL     1      -5.806   2.956  25.730  0.00  0.00    -0.274 OA
ATOM     12  N   UNL     1      -7.419   1.926  24.459  0.00  0.00    -0.328 N 
ATOM     24  C   UNL     1      -6.133   2.078  24.935  0.00  0.00    +0.231 C 
ATOM     42  H   UNL     1      -8.165   2.539  24.772  0.00  0.00    +0.145 HD
ATOM     43  H   UNL     1      -7.675   1.198  23.800  0.00  0.00    +0.145 HD
ENDBRANCH  20  24
BRANCH  20  23
ATOM     23  C   UNL     1      -5.534  -0.350  24.736  0.00  0.00    +0.074 C 
BRANCH  23  26
ATOM      1  S   UNL     1      -3.275  -1.349  26.023  0.00  0.00    -0.102 S 
ATOM     26  C   UNL     1      -4.352  -1.290  24.693  0.00  0.00    -0.008 A 
ATOM     28  C   UNL     1      -3.983  -2.159  23.690  0.00  0.00    +0.011 A 
ATOM     33  C   UNL     1      -2.801  -2.883  24.018  0.00  0.00    +0.008 A 
ATOM     34  C   UNL     1      -2.311  -2.540  25.259  0.00  0.00    +0.045 A 
ENDBRANCH  23  26
ENDBRANCH  20  23
ENDBRANCH   9  20
ENDBRANCH  15  18
TORSDOF 9
ENDMDL
MODEL 5
REMARK VINA RESULT:      13.8      2.442      4.368
REMARK  Name = 11882070
REMARK  10 active torsions:
REMARK  status: ('A' for Active; 'I' for Inactive)
REMARK    1  A    between atoms: S_2  and  C_35
REMARK    2  A    between atoms: S_2  and  C_38
REMARK    3  A    between atoms: N_8  and  C_14
REMARK    4  A    between atoms: N_9  and  C_20
REMARK    5  A    between atoms: N_10  and  C_27
REMARK    6  A    between atoms: C_15  and  C_18
REMARK    7  A    between atoms: C_19  and  C_22
REMARK    8  A    between atoms: C_20  and  C_23
REMARK    9  A    between atoms: C_20  and  C_24
REMARK   10  A    between atoms: C_23  and  C_26
REMARK                            x       y       z     vdW  Elec       q    Type
REMARK                         _______ _______ _______ _____ _____    ______ ____
ROOT
ATOM      4  O   UNL     1      -1.923  -0.298  26.646  0.00  0.00    -0.268 OA
ATOM      7  N   UNL     1      -1.032   0.316  24.584  0.00  0.00    -0.283 N 
ATOM     14  C   UNL     1       0.965   1.414  23.928  0.00  0.00    +0.105 C 
ATOM     15  C   UNL     1       0.009   1.198  25.101  0.00  0.00    +0.182 C 
ATOM     16  C   UNL     1       0.067   1.242  22.701  0.00  0.00    +0.043 C 
ATOM     17  C   UNL     1      -0.936   0.179  23.131  0.00  0.00    +0.111 C 
ATOM     19  C   UNL     1      -1.853  -0.423  25.426  0.00  0.00    +0.267 C 
ENDROOT
BRANCH  14   8
ATOM      5  O   UNL     1       3.675   1.824  23.097  0.00  0.00    -0.252 OA
ATOM      8  N   UNL     1       2.026   0.435  23.933  0.00  0.00    -0.294 N 
ATOM     10  N   UNL     1       4.135  -0.417  23.625  0.00  0.00    -0.269 N 
ATOM     21  C   UNL     1       3.330   0.719  23.508  0.00  0.00    +0.304 C 
ATOM     39  H   UNL     1       1.838  -0.483  24.321  0.00  0.00    +0.151 HD
ATOM     41  H   UNL     1       3.691  -1.258  23.984  0.00  0.00    +0.156 HD
BRANCH  10  27
ATOM     27  C   UNL     1       5.507  -0.544  23.303  0.00  0.00    +0.036 A 
ATOM     30  C   UNL     1       6.420   0.412  23.745  0.00  0.00    +0.038 A 
ATOM     32  C   UNL     1       5.946  -1.630  22.545  0.00  0.00    +0.023 A 
ATOM     35  C   UNL     1       7.773   0.285  23.427  0.00  0.00    +0.009 A 
ATOM     36  C   UNL     1       7.298  -1.757  22.227  0.00  0.00    +0.003 A 
ATOM     37  C   UNL     1       8.211  -0.800  22.668  0.00  0.00    +0.015 A 
BRANCH  35   2
ATOM      2  S   UNL     1       8.940   1.507  23.992  0.00  0.00    -0.129 S 
ATOM     38  C   UNL     1      10.248   1.375  22.740  0.00  0.00    +0.090 C 
ENDBRANCH  35   2
ENDBRANCH  10  27
ENDBRANCH  14   8
BRANCH  19  22
ATOM     11  N   UNL     1      -3.921  -1.044  24.386  0.00  0.00    -0.247 NA
ATOM     13  N   UNL     1      -3.049  -3.693  24.092  0.00  0.00    -0.259 NA
ATOM     22  C   UNL     1      -2.704  -1.445  24.804  0.00  0.00    +0.144 A 
ATOM     25  C   UNL     1      -2.276  -2.746  24.660  0.00  0.00    +0.143 A 
ATOM     29  C   UNL     1      -4.695  -1.991  23.818  0.00  0.00    +0.131 A 
ATOM     31  C   UNL     1      -4.266  -3.292  23.672  0.00  0.00    +0.130 A 
ENDBRANCH  19  22
BRANCH  15  18
ATOM      3  O   UNL     1      -0.473   3.003  26.588  0.00  0.00    -0.274 OA
ATOM      9  N   UNL     1      -1.543   2.928  24.522  0.00  0.00    -0.302 N 
ATOM     18  C   UNL     1      -0.676   2.472  25.500  0.00  0.00    +0.236 C 
ATOM     40  H   UNL     1      -1.689   2.361  23.692  0.00  0.00    +0.150 HD
BRANCH   9  20
ATOM     20  C   UNL     1      -2.342   4.124  24.670  0.00  0.00    +0.163 C 
BRANCH  20  24
ATOM      6  O   UNL     1      -1.652   6.349  25.362  0.00  0.00    -0.274 OA
ATOM     12  N   UNL     1      -0.137   5.023  24.254  0.00  0.00    -0.328 N 
ATOM     24  C   UNL     1      -1.376   5.292  24.797  0.00  0.00    +0.231 C 
ATOM     42  H   UNL     1       0.606   5.714  24.286  0.00  0.00    +0.145 HD
ATOM     43  H   UNL     1       0.079   4.145  23.794  0.00  0.00    +0.145 HD
ENDBRANCH  20  24
BRANCH  20  23
ATOM     23  C   UNL     1      -3.267   4.058  25.891  0.00  0.00    +0.074 C 
BRANCH  23  26
ATOM      1  S   UNL     1      -4.655   2.393  24.143  0.00  0.00    -0.102 S 
ATOM     26  C   UNL     1      -4.465   3.167  25.657  0.00  0.00    -0.008 A 
ATOM     28  C   UNL     1      -5.489   2.862  26.527  0.00  0.00    +0.011 A 
ATOM     33  C   UNL     1      -6.442   1.980  25.942  0.00  0.00    +0.008 A 
ATOM     34  C   UNL     1      -6.111   1.646  24.646  0.00  0.00    +0.045 A 
ENDBRANCH  23  26
ENDBRANCH  20  23
ENDBRANCH   9  20
ENDBRANCH  15  18
TORSDOF 9
ENDMDL
