MODEL 1
REMARK VINA RESULT:      -5.6      0.000      0.000
REMARK  Name = 75367673
REMARK  3 active torsions:
REMARK  status: ('A' for Active; 'I' for Inactive)
REMARK    1  A    between atoms: O_2  and  C_7
REMARK    2  A    between atoms: O_2  and  C_13
REMARK    3  A    between atoms: C_12  and  C_14
REMARK                            x       y       z     vdW  Elec       q    Type
REMARK                         _______ _______ _______ _____ _____    ______ ____
ROOT
ATOM      1  O   UNL     1       1.162  -0.417  23.383  0.00  0.00    -0.375 OA
ATOM      3  O   UNL     1      -0.457   4.111  23.802  0.00  0.00    -0.268 OA
ATOM      4  N   UNL     1      -0.314   1.979  24.763  0.00  0.00    -0.290 N 
ATOM      7  C   UNL     1      -0.363  -0.520  25.286  0.00  0.00    +0.216 C 
ATOM      8  C   UNL     1      -0.980   0.871  25.459  0.00  0.00    +0.155 C 
ATOM      9  C   UNL     1       1.090   1.817  24.382  0.00  0.00    +0.136 C 
ATOM     10  C   UNL     1      -0.109  -0.886  23.824  0.00  0.00    +0.206 C 
ATOM     11  C   UNL     1       1.221   0.980  23.116  0.00  0.00    +0.179 C 
ATOM     12  C   UNL     1      -0.966   3.172  24.412  0.00  0.00    +0.267 C 
ENDROOT
BRANCH  12  14
ATOM      5  N   UNL     1      -3.295   2.821  23.953  0.00  0.00    -0.247 NA
ATOM      6  N   UNL     1      -4.025   4.141  26.317  0.00  0.00    -0.259 NA
ATOM     14  C   UNL     1      -2.378   3.335  24.795  0.00  0.00    +0.144 A 
ATOM     17  C   UNL     1      -2.737   3.983  25.956  0.00  0.00    +0.143 A 
ATOM     21  C   UNL     1      -4.585   2.978  24.313  0.00  0.00    +0.131 A 
ATOM     22  C   UNL     1      -4.943   3.626  25.475  0.00  0.00    +0.130 A 
ENDBRANCH  12  14
BRANCH   7   2
ATOM      2  O   UNL     1      -1.289  -1.453  25.845  0.00  0.00    -0.485 OA
BRANCH   2  13
ATOM     13  C   UNL     1      -2.443  -1.664  25.141  0.00  0.00    +0.121 A 
ATOM     15  C   UNL     1      -3.355  -0.623  24.967  0.00  0.00    +0.045 A 
ATOM     16  C   UNL     1      -2.706  -2.921  24.597  0.00  0.00    +0.045 A 
ATOM     18  C   UNL     1      -4.531  -0.839  24.251  0.00  0.00    +0.004 A 
ATOM     19  C   UNL     1      -3.883  -3.137  23.879  0.00  0.00    +0.004 A 
ATOM     20  C   UNL     1      -4.796  -2.097  23.707  0.00  0.00    +0.000 A 
ENDBRANCH   2  13
ENDBRANCH   7   2
TORSDOF 3
ENDMDL
MODEL 2
REMARK VINA RESULT:      -5.3      1.906      4.450
REMARK  Name = 75367673
REMARK  3 active torsions:
REMARK  status: ('A' for Active; 'I' for Inactive)
REMARK    1  A    between atoms: O_2  and  C_7
REMARK    2  A    between atoms: O_2  and  C_13
REMARK    3  A    between atoms: C_12  and  C_14
REMARK                            x       y       z     vdW  Elec       q    Type
REMARK                         _______ _______ _______ _____ _____    ______ ____
ROOT
ATOM      1  O   UNL     1      -4.791   3.828  26.150  0.00  0.00    -0.375 OA
ATOM      3  O   UNL     1      -0.109   3.618  24.993  0.00  0.00    -0.268 OA
ATOM      4  N   UNL     1      -2.293   2.949  24.472  0.00  0.00    -0.290 N 
ATOM      7  C   UNL     1      -4.686   2.058  24.472  0.00  0.00    +0.216 C 
ATOM      8  C   UNL     1      -3.216   1.874  24.086  0.00  0.00    +0.155 C 
ATOM      9  C   UNL     1      -2.846   4.279  24.733  0.00  0.00    +0.136 C 
ATOM     10  C   UNL     1      -4.879   2.420  25.944  0.00  0.00    +0.206 C 
ATOM     11  C   UNL     1      -3.467   4.351  26.123  0.00  0.00    +0.179 C 
ATOM     12  C   UNL     1      -0.913   2.756  24.640  0.00  0.00    +0.267 C 
ENDROOT
BRANCH  12  14
ATOM      5  N   UNL     1       0.505   1.315  23.346  0.00  0.00    -0.247 NA
ATOM      6  N   UNL     1      -0.208  -0.898  24.913  0.00  0.00    -0.259 NA
ATOM     14  C   UNL     1      -0.358   1.419  24.377  0.00  0.00    +0.144 A 
ATOM     17  C   UNL     1      -0.708   0.331  25.146  0.00  0.00    +0.143 A 
ATOM     21  C   UNL     1       1.005   0.085  23.113  0.00  0.00    +0.131 A 
ATOM     22  C   UNL     1       0.655  -1.002  23.884  0.00  0.00    +0.130 A 
ENDBRANCH  12  14
BRANCH   7   2
ATOM      2  O   UNL     1      -5.339   0.815  24.210  0.00  0.00    -0.485 OA
BRANCH   2  13
ATOM     13  C   UNL     1      -4.649  -0.319  24.542  0.00  0.00    +0.121 A 
ATOM     15  C   UNL     1      -4.084  -0.446  25.810  0.00  0.00    +0.045 A 
ATOM     16  C   UNL     1      -4.512  -1.347  23.609  0.00  0.00    +0.045 A 
ATOM     18  C   UNL     1      -3.380  -1.602  26.147  0.00  0.00    +0.004 A 
ATOM     19  C   UNL     1      -3.807  -2.504  23.946  0.00  0.00    +0.004 A 
ATOM     20  C   UNL     1      -3.241  -2.631  25.215  0.00  0.00    +0.000 A 
ENDBRANCH   2  13
ENDBRANCH   7   2
TORSDOF 3
ENDMDL
MODEL 3
REMARK VINA RESULT:      -5.2      1.385      1.676
REMARK  Name = 75367673
REMARK  3 active torsions:
REMARK  status: ('A' for Active; 'I' for Inactive)
REMARK    1  A    between atoms: O_2  and  C_7
REMARK    2  A    between atoms: O_2  and  C_13
REMARK    3  A    between atoms: C_12  and  C_14
REMARK                            x       y       z     vdW  Elec       q    Type
REMARK                         _______ _______ _______ _____ _____    ______ ____
ROOT
ATOM      1  O   UNL     1       0.825   1.614  23.889  0.00  0.00    -0.375 OA
ATOM      3  O   UNL     1      -2.785   4.778  24.399  0.00  0.00    -0.268 OA
ATOM      4  N   UNL     1      -1.697   2.885  25.249  0.00  0.00    -0.290 N 
ATOM      7  C   UNL     1      -0.576   0.622  25.624  0.00  0.00    +0.216 C 
ATOM      8  C   UNL     1      -1.792   1.532  25.813  0.00  0.00    +0.155 C 
ATOM      9  C   UNL     1      -0.366   3.442  24.999  0.00  0.00    +0.136 C 
ATOM     10  C   UNL     1      -0.090   0.561  24.176  0.00  0.00    +0.206 C 
ATOM     11  C   UNL     1       0.224   2.892  23.707  0.00  0.00    +0.179 C 
ATOM     12  C   UNL     1      -2.818   3.656  24.903  0.00  0.00    +0.267 C 
ENDROOT
BRANCH  12  14
ATOM      5  N   UNL     1      -4.679   2.324  24.182  0.00  0.00    -0.247 NA
ATOM      6  N   UNL     1      -6.059   2.848  26.567  0.00  0.00    -0.259 NA
ATOM     14  C   UNL     1      -4.155   3.096  25.155  0.00  0.00    +0.144 A 
ATOM     17  C   UNL     1      -4.833   3.353  26.326  0.00  0.00    +0.143 A 
ATOM     21  C   UNL     1      -5.906   1.818  24.423  0.00  0.00    +0.131 A 
ATOM     22  C   UNL     1      -6.583   2.075  25.595  0.00  0.00    +0.130 A 
ENDBRANCH  12  14
BRANCH   7   2
ATOM      2  O   UNL     1      -0.973  -0.687  26.036  0.00  0.00    -0.485 OA
BRANCH   2  13
ATOM     13  C   UNL     1      -1.990  -1.267  25.329  0.00  0.00    +0.121 A 
ATOM     15  C   UNL     1      -3.255  -0.679  25.315  0.00  0.00    +0.045 A 
ATOM     16  C   UNL     1      -1.761  -2.447  24.621  0.00  0.00    +0.045 A 
ATOM     18  C   UNL     1      -4.291  -1.271  24.594  0.00  0.00    +0.004 A 
ATOM     19  C   UNL     1      -2.798  -3.039  23.899  0.00  0.00    +0.004 A 
ATOM     20  C   UNL     1      -4.062  -2.452  23.886  0.00  0.00    +0.000 A 
ENDBRANCH   2  13
ENDBRANCH   7   2
TORSDOF 3
ENDMDL
MODEL 4
REMARK VINA RESULT:      -5.0      1.744      4.475
REMARK  Name = 75367673
REMARK  3 active torsions:
REMARK  status: ('A' for Active; 'I' for Inactive)
REMARK    1  A    between atoms: O_2  and  C_7
REMARK    2  A    between atoms: O_2  and  C_13
REMARK    3  A    between atoms: C_12  and  C_14
REMARK                            x       y       z     vdW  Elec       q    Type
REMARK                         _______ _______ _______ _____ _____    ______ ____
ROOT
ATOM      1  O   UNL     1      -1.014  -2.346  25.134  0.00  0.00    -0.375 OA
ATOM      3  O   UNL     1      -5.467  -0.646  24.371  0.00  0.00    -0.268 OA
ATOM      4  N   UNL     1      -3.166  -0.328  24.072  0.00  0.00    -0.290 N 
ATOM      7  C   UNL     1      -0.638  -0.073  24.328  0.00  0.00    +0.216 C 
ATOM      8  C   UNL     1      -2.009   0.575  24.116  0.00  0.00    +0.155 C 
ATOM      9  C   UNL     1      -2.936  -1.737  23.744  0.00  0.00    +0.136 C 
ATOM     10  C   UNL     1      -0.606  -1.035  25.515  0.00  0.00    +0.206 C 
ATOM     11  C   UNL     1      -2.418  -2.503  24.955  0.00  0.00    +0.179 C 
ATOM     12  C   UNL     1      -4.476   0.082  24.365  0.00  0.00    +0.267 C 
ENDROOT
BRANCH  12  14
ATOM      5  N   UNL     1      -4.146   2.407  23.872  0.00  0.00    -0.247 NA
ATOM      6  N   UNL     1      -5.673   3.161  26.100  0.00  0.00    -0.259 NA
ATOM     14  C   UNL     1      -4.707   1.498  24.693  0.00  0.00    +0.144 A 
ATOM     17  C   UNL     1      -5.457   1.868  25.788  0.00  0.00    +0.143 A 
ATOM     21  C   UNL     1      -4.362   3.701  24.185  0.00  0.00    +0.131 A 
ATOM     22  C   UNL     1      -5.113   4.070  25.279  0.00  0.00    +0.130 A 
ENDBRANCH  12  14
BRANCH   7   2
ATOM      2  O   UNL     1       0.286   0.990  24.566  0.00  0.00    -0.485 OA
BRANCH   2  13
ATOM     13  C   UNL     1      -0.252   2.223  24.814  0.00  0.00    +0.121 A 
ATOM     15  C   UNL     1      -0.075   3.259  23.897  0.00  0.00    +0.045 A 
ATOM     16  C   UNL     1      -0.977   2.443  25.985  0.00  0.00    +0.045 A 
ATOM     18  C   UNL     1      -0.623   4.515  24.151  0.00  0.00    +0.004 A 
ATOM     19  C   UNL     1      -1.526   3.700  26.239  0.00  0.00    +0.004 A 
ATOM     20  C   UNL     1      -1.349   4.736  25.322  0.00  0.00    +0.000 A 
ENDBRANCH   2  13
ENDBRANCH   7   2
TORSDOF 3
ENDMDL
MODEL 5
REMARK VINA RESULT:      -4.9      2.073      4.910
REMARK  Name = 75367673
REMARK  3 active torsions:
REMARK  status: ('A' for Active; 'I' for Inactive)
REMARK    1  A    between atoms: O_2  and  C_7
REMARK    2  A    between atoms: O_2  and  C_13
REMARK    3  A    between atoms: C_12  and  C_14
REMARK                            x       y       z     vdW  Elec       q    Type
REMARK                         _______ _______ _______ _____ _____    ______ ____
ROOT
ATOM      1  O   UNL     1      -4.389  -2.826  23.870  0.00  0.00    -0.375 OA
ATOM      3  O   UNL     1       0.024  -1.554  25.355  0.00  0.00    -0.268 OA
ATOM      4  N   UNL     1      -2.271  -1.088  25.394  0.00  0.00    -0.290 N 
ATOM      7  C   UNL     1      -4.721  -0.615  24.849  0.00  0.00    +0.216 C 
ATOM      8  C   UNL     1      -3.351  -0.098  25.297  0.00  0.00    +0.155 C 
ATOM      9  C   UNL     1      -2.633  -2.499  25.545  0.00  0.00    +0.136 C 
ATOM     10  C   UNL     1      -4.657  -1.458  23.576  0.00  0.00    +0.206 C 
ATOM     11  C   UNL     1      -3.035  -3.108  24.207  0.00  0.00    +0.179 C 
ATOM     12  C   UNL     1      -0.910  -0.755  25.312  0.00  0.00    +0.267 C 
ENDROOT
BRANCH  12  14
ATOM      5  N   UNL     1      -0.594   1.420  26.274  0.00  0.00    -0.247 NA
ATOM      6  N   UNL     1       0.154   2.481  23.788  0.00  0.00    -0.259 NA
ATOM     14  C   UNL     1      -0.546   0.663  25.160  0.00  0.00    +0.144 A 
ATOM     17  C   UNL     1      -0.179   1.184  23.940  0.00  0.00    +0.143 A 
ATOM     21  C   UNL     1      -0.261   2.718  26.123  0.00  0.00    +0.131 A 
ATOM     22  C   UNL     1       0.107   3.238  24.901  0.00  0.00    +0.130 A 
ENDBRANCH  12  14
BRANCH   7   2
ATOM      2  O   UNL     1      -5.535   0.533  24.606  0.00  0.00    -0.485 OA
BRANCH   2  13
ATOM     13  C   UNL     1      -4.918   1.750  24.704  0.00  0.00    +0.121 A 
ATOM     15  C   UNL     1      -5.238   2.614  25.751  0.00  0.00    +0.045 A 
ATOM     16  C   UNL     1      -3.967   2.127  23.754  0.00  0.00    +0.045 A 
ATOM     18  C   UNL     1      -4.609   3.854  25.849  0.00  0.00    +0.004 A 
ATOM     19  C   UNL     1      -3.338   3.368  23.852  0.00  0.00    +0.004 A 
ATOM     20  C   UNL     1      -3.659   4.232  24.899  0.00  0.00    +0.000 A 
ENDBRANCH   2  13
ENDBRANCH   7   2
TORSDOF 3
ENDMDL
MODEL 6
REMARK VINA RESULT:      -4.2      2.049      4.797
REMARK  Name = 75367673
REMARK  3 active torsions:
REMARK  status: ('A' for Active; 'I' for Inactive)
REMARK    1  A    between atoms: O_2  and  C_7
REMARK    2  A    between atoms: O_2  and  C_13
REMARK    3  A    between atoms: C_12  and  C_14
REMARK                            x       y       z     vdW  Elec       q    Type
REMARK                         _______ _______ _______ _____ _____    ______ ____
ROOT
ATOM      1  O   UNL     1      -0.300   3.642  25.009  0.00  0.00    -0.375 OA
ATOM      3  O   UNL     1       0.475  -1.119  25.184  0.00  0.00    -0.268 OA
ATOM      4  N   UNL     1      -0.647   0.651  24.137  0.00  0.00    -0.290 N 
ATOM      7  C   UNL     1      -2.024   2.719  23.548  0.00  0.00    +0.216 C 
ATOM      8  C   UNL     1      -1.896   1.194  23.589  0.00  0.00    +0.155 C 
ATOM      9  C   UNL     1       0.539   1.510  24.147  0.00  0.00    +0.136 C 
ATOM     10  C   UNL     1      -1.696   3.385  24.884  0.00  0.00    +0.206 C 
ATOM     11  C   UNL     1       0.491   2.497  25.307  0.00  0.00    +0.179 C 
ATOM     12  C   UNL     1      -0.541  -0.637  24.686  0.00  0.00    +0.267 C 
ENDROOT
BRANCH  12  14
ATOM      5  N   UNL     1      -1.699  -2.566  23.852  0.00  0.00    -0.247 NA
ATOM      6  N   UNL     1      -3.924  -2.006  25.464  0.00  0.00    -0.259 NA
ATOM     14  C   UNL     1      -1.733  -1.500  24.676  0.00  0.00    +0.144 A 
ATOM     17  C   UNL     1      -2.826  -1.225  25.467  0.00  0.00    +0.143 A 
ATOM     21  C   UNL     1      -2.797  -3.348  23.849  0.00  0.00    +0.131 A 
ATOM     22  C   UNL     1      -3.890  -3.073  24.642  0.00  0.00    +0.130 A 
ENDBRANCH  12  14
BRANCH   7   2
ATOM      2  O   UNL     1      -3.379   3.010  23.204  0.00  0.00    -0.485 OA
BRANCH   2  13
ATOM     13  C   UNL     1      -4.319   2.762  24.166  0.00  0.00    +0.121 A 
ATOM     15  C   UNL     1      -4.805   3.806  24.953  0.00  0.00    +0.045 A 
ATOM     16  C   UNL     1      -4.792   1.463  24.359  0.00  0.00    +0.045 A 
ATOM     18  C   UNL     1      -5.763   3.552  25.934  0.00  0.00    +0.004 A 
ATOM     19  C   UNL     1      -5.752   1.210  25.340  0.00  0.00    +0.004 A 
ATOM     20  C   UNL     1      -6.236   2.254  26.128  0.00  0.00    +0.000 A 
ENDBRANCH   2  13
ENDBRANCH   7   2
TORSDOF 3
ENDMDL
MODEL 7
REMARK VINA RESULT:      -2.8     15.299     17.032
REMARK  Name = 75367673
REMARK  3 active torsions:
REMARK  status: ('A' for Active; 'I' for Inactive)
REMARK    1  A    between atoms: O_2  and  C_7
REMARK    2  A    between atoms: O_2  and  C_13
REMARK    3  A    between atoms: C_12  and  C_14
REMARK                            x       y       z     vdW  Elec       q    Type
REMARK                         _______ _______ _______ _____ _____    ______ ____
ROOT
ATOM      1  O   UNL     1      -0.881  -9.505  12.611  0.00  0.00    -0.375 OA
ATOM      3  O   UNL     1      -4.487 -10.058  15.773  0.00  0.00    -0.268 OA
ATOM      4  N   UNL     1      -3.621 -10.604  13.666  0.00  0.00    -0.290 N 
ATOM      7  C   UNL     1      -2.626 -10.614  11.315  0.00  0.00    +0.216 C 
ATOM      8  C   UNL     1      -3.846 -10.778  12.226  0.00  0.00    +0.155 C 
ATOM      9  C   UNL     1      -2.262 -10.776  14.183  0.00  0.00    +0.136 C 
ATOM     10  C   UNL     1      -1.847  -9.327  11.579  0.00  0.00    +0.206 C 
ATOM     11  C   UNL     1      -1.418  -9.533  13.930  0.00  0.00    +0.179 C 
ATOM     12  C   UNL     1      -4.636 -10.245  14.567  0.00  0.00    +0.267 C 
ENDROOT
BRANCH  12  14
ATOM      5  N   UNL     1      -6.125  -9.400  12.885  0.00  0.00    -0.247 NA
ATOM      6  N   UNL     1      -8.350 -10.420  14.254  0.00  0.00    -0.259 NA
ATOM     14  C   UNL     1      -6.002 -10.073  14.047  0.00  0.00    +0.144 A 
ATOM     17  C   UNL     1      -7.095 -10.573  14.718  0.00  0.00    +0.143 A 
ATOM     21  C   UNL     1      -7.381  -9.246  12.420  0.00  0.00    +0.131 A 
ATOM     22  C   UNL     1      -8.474  -9.748  13.092  0.00  0.00    +0.130 A 
ENDBRANCH  12  14
BRANCH   7   2
ATOM      2  O   UNL     1      -3.115 -10.595   9.973  0.00  0.00    -0.485 OA
BRANCH   2  13
ATOM     13  C   UNL     1      -4.247  -9.861   9.746  0.00  0.00    +0.121 A 
ATOM     15  C   UNL     1      -5.396 -10.483   9.258  0.00  0.00    +0.045 A 
ATOM     16  C   UNL     1      -4.250  -8.490  10.004  0.00  0.00    +0.045 A 
ATOM     18  C   UNL     1      -6.549  -9.734   9.026  0.00  0.00    +0.004 A 
ATOM     19  C   UNL     1      -5.405  -7.741   9.773  0.00  0.00    +0.004 A 
ATOM     20  C   UNL     1      -6.553  -8.362   9.284  0.00  0.00    +0.000 A 
ENDBRANCH   2  13
ENDBRANCH   7   2
TORSDOF 3
ENDMDL
MODEL 8
REMARK VINA RESULT:      -2.6     13.557     15.624
REMARK  Name = 75367673
REMARK  3 active torsions:
REMARK  status: ('A' for Active; 'I' for Inactive)
REMARK    1  A    between atoms: O_2  and  C_7
REMARK    2  A    between atoms: O_2  and  C_13
REMARK    3  A    between atoms: C_12  and  C_14
REMARK                            x       y       z     vdW  Elec       q    Type
REMARK                         _______ _______ _______ _____ _____    ______ ____
ROOT
ATOM      1  O   UNL     1      -3.471 -10.085  16.273  0.00  0.00    -0.375 OA
ATOM      3  O   UNL     1      -7.710  -9.338  18.459  0.00  0.00    -0.268 OA
ATOM      4  N   UNL     1      -6.578 -10.285  16.640  0.00  0.00    -0.290 N 
ATOM      7  C   UNL     1      -5.114 -10.776  14.606  0.00  0.00    +0.216 C 
ATOM      8  C   UNL     1      -6.505 -10.515  15.192  0.00  0.00    +0.155 C 
ATOM      9  C   UNL     1      -5.485 -10.781  17.479  0.00  0.00    +0.136 C 
ATOM     10  C   UNL     1      -4.079  -9.737  15.032  0.00  0.00    +0.206 C 
ATOM     11  C   UNL     1      -4.282  -9.848  17.419  0.00  0.00    +0.179 C 
ATOM     12  C   UNL     1      -7.624  -9.581  17.257  0.00  0.00    +0.267 C 
ENDROOT
BRANCH  12  14
ATOM      5  N   UNL     1      -9.141  -7.824  16.649  0.00  0.00    -0.247 NA
ATOM      6  N   UNL     1     -10.300  -9.426  14.660  0.00  0.00    -0.259 NA
ATOM     14  C   UNL     1      -8.723  -9.083  16.414  0.00  0.00    +0.144 A 
ATOM     17  C   UNL     1      -9.292  -9.870  15.437  0.00  0.00    +0.143 A 
ATOM     21  C   UNL     1     -10.150  -7.379  15.872  0.00  0.00    +0.131 A 
ATOM     22  C   UNL     1     -10.718  -8.166  14.895  0.00  0.00    +0.130 A 
ENDBRANCH  12  14
BRANCH   7   2
ATOM      2  O   UNL     1      -5.253 -10.739  13.185  0.00  0.00    -0.485 OA
BRANCH   2  13
ATOM     13  C   UNL     1      -4.132 -10.414  12.471  0.00  0.00    +0.121 A 
ATOM     15  C   UNL     1      -4.252  -9.766  11.242  0.00  0.00    +0.045 A 
ATOM     16  C   UNL     1      -2.870 -10.731  12.974  0.00  0.00    +0.045 A 
ATOM     18  C   UNL     1      -3.109  -9.435  10.514  0.00  0.00    +0.004 A 
ATOM     19  C   UNL     1      -1.727 -10.399  12.246  0.00  0.00    +0.004 A 
ATOM     20  C   UNL     1      -1.846  -9.752  11.016  0.00  0.00    +0.000 A 
ENDBRANCH   2  13
ENDBRANCH   7   2
TORSDOF 3
ENDMDL
MODEL 9
REMARK VINA RESULT:      -2.4      1.882      4.762
REMARK  Name = 75367673
REMARK  3 active torsions:
REMARK  status: ('A' for Active; 'I' for Inactive)
REMARK    1  A    between atoms: O_2  and  C_7
REMARK    2  A    between atoms: O_2  and  C_13
REMARK    3  A    between atoms: C_12  and  C_14
REMARK                            x       y       z     vdW  Elec       q    Type
REMARK                         _______ _______ _______ _____ _____    ______ ____
ROOT
ATOM      1  O   UNL     1      -1.466  -2.417  25.098  0.00  0.00    -0.375 OA
ATOM      3  O   UNL     1      -5.726  -0.190  24.653  0.00  0.00    -0.268 OA
ATOM      4  N   UNL     1      -3.439  -0.175  24.144  0.00  0.00    -0.290 N 
ATOM      7  C   UNL     1      -0.886  -0.234  24.172  0.00  0.00    +0.216 C 
ATOM      8  C   UNL     1      -2.180   0.575  24.052  0.00  0.00    +0.155 C 
ATOM      9  C   UNL     1      -3.415  -1.611  23.855  0.00  0.00    +0.136 C 
ATOM     10  C   UNL     1      -0.866  -1.157  25.389  0.00  0.00    +0.206 C 
ATOM     11  C   UNL     1      -2.888  -2.401  25.047  0.00  0.00    +0.179 C 
ATOM     12  C   UNL     1      -4.657   0.406  24.532  0.00  0.00    +0.267 C 
ENDROOT
BRANCH  12  14
ATOM      5  N   UNL     1      -3.715   2.595  24.250  0.00  0.00    -0.247 NA
ATOM      6  N   UNL     1      -5.672   3.720  25.914  0.00  0.00    -0.259 NA
ATOM     14  C   UNL     1      -4.681   1.848  24.822  0.00  0.00    +0.144 A 
ATOM     17  C   UNL     1      -5.641   2.401  25.639  0.00  0.00    +0.143 A 
ATOM     21  C   UNL     1      -3.746   3.915  24.525  0.00  0.00    +0.131 A 
ATOM     22  C   UNL     1      -4.708   4.467  25.342  0.00  0.00    +0.130 A 
ENDBRANCH  12  14
BRANCH   7   2
ATOM      2  O   UNL     1       0.180   0.709  24.287  0.00  0.00    -0.485 OA
BRANCH   2  13
ATOM     13  C   UNL     1       1.233   0.547  23.429  0.00  0.00    +0.121 A 
ATOM     15  C   UNL     1       1.121  -0.319  22.342  0.00  0.00    +0.045 A 
ATOM     16  C   UNL     1       2.420   1.249  23.644  0.00  0.00    +0.045 A 
ATOM     18  C   UNL     1       2.195  -0.485  21.469  0.00  0.00    +0.004 A 
ATOM     19  C   UNL     1       3.495   1.083  22.769  0.00  0.00    +0.004 A 
ATOM     20  C   UNL     1       3.383   0.216  21.683  0.00  0.00    +0.000 A 
ENDBRANCH   2  13
ENDBRANCH   7   2
TORSDOF 3
ENDMDL
MODEL 10
REMARK VINA RESULT:      -1.8      1.963      4.494
REMARK  Name = 75367673
REMARK  3 active torsions:
REMARK  status: ('A' for Active; 'I' for Inactive)
REMARK    1  A    between atoms: O_2  and  C_7
REMARK    2  A    between atoms: O_2  and  C_13
REMARK    3  A    between atoms: C_12  and  C_14
REMARK                            x       y       z     vdW  Elec       q    Type
REMARK                         _______ _______ _______ _____ _____    ______ ____
ROOT
ATOM      1  O   UNL     1      -3.176   4.482  25.736  0.00  0.00    -0.375 OA
ATOM      3  O   UNL     1       0.887   2.440  24.117  0.00  0.00    -0.268 OA
ATOM      4  N   UNL     1      -1.455   2.410  24.133  0.00  0.00    -0.290 N 
ATOM      7  C   UNL     1      -3.936   2.390  24.736  0.00  0.00    +0.216 C 
ATOM      8  C   UNL     1      -2.698   1.636  24.245  0.00  0.00    +0.155 C 
ATOM      9  C   UNL     1      -1.552   3.866  24.011  0.00  0.00    +0.136 C 
ATOM     10  C   UNL     1      -3.687   3.183  26.018  0.00  0.00    +0.206 C 
ATOM     11  C   UNL     1      -1.801   4.514  25.367  0.00  0.00    +0.179 C 
ATOM     12  C   UNL     1      -0.178   1.828  24.175  0.00  0.00    +0.267 C 
ENDROOT
BRANCH  12  14
ATOM      5  N   UNL     1      -0.288  -0.153  25.524  0.00  0.00    -0.247 NA
ATOM      6  N   UNL     1       0.303  -1.770  23.310  0.00  0.00    -0.259 NA
ATOM     14  C   UNL     1      -0.081   0.365  24.297  0.00  0.00    +0.144 A 
ATOM     17  C   UNL     1       0.209  -0.429  23.210  0.00  0.00    +0.143 A 
ATOM     21  C   UNL     1      -0.194  -1.494  25.625  0.00  0.00    +0.131 A 
ATOM     22  C   UNL     1       0.096  -2.288  24.536  0.00  0.00    +0.130 A 
ENDBRANCH  12  14
BRANCH   7   2
ATOM      2  O   UNL     1      -4.944   1.408  24.985  0.00  0.00    -0.485 OA
BRANCH   2  13
ATOM     13  C   UNL     1      -4.553   0.100  24.907  0.00  0.00    +0.121 A 
ATOM     15  C   UNL     1      -4.660  -0.590  23.700  0.00  0.00    +0.045 A 
ATOM     16  C   UNL     1      -4.048  -0.544  26.037  0.00  0.00    +0.045 A 
ATOM     18  C   UNL     1      -4.263  -1.924  23.622  0.00  0.00    +0.004 A 
ATOM     19  C   UNL     1      -3.650  -1.879  25.958  0.00  0.00    +0.004 A 
ATOM     20  C   UNL     1      -3.757  -2.569  24.751  0.00  0.00    +0.000 A 
ENDBRANCH   2  13
ENDBRANCH   7   2
TORSDOF 3
ENDMDL
