MODEL 1
REMARK VINA RESULT:      -5.2      0.000      0.000
REMARK  Name = 9422045
REMARK  3 active torsions:
REMARK  status: ('A' for Active; 'I' for Inactive)
REMARK    1  A    between atoms: N_5  and  C_9
REMARK    2  A    between atoms: N_7  and  C_21
REMARK    3  A    between atoms: C_21  and  C_22
REMARK                            x       y       z     vdW  Elec       q    Type
REMARK                         _______ _______ _______ _____ _____    ______ ____
ROOT
ATOM      1  O   UNL     1      -0.011   2.292  24.911  0.00  0.00    -0.273 OA
ATOM      2  O   UNL     1      -4.268  -0.506  23.383  0.00  0.00    -0.270 OA
ATOM      4  N   UNL     1      -2.282  -0.113  24.473  0.00  0.00    -0.284 N 
ATOM      6  N   UNL     1      -2.228   2.795  24.978  0.00  0.00    -0.283 N 
ATOM      8  C   UNL     1      -1.506   0.506  25.529  0.00  0.00    +0.164 C 
ATOM      9  C   UNL     1      -0.137  -1.101  24.343  0.00  0.00    +0.094 C 
ATOM     10  C   UNL     1      -0.288  -0.410  25.700  0.00  0.00    +0.056 C 
ATOM     11  C   UNL     1      -1.577  -1.235  23.868  0.00  0.00    +0.131 C 
ATOM     12  C   UNL     1      -1.173   1.913  25.073  0.00  0.00    +0.238 C 
ATOM     13  C   UNL     1      -3.602   0.156  24.179  0.00  0.00    +0.249 C 
ATOM     14  C   UNL     1      -4.249   1.318  24.841  0.00  0.00    +0.058 A 
ATOM     15  C   UNL     1      -3.609   2.540  25.108  0.00  0.00    +0.046 A 
ATOM     17  C   UNL     1      -5.638   1.208  25.045  0.00  0.00    +0.015 A 
ATOM     18  C   UNL     1      -4.389   3.639  25.510  0.00  0.00    +0.024 A 
ATOM     19  C   UNL     1      -6.386   2.297  25.490  0.00  0.00    +0.001 A 
ATOM     20  C   UNL     1      -5.763   3.517  25.710  0.00  0.00    +0.002 A 
ATOM     25  H   UNL     1      -1.965   3.775  24.898  0.00  0.00    +0.155 HD
ENDROOT
BRANCH   9   5
ATOM      3  O   UNL     1       2.695  -1.351  23.848  0.00  0.00    -0.253 OA
ATOM      5  N   UNL     1       0.657  -0.322  23.427  0.00  0.00    -0.295 N 
ATOM      7  N   UNL     1       2.542   0.376  22.307  0.00  0.00    -0.296 N 
ATOM     16  C   UNL     1       2.026  -0.510  23.250  0.00  0.00    +0.300 C 
ATOM     24  H   UNL     1       0.209   0.443  22.930  0.00  0.00    +0.151 HD
ATOM     26  H   UNL     1       1.908   1.023  21.848  0.00  0.00    +0.151 HD
BRANCH   7  21
ATOM     21  C   UNL     1       3.937   0.396  21.933  0.00  0.00    +0.132 C 
BRANCH  21  22
ATOM     22  C   UNL     1       4.757   0.752  23.128  0.00  0.00    -0.016 C 
ATOM     23  C   UNL     1       5.716  -0.032  23.634  0.00  0.00    +0.005 C 
ENDBRANCH  21  22
ENDBRANCH   7  21
ENDBRANCH   9   5
TORSDOF 3
ENDMDL
MODEL 2
REMARK VINA RESULT:      -1.8      2.880      4.796
REMARK  Name = 9422045
REMARK  3 active torsions:
REMARK  status: ('A' for Active; 'I' for Inactive)
REMARK    1  A    between atoms: N_5  and  C_9
REMARK    2  A    between atoms: N_7  and  C_21
REMARK    3  A    between atoms: C_21  and  C_22
REMARK                            x       y       z     vdW  Elec       q    Type
REMARK                         _______ _______ _______ _____ _____    ______ ____
ROOT
ATOM      1  O   UNL     1       0.861   0.540  24.440  0.00  0.00    -0.273 OA
ATOM      2  O   UNL     1      -4.320   1.266  25.399  0.00  0.00    -0.270 OA
ATOM      4  N   UNL     1      -2.284   1.653  24.402  0.00  0.00    -0.284 N 
ATOM      6  N   UNL     1      -0.868  -0.936  24.479  0.00  0.00    -0.283 N 
ATOM      8  C   UNL     1      -1.221   1.290  23.487  0.00  0.00    +0.164 C 
ATOM      9  C   UNL     1      -0.844   3.528  24.329  0.00  0.00    +0.094 C 
ATOM     10  C   UNL     1      -0.543   2.619  23.136  0.00  0.00    +0.056 C 
ATOM     11  C   UNL     1      -2.223   3.061  24.773  0.00  0.00    +0.131 C 
ATOM     12  C   UNL     1      -0.327   0.302  24.210  0.00  0.00    +0.238 C 
ATOM     13  C   UNL     1      -3.357   0.859  24.747  0.00  0.00    +0.249 C 
ATOM     14  C   UNL     1      -3.343  -0.566  24.329  0.00  0.00    +0.058 A 
ATOM     15  C   UNL     1      -2.196  -1.378  24.306  0.00  0.00    +0.046 A 
ATOM     17  C   UNL     1      -4.606  -1.150  24.110  0.00  0.00    +0.015 A 
ATOM     18  C   UNL     1      -2.352  -2.765  24.130  0.00  0.00    +0.024 A 
ATOM     19  C   UNL     1      -4.734  -2.521  23.891  0.00  0.00    +0.001 A 
ATOM     20  C   UNL     1      -3.607  -3.331  23.914  0.00  0.00    +0.002 A 
ATOM     25  H   UNL     1      -0.197  -1.651  24.750  0.00  0.00    +0.155 HD
ENDROOT
BRANCH   9   5
ATOM      3  O   UNL     1      -1.249   2.339  26.927  0.00  0.00    -0.253 OA
ATOM      5  N   UNL     1       0.132   3.381  25.378  0.00  0.00    -0.295 N 
ATOM      7  N   UNL     1       0.972   2.777  27.435  0.00  0.00    -0.296 N 
ATOM     16  C   UNL     1      -0.150   2.791  26.609  0.00  0.00    +0.300 C 
ATOM     24  H   UNL     1       1.056   3.780  25.239  0.00  0.00    +0.151 HD
ATOM     26  H   UNL     1       1.844   3.156  27.078  0.00  0.00    +0.151 HD
BRANCH   7  21
ATOM     21  C   UNL     1       0.955   2.223  28.768  0.00  0.00    +0.132 C 
BRANCH  21  22
ATOM     22  C   UNL     1       2.204   2.627  29.479  0.00  0.00    -0.016 C 
ATOM     23  C   UNL     1       3.267   3.165  28.871  0.00  0.00    +0.005 C 
ENDBRANCH  21  22
ENDBRANCH   7  21
ENDBRANCH   9   5
TORSDOF 3
ENDMDL
