MODEL 1
REMARK VINA RESULT:      -3.6      0.000      0.000
REMARK  Name = 38027463
REMARK  14 active torsions:
REMARK  status: ('A' for Active; 'I' for Inactive)
REMARK    1  A    between atoms: N_3  and  C_13
REMARK    2  A    between atoms: N_4  and  C_20
REMARK    3  A    between atoms: N_5  and  C_22
REMARK    4  A    between atoms: N_5  and  C_27
REMARK    5  A    between atoms: N_5  and  C_28
REMARK    6  A    between atoms: C_6  and  C_10
REMARK    7  A    between atoms: C_7  and  C_13
REMARK    8  A    between atoms: C_9  and  C_14
REMARK    9  A    between atoms: C_10  and  C_15
REMARK   10  A    between atoms: C_10  and  C_16
REMARK   11  A    between atoms: C_11  and  C_17
REMARK   12  A    between atoms: C_14  and  C_18
REMARK   13  A    between atoms: C_19  and  C_21
REMARK   14  A    between atoms: C_20  and  C_22
REMARK                            x       y       z     vdW  Elec       q    Type
REMARK                         _______ _______ _______ _____ _____    ______ ____
ROOT
ATOM      6  C   UNL     1      -1.481   0.248  24.850  0.00  0.00    +0.000 C 
ATOM      7  C   UNL     1      -0.891  -1.135  24.476  0.00  0.00    +0.032 C 
ATOM      8  C   UNL     1      -2.644   0.086  25.840  0.00  0.00    +0.012 C 
ATOM      9  C   UNL     1      -3.775  -0.790  25.271  0.00  0.00    +0.023 C 
ATOM     11  C   UNL     1      -3.242  -2.060  24.639  0.00  0.00    -0.073 C 
ATOM     12  C   UNL     1      -1.947  -2.201  24.304  0.00  0.00    -0.022 C 
ATOM     17  C   UNL     1      -4.223  -3.183  24.445  0.00  0.00    +0.039 C 
ENDROOT
BRANCH   6  10
ATOM     10  C   UNL     1      -0.418   1.178  25.445  0.00  0.00    -0.013 C 
ATOM     15  C   UNL     1       0.079   2.162  24.391  0.00  0.00    +0.007 C 
ATOM     16  C   UNL     1      -0.978   1.918  26.656  0.00  0.00    +0.007 C 
ENDBRANCH   6  10
BRANCH   7  13
ATOM     13  C   UNL     1      -0.040  -1.047  23.204  0.00  0.00    +0.112 C 
BRANCH  13   3
ATOM      2  O   UNL     1       2.019  -0.090  21.447  0.00  0.00    -0.270 OA
ATOM      3  N   UNL     1       1.339  -0.860  23.528  0.00  0.00    -0.311 N 
ATOM     19  C   UNL     1       2.277  -0.388  22.610  0.00  0.00    +0.244 C 
ATOM     30  H   UNL     1       1.610  -0.998  24.496  0.00  0.00    +0.149 HD
BRANCH  19  21
ATOM     21  C   UNL     1       3.676  -0.273  23.095  0.00  0.00    +0.037 A 
ATOM     23  C   UNL     1       4.377   0.921  22.928  0.00  0.00    +0.013 A 
ATOM     24  C   UNL     1       4.289  -1.360  23.720  0.00  0.00    +0.013 A 
ATOM     25  C   UNL     1       5.691   1.029  23.385  0.00  0.00    +0.001 A 
ATOM     26  C   UNL     1       5.602  -1.252  24.176  0.00  0.00    +0.001 A 
ATOM     29  C   UNL     1       6.303  -0.058  24.009  0.00  0.00    +0.000 A 
ENDBRANCH  19  21
ENDBRANCH  13   3
ENDBRANCH   7  13
BRANCH   9  14
ATOM     14  C   UNL     1      -4.637  -0.003  24.277  0.00  0.00    +0.103 C 
BRANCH  14  18
ATOM      1  O   UNL     1      -5.774   1.525  25.769  0.00  0.00    -0.276 OA
ATOM      4  N   UNL     1      -4.419   2.370  24.078  0.00  0.00    -0.314 N 
ATOM     18  C   UNL     1      -5.022   1.358  24.812  0.00  0.00    +0.214 C 
ATOM     31  H   UNL     1      -3.806   2.126  23.307  0.00  0.00    +0.149 HD
BRANCH   4  20
ATOM     20  C   UNL     1      -4.611   3.773  24.365  0.00  0.00    +0.119 C 
BRANCH  20  22
ATOM     22  C   UNL     1      -3.341   4.567  24.103  0.00  0.00    +0.102 C 
BRANCH  22   5
ATOM      5  N   UNL     1      -2.377   4.350  25.175  0.00  0.00    -0.307 NA
ATOM     27  C   UNL     1      -3.033   4.421  26.482  0.00  0.00    +0.104 C 
ATOM     28  C   UNL     1      -1.291   5.329  25.099  0.00  0.00    +0.104 C 
ENDBRANCH  22   5
ENDBRANCH  20  22
ENDBRANCH   4  20
ENDBRANCH  14  18
ENDBRANCH   9  14
TORSDOF 9
ENDMDL
MODEL 2
REMARK VINA RESULT:      -2.9      2.088      6.751
REMARK  Name = 38027463
REMARK  14 active torsions:
REMARK  status: ('A' for Active; 'I' for Inactive)
REMARK    1  A    between atoms: N_3  and  C_13
REMARK    2  A    between atoms: N_4  and  C_20
REMARK    3  A    between atoms: N_5  and  C_22
REMARK    4  A    between atoms: N_5  and  C_27
REMARK    5  A    between atoms: N_5  and  C_28
REMARK    6  A    between atoms: C_6  and  C_10
REMARK    7  A    between atoms: C_7  and  C_13
REMARK    8  A    between atoms: C_9  and  C_14
REMARK    9  A    between atoms: C_10  and  C_15
REMARK   10  A    between atoms: C_10  and  C_16
REMARK   11  A    between atoms: C_11  and  C_17
REMARK   12  A    between atoms: C_14  and  C_18
REMARK   13  A    between atoms: C_19  and  C_21
REMARK   14  A    between atoms: C_20  and  C_22
REMARK                            x       y       z     vdW  Elec       q    Type
REMARK                         _______ _______ _______ _____ _____    ______ ____
ROOT
ATOM      6  C   UNL     1      -4.139   3.287  25.699  0.00  0.00    +0.000 C 
ATOM      7  C   UNL     1      -3.926   3.935  24.309  0.00  0.00    +0.032 C 
ATOM      8  C   UNL     1      -3.305   4.015  26.765  0.00  0.00    +0.012 C 
ATOM      9  C   UNL     1      -1.800   3.993  26.441  0.00  0.00    +0.023 C 
ATOM     11  C   UNL     1      -1.528   4.366  24.998  0.00  0.00    -0.073 C 
ATOM     12  C   UNL     1      -2.494   4.347  24.063  0.00  0.00    -0.022 C 
ATOM     17  C   UNL     1      -0.129   4.805  24.664  0.00  0.00    +0.039 C 
ENDROOT
BRANCH   6  10
ATOM     10  C   UNL     1      -5.616   3.287  26.107  0.00  0.00    -0.013 C 
ATOM     15  C   UNL     1      -6.332   4.497  25.514  0.00  0.00    +0.007 C 
ATOM     16  C   UNL     1      -6.289   1.991  25.668  0.00  0.00    +0.007 C 
ENDBRANCH   6  10
BRANCH   7  13
ATOM     13  C   UNL     1      -4.390   3.000  23.186  0.00  0.00    +0.112 C 
BRANCH  13   3
ATOM      2  O   UNL     1      -2.025   1.377  23.060  0.00  0.00    -0.270 OA
ATOM      3  N   UNL     1      -4.272   1.633  23.584  0.00  0.00    -0.311 N 
ATOM     19  C   UNL     1      -3.080   0.915  23.488  0.00  0.00    +0.244 C 
ATOM     30  H   UNL     1      -5.078   1.210  24.033  0.00  0.00    +0.149 HD
BRANCH  19  21
ATOM     21  C   UNL     1      -3.128  -0.506  23.919  0.00  0.00    +0.037 A 
ATOM     23  C   UNL     1      -2.058  -1.058  24.622  0.00  0.00    +0.013 A 
ATOM     24  C   UNL     1      -4.245  -1.287  23.621  0.00  0.00    +0.013 A 
ATOM     25  C   UNL     1      -2.105  -2.392  25.028  0.00  0.00    +0.001 A 
ATOM     26  C   UNL     1      -4.291  -2.621  24.025  0.00  0.00    +0.001 A 
ATOM     29  C   UNL     1      -3.220  -3.174  24.729  0.00  0.00    +0.000 A 
ENDBRANCH  19  21
ENDBRANCH  13   3
ENDBRANCH   7  13
BRANCH   9  14
ATOM     14  C   UNL     1      -1.181   2.633  26.783  0.00  0.00    +0.103 C 
BRANCH  14  18
ATOM      1  O   UNL     1       1.223   2.846  26.612  0.00  0.00    -0.276 OA
ATOM      4  N   UNL     1       0.046   1.760  24.927  0.00  0.00    -0.314 N 
ATOM     18  C   UNL     1       0.169   2.442  26.129  0.00  0.00    +0.214 C 
ATOM     31  H   UNL     1      -0.873   1.461  24.617  0.00  0.00    +0.149 HD
BRANCH   4  20
ATOM     20  C   UNL     1       1.174   1.439  24.084  0.00  0.00    +0.119 C 
BRANCH  20  22
ATOM     22  C   UNL     1       1.090   0.010  23.571  0.00  0.00    +0.102 C 
BRANCH  22   5
ATOM      5  N   UNL     1       2.196  -0.270  22.664  0.00  0.00    -0.307 NA
ATOM     27  C   UNL     1       3.200   0.793  22.730  0.00  0.00    +0.104 C 
ATOM     28  C   UNL     1       1.712  -0.424  21.291  0.00  0.00    +0.104 C 
ENDBRANCH  22   5
ENDBRANCH  20  22
ENDBRANCH   4  20
ENDBRANCH  14  18
ENDBRANCH   9  14
TORSDOF 9
ENDMDL
MODEL 3
REMARK VINA RESULT:      -1.7      1.717      7.107
REMARK  Name = 38027463
REMARK  14 active torsions:
REMARK  status: ('A' for Active; 'I' for Inactive)
REMARK    1  A    between atoms: N_3  and  C_13
REMARK    2  A    between atoms: N_4  and  C_20
REMARK    3  A    between atoms: N_5  and  C_22
REMARK    4  A    between atoms: N_5  and  C_27
REMARK    5  A    between atoms: N_5  and  C_28
REMARK    6  A    between atoms: C_6  and  C_10
REMARK    7  A    between atoms: C_7  and  C_13
REMARK    8  A    between atoms: C_9  and  C_14
REMARK    9  A    between atoms: C_10  and  C_15
REMARK   10  A    between atoms: C_10  and  C_16
REMARK   11  A    between atoms: C_11  and  C_17
REMARK   12  A    between atoms: C_14  and  C_18
REMARK   13  A    between atoms: C_19  and  C_21
REMARK   14  A    between atoms: C_20  and  C_22
REMARK                            x       y       z     vdW  Elec       q    Type
REMARK                         _______ _______ _______ _____ _____    ______ ____
ROOT
ATOM      6  C   UNL     1      -2.644   3.607  24.981  0.00  0.00    +0.000 C 
ATOM      7  C   UNL     1      -3.679   3.225  23.893  0.00  0.00    +0.032 C 
ATOM      8  C   UNL     1      -1.273   3.885  24.344  0.00  0.00    +0.012 C 
ATOM      9  C   UNL     1      -0.737   2.670  23.564  0.00  0.00    +0.023 C 
ATOM     11  C   UNL     1      -1.794   2.068  22.661  0.00  0.00    -0.073 C 
ATOM     12  C   UNL     1      -3.102   2.340  22.814  0.00  0.00    -0.022 C 
ATOM     17  C   UNL     1      -1.308   1.184  21.546  0.00  0.00    +0.039 C 
ENDROOT
BRANCH   6  10
ATOM     10  C   UNL     1      -3.095   4.826  25.792  0.00  0.00    -0.013 C 
ATOM     15  C   UNL     1      -3.163   4.480  27.277  0.00  0.00    +0.007 C 
ATOM     16  C   UNL     1      -2.153   6.002  25.553  0.00  0.00    +0.007 C 
ENDBRANCH   6  10
BRANCH   7  13
ATOM     13  C   UNL     1      -4.906   2.546  24.512  0.00  0.00    +0.112 C 
BRANCH  13   3
ATOM      2  O   UNL     1      -2.943   0.894  25.800  0.00  0.00    -0.270 OA
ATOM      3  N   UNL     1      -4.797   1.124  24.423  0.00  0.00    -0.311 N 
ATOM     19  C   UNL     1      -3.808   0.396  25.084  0.00  0.00    +0.244 C 
ATOM     30  H   UNL     1      -5.532   0.633  23.924  0.00  0.00    +0.149 HD
BRANCH  19  21
ATOM     21  C   UNL     1      -3.815  -1.074  24.869  0.00  0.00    +0.037 A 
ATOM     23  C   UNL     1      -3.175  -1.915  25.778  0.00  0.00    +0.013 A 
ATOM     24  C   UNL     1      -4.462  -1.613  23.757  0.00  0.00    +0.013 A 
ATOM     25  C   UNL     1      -3.183  -3.296  25.577  0.00  0.00    +0.001 A 
ATOM     26  C   UNL     1      -4.469  -2.992  23.554  0.00  0.00    +0.001 A 
ATOM     29  C   UNL     1      -3.829  -3.834  24.464  0.00  0.00    +0.000 A 
ENDBRANCH  19  21
ENDBRANCH  13   3
ENDBRANCH   7  13
BRANCH   9  14
ATOM     14  C   UNL     1      -0.162   1.613  24.515  0.00  0.00    +0.103 C 
BRANCH  14  18
ATOM      1  O   UNL     1       0.189  -0.618  23.646  0.00  0.00    -0.276 OA
ATOM      4  N   UNL     1       1.794   1.023  23.274  0.00  0.00    -0.314 N 
ATOM     18  C   UNL     1       0.596   0.534  23.774  0.00  0.00    +0.214 C 
ATOM     31  H   UNL     1       2.037   1.997  23.428  0.00  0.00    +0.149 HD
BRANCH   4  20
ATOM     20  C   UNL     1       2.725   0.211  22.524  0.00  0.00    +0.119 C 
BRANCH  20  22
ATOM     22  C   UNL     1       4.137   0.767  22.615  0.00  0.00    +0.102 C 
BRANCH  22   5
ATOM      5  N   UNL     1       5.023  -0.200  23.251  0.00  0.00    -0.307 NA
ATOM     27  C   UNL     1       4.268  -1.366  23.714  0.00  0.00    +0.104 C 
ATOM     28  C   UNL     1       5.741   0.415  24.369  0.00  0.00    +0.104 C 
ENDBRANCH  22   5
ENDBRANCH  20  22
ENDBRANCH   4  20
ENDBRANCH  14  18
ENDBRANCH   9  14
TORSDOF 9
ENDMDL
MODEL 4
REMARK VINA RESULT:      -1.6      1.609      7.024
REMARK  Name = 38027463
REMARK  14 active torsions:
REMARK  status: ('A' for Active; 'I' for Inactive)
REMARK    1  A    between atoms: N_3  and  C_13
REMARK    2  A    between atoms: N_4  and  C_20
REMARK    3  A    between atoms: N_5  and  C_22
REMARK    4  A    between atoms: N_5  and  C_27
REMARK    5  A    between atoms: N_5  and  C_28
REMARK    6  A    between atoms: C_6  and  C_10
REMARK    7  A    between atoms: C_7  and  C_13
REMARK    8  A    between atoms: C_9  and  C_14
REMARK    9  A    between atoms: C_10  and  C_15
REMARK   10  A    between atoms: C_10  and  C_16
REMARK   11  A    between atoms: C_11  and  C_17
REMARK   12  A    between atoms: C_14  and  C_18
REMARK   13  A    between atoms: C_19  and  C_21
REMARK   14  A    between atoms: C_20  and  C_22
REMARK                            x       y       z     vdW  Elec       q    Type
REMARK                         _______ _______ _______ _____ _____    ______ ____
ROOT
ATOM      6  C   UNL     1      -2.916   3.231  25.539  0.00  0.00    +0.000 C 
ATOM      7  C   UNL     1      -3.131   3.769  24.103  0.00  0.00    +0.032 C 
ATOM      8  C   UNL     1      -1.722   3.935  26.204  0.00  0.00    +0.012 C 
ATOM      9  C   UNL     1      -0.417   3.743  25.409  0.00  0.00    +0.023 C 
ATOM     11  C   UNL     1      -0.616   3.999  23.929  0.00  0.00    -0.073 C 
ATOM     12  C   UNL     1      -1.837   4.021  23.366  0.00  0.00    -0.022 C 
ATOM     17  C   UNL     1       0.620   4.276  23.118  0.00  0.00    +0.039 C 
ENDROOT
BRANCH   6  10
ATOM     10  C   UNL     1      -4.167   3.403  26.406  0.00  0.00    -0.013 C 
ATOM     15  C   UNL     1      -3.838   4.201  27.664  0.00  0.00    +0.007 C 
ATOM     16  C   UNL     1      -5.276   4.082  25.610  0.00  0.00    +0.007 C 
ENDBRANCH   6  10
BRANCH   7  13
ATOM     13  C   UNL     1      -4.012   2.819  23.283  0.00  0.00    +0.112 C 
BRANCH  13   3
ATOM      2  O   UNL     1      -5.350   0.824  24.854  0.00  0.00    -0.270 OA
ATOM      3  N   UNL     1      -3.602   1.463  23.467  0.00  0.00    -0.311 N 
ATOM     19  C   UNL     1      -4.314   0.555  24.251  0.00  0.00    +0.244 C 
ATOM     30  H   UNL     1      -2.807   1.142  22.925  0.00  0.00    +0.149 HD
BRANCH  19  21
ATOM     21  C   UNL     1      -3.743  -0.812  24.362  0.00  0.00    +0.037 A 
ATOM     23  C   UNL     1      -4.422  -1.898  23.812  0.00  0.00    +0.013 A 
ATOM     24  C   UNL     1      -2.527  -1.007  25.017  0.00  0.00    +0.013 A 
ATOM     25  C   UNL     1      -3.884  -3.182  23.916  0.00  0.00    +0.001 A 
ATOM     26  C   UNL     1      -1.990  -2.290  25.122  0.00  0.00    +0.001 A 
ATOM     29  C   UNL     1      -2.669  -3.377  24.571  0.00  0.00    +0.000 A 
ENDBRANCH  19  21
ENDBRANCH  13   3
ENDBRANCH   7  13
BRANCH   9  14
ATOM     14  C   UNL     1       0.177   2.351  25.650  0.00  0.00    +0.103 C 
BRANCH  14  18
ATOM      1  O   UNL     1      -0.792   1.140  23.793  0.00  0.00    -0.276 OA
ATOM      4  N   UNL     1       1.520   1.254  24.005  0.00  0.00    -0.314 N 
ATOM     18  C   UNL     1       0.213   1.521  24.387  0.00  0.00    +0.214 C 
ATOM     31  H   UNL     1       2.286   1.622  24.561  0.00  0.00    +0.149 HD
BRANCH   4  20
ATOM     20  C   UNL     1       1.856   0.478  22.833  0.00  0.00    +0.119 C 
BRANCH  20  22
ATOM     22  C   UNL     1       3.343   0.562  22.525  0.00  0.00    +0.102 C 
BRANCH  22   5
ATOM      5  N   UNL     1       4.125   0.087  23.660  0.00  0.00    -0.307 NA
ATOM     27  C   UNL     1       5.500   0.583  23.584  0.00  0.00    +0.104 C 
ATOM     28  C   UNL     1       4.116  -1.375  23.717  0.00  0.00    +0.104 C 
ENDBRANCH  22   5
ENDBRANCH  20  22
ENDBRANCH   4  20
ENDBRANCH  14  18
ENDBRANCH   9  14
TORSDOF 9
ENDMDL
MODEL 5
REMARK VINA RESULT:      -1.5      1.463      3.122
REMARK  Name = 38027463
REMARK  14 active torsions:
REMARK  status: ('A' for Active; 'I' for Inactive)
REMARK    1  A    between atoms: N_3  and  C_13
REMARK    2  A    between atoms: N_4  and  C_20
REMARK    3  A    between atoms: N_5  and  C_22
REMARK    4  A    between atoms: N_5  and  C_27
REMARK    5  A    between atoms: N_5  and  C_28
REMARK    6  A    between atoms: C_6  and  C_10
REMARK    7  A    between atoms: C_7  and  C_13
REMARK    8  A    between atoms: C_9  and  C_14
REMARK    9  A    between atoms: C_10  and  C_15
REMARK   10  A    between atoms: C_10  and  C_16
REMARK   11  A    between atoms: C_11  and  C_17
REMARK   12  A    between atoms: C_14  and  C_18
REMARK   13  A    between atoms: C_19  and  C_21
REMARK   14  A    between atoms: C_20  and  C_22
REMARK                            x       y       z     vdW  Elec       q    Type
REMARK                         _______ _______ _______ _____ _____    ______ ____
ROOT
ATOM      6  C   UNL     1      -3.534  -0.668  24.958  0.00  0.00    +0.000 C 
ATOM      7  C   UNL     1      -2.202  -0.069  24.440  0.00  0.00    +0.032 C 
ATOM      8  C   UNL     1      -4.681  -0.347  23.987  0.00  0.00    +0.012 C 
ATOM      9  C   UNL     1      -4.870   1.169  23.791  0.00  0.00    +0.023 C 
ATOM     11  C   UNL     1      -3.553   1.874  23.539  0.00  0.00    -0.073 C 
ATOM     12  C   UNL     1      -2.371   1.299  23.822  0.00  0.00    -0.022 C 
ATOM     17  C   UNL     1      -3.624   3.238  22.910  0.00  0.00    +0.039 C 
ENDROOT
BRANCH   6  10
ATOM     10  C   UNL     1      -3.435  -2.183  25.161  0.00  0.00    -0.013 C 
ATOM     15  C   UNL     1      -4.233  -2.917  24.087  0.00  0.00    +0.007 C 
ATOM     16  C   UNL     1      -1.977  -2.628  25.150  0.00  0.00    +0.007 C 
ENDBRANCH   6  10
BRANCH   7  13
ATOM     13  C   UNL     1      -1.155  -0.001  25.557  0.00  0.00    +0.112 C 
BRANCH  13   3
ATOM      2  O   UNL     1       0.002  -1.277  23.260  0.00  0.00    -0.270 OA
ATOM      3  N   UNL     1       0.148   0.232  25.017  0.00  0.00    -0.311 N 
ATOM     19  C   UNL     1       0.634  -0.434  23.893  0.00  0.00    +0.244 C 
ATOM     30  H   UNL     1       0.693   0.981  25.431  0.00  0.00    +0.149 HD
BRANCH  19  21
ATOM     21  C   UNL     1       2.018  -0.097  23.472  0.00  0.00    +0.037 A 
ATOM     23  C   UNL     1       2.306   1.171  22.970  0.00  0.00    +0.013 A 
ATOM     24  C   UNL     1       3.030  -1.051  23.579  0.00  0.00    +0.013 A 
ATOM     25  C   UNL     1       3.606   1.487  22.576  0.00  0.00    +0.001 A 
ATOM     26  C   UNL     1       4.330  -0.736  23.185  0.00  0.00    +0.001 A 
ATOM     29  C   UNL     1       4.618   0.534  22.683  0.00  0.00    +0.000 A 
ENDBRANCH  19  21
ENDBRANCH  13   3
ENDBRANCH   7  13
BRANCH   9  14
ATOM     14  C   UNL     1      -5.607   1.792  24.982  0.00  0.00    +0.103 C 
BRANCH  14  18
ATOM      1  O   UNL     1      -5.494   4.180  25.358  0.00  0.00    -0.276 OA
ATOM      4  N   UNL     1      -3.695   2.838  25.963  0.00  0.00    -0.314 N 
ATOM     18  C   UNL     1      -4.958   3.078  25.443  0.00  0.00    +0.214 C 
ATOM     31  H   UNL     1      -3.344   1.886  25.997  0.00  0.00    +0.149 HD
BRANCH   4  20
ATOM     20  C   UNL     1      -2.842   3.885  26.478  0.00  0.00    +0.119 C 
BRANCH  20  22
ATOM     22  C   UNL     1      -1.373   3.524  26.325  0.00  0.00    +0.102 C 
BRANCH  22   5
ATOM      5  N   UNL     1      -0.719   4.441  25.400  0.00  0.00    -0.307 NA
ATOM     27  C   UNL     1      -1.631   5.516  25.008  0.00  0.00    +0.104 C 
ATOM     28  C   UNL     1      -0.240   3.725  24.216  0.00  0.00    +0.104 C 
ENDBRANCH  22   5
ENDBRANCH  20  22
ENDBRANCH   4  20
ENDBRANCH  14  18
ENDBRANCH   9  14
TORSDOF 9
ENDMDL
MODEL 6
REMARK VINA RESULT:      -1.4      1.843      4.310
REMARK  Name = 38027463
REMARK  14 active torsions:
REMARK  status: ('A' for Active; 'I' for Inactive)
REMARK    1  A    between atoms: N_3  and  C_13
REMARK    2  A    between atoms: N_4  and  C_20
REMARK    3  A    between atoms: N_5  and  C_22
REMARK    4  A    between atoms: N_5  and  C_27
REMARK    5  A    between atoms: N_5  and  C_28
REMARK    6  A    between atoms: C_6  and  C_10
REMARK    7  A    between atoms: C_7  and  C_13
REMARK    8  A    between atoms: C_9  and  C_14
REMARK    9  A    between atoms: C_10  and  C_15
REMARK   10  A    between atoms: C_10  and  C_16
REMARK   11  A    between atoms: C_11  and  C_17
REMARK   12  A    between atoms: C_14  and  C_18
REMARK   13  A    between atoms: C_19  and  C_21
REMARK   14  A    between atoms: C_20  and  C_22
REMARK                            x       y       z     vdW  Elec       q    Type
REMARK                         _______ _______ _______ _____ _____    ______ ____
ROOT
ATOM      6  C   UNL     1      -2.759   2.487  23.599  0.00  0.00    +0.000 C 
ATOM      7  C   UNL     1      -1.423   2.337  24.369  0.00  0.00    +0.032 C 
ATOM      8  C   UNL     1      -3.425   3.830  23.934  0.00  0.00    +0.012 C 
ATOM      9  C   UNL     1      -3.709   3.979  25.440  0.00  0.00    +0.023 C 
ATOM     11  C   UNL     1      -2.511   3.589  26.282  0.00  0.00    -0.073 C 
ATOM     12  C   UNL     1      -1.492   2.867  25.781  0.00  0.00    -0.022 C 
ATOM     17  C   UNL     1      -2.488   4.088  27.700  0.00  0.00    +0.039 C 
ENDROOT
BRANCH   6  10
ATOM     10  C   UNL     1      -2.559   2.371  22.084  0.00  0.00    -0.013 C 
ATOM     15  C   UNL     1      -2.584   0.906  21.655  0.00  0.00    +0.007 C 
ATOM     16  C   UNL     1      -3.628   3.169  21.345  0.00  0.00    +0.007 C 
ENDBRANCH   6  10
BRANCH   7  13
ATOM     13  C   UNL     1      -0.958   0.877  24.391  0.00  0.00    +0.112 C 
BRANCH  13   3
ATOM      2  O   UNL     1       0.480  -0.610  22.401  0.00  0.00    -0.270 OA
ATOM      3  N   UNL     1       0.462   0.794  24.248  0.00  0.00    -0.311 N 
ATOM     19  C   UNL     1       1.081   0.045  23.249  0.00  0.00    +0.244 C 
ATOM     30  H   UNL     1       1.023   1.383  24.855  0.00  0.00    +0.149 HD
BRANCH  19  21
ATOM     21  C   UNL     1       2.566   0.041  23.250  0.00  0.00    +0.037 A 
ATOM     23  C   UNL     1       3.268   1.170  22.828  0.00  0.00    +0.013 A 
ATOM     24  C   UNL     1       3.260  -1.093  23.673  0.00  0.00    +0.013 A 
ATOM     25  C   UNL     1       4.663   1.166  22.831  0.00  0.00    +0.001 A 
ATOM     26  C   UNL     1       4.654  -1.098  23.675  0.00  0.00    +0.001 A 
ATOM     29  C   UNL     1       5.356   0.032  23.254  0.00  0.00    +0.000 A 
ENDBRANCH  19  21
ENDBRANCH  13   3
ENDBRANCH   7  13
BRANCH   9  14
ATOM     14  C   UNL     1      -4.951   3.179  25.850  0.00  0.00    +0.103 C 
BRANCH  14  18
ATOM      1  O   UNL     1      -5.867   1.882  24.023  0.00  0.00    -0.276 OA
ATOM      4  N   UNL     1      -4.364   0.889  25.494  0.00  0.00    -0.314 N 
ATOM     18  C   UNL     1      -5.132   1.937  25.006  0.00  0.00    +0.214 C 
ATOM     31  H   UNL     1      -3.781   1.039  26.311  0.00  0.00    +0.149 HD
BRANCH   4  20
ATOM     20  C   UNL     1      -4.342  -0.421  24.885  0.00  0.00    +0.119 C 
BRANCH  20  22
ATOM     22  C   UNL     1      -3.515  -1.397  25.708  0.00  0.00    +0.102 C 
BRANCH  22   5
ATOM      5  N   UNL     1      -3.201  -2.584  24.923  0.00  0.00    -0.307 NA
ATOM     27  C   UNL     1      -1.814  -2.541  24.455  0.00  0.00    +0.104 C 
ATOM     28  C   UNL     1      -4.115  -2.708  23.787  0.00  0.00    +0.104 C 
ENDBRANCH  22   5
ENDBRANCH  20  22
ENDBRANCH   4  20
ENDBRANCH  14  18
ENDBRANCH   9  14
TORSDOF 9
ENDMDL
MODEL 7
REMARK VINA RESULT:      -0.7      1.679      7.791
REMARK  Name = 38027463
REMARK  14 active torsions:
REMARK  status: ('A' for Active; 'I' for Inactive)
REMARK    1  A    between atoms: N_3  and  C_13
REMARK    2  A    between atoms: N_4  and  C_20
REMARK    3  A    between atoms: N_5  and  C_22
REMARK    4  A    between atoms: N_5  and  C_27
REMARK    5  A    between atoms: N_5  and  C_28
REMARK    6  A    between atoms: C_6  and  C_10
REMARK    7  A    between atoms: C_7  and  C_13
REMARK    8  A    between atoms: C_9  and  C_14
REMARK    9  A    between atoms: C_10  and  C_15
REMARK   10  A    between atoms: C_10  and  C_16
REMARK   11  A    between atoms: C_11  and  C_17
REMARK   12  A    between atoms: C_14  and  C_18
REMARK   13  A    between atoms: C_19  and  C_21
REMARK   14  A    between atoms: C_20  and  C_22
REMARK                            x       y       z     vdW  Elec       q    Type
REMARK                         _______ _______ _______ _____ _____    ______ ____
ROOT
ATOM      6  C   UNL     1      -1.800  -1.813  24.454  0.00  0.00    +0.000 C 
ATOM      7  C   UNL     1      -2.566  -1.171  25.638  0.00  0.00    +0.032 C 
ATOM      8  C   UNL     1      -0.287  -1.596  24.612  0.00  0.00    +0.012 C 
ATOM      9  C   UNL     1       0.083  -0.103  24.682  0.00  0.00    +0.023 C 
ATOM     11  C   UNL     1      -0.813   0.656  25.639  0.00  0.00    -0.073 C 
ATOM     12  C   UNL     1      -1.986   0.156  26.066  0.00  0.00    -0.022 C 
ATOM     17  C   UNL     1      -0.307   1.984  26.131  0.00  0.00    +0.039 C 
ENDROOT
BRANCH   6  10
ATOM     10  C   UNL     1      -2.099  -3.310  24.327  0.00  0.00    -0.013 C 
ATOM     15  C   UNL     1      -3.605  -3.548  24.266  0.00  0.00    +0.007 C 
ATOM     16  C   UNL     1      -1.409  -3.888  23.096  0.00  0.00    +0.007 C 
ENDBRANCH   6  10
BRANCH   7  13
ATOM     13  C   UNL     1      -4.052  -0.998  25.306  0.00  0.00    +0.112 C 
BRANCH  13   3
ATOM      2  O   UNL     1      -3.536   1.031  23.342  0.00  0.00    -0.270 OA
ATOM      3  N   UNL     1      -4.432   0.378  25.381  0.00  0.00    -0.311 N 
ATOM     19  C   UNL     1      -4.139   1.301  24.377  0.00  0.00    +0.244 C 
ATOM     30  H   UNL     1      -5.013   0.656  26.164  0.00  0.00    +0.149 HD
BRANCH  19  21
ATOM     21  C   UNL     1      -4.580   2.699  24.617  0.00  0.00    +0.037 A 
ATOM     23  C   UNL     1      -5.667   2.955  25.450  0.00  0.00    +0.013 A 
ATOM     24  C   UNL     1      -3.904   3.757  24.007  0.00  0.00    +0.013 A 
ATOM     25  C   UNL     1      -6.079   4.269  25.676  0.00  0.00    +0.001 A 
ATOM     26  C   UNL     1      -4.316   5.069  24.231  0.00  0.00    +0.001 A 
ATOM     29  C   UNL     1      -5.404   5.326  25.066  0.00  0.00    +0.000 A 
ENDBRANCH  19  21
ENDBRANCH  13   3
ENDBRANCH   7  13
BRANCH   9  14
ATOM     14  C   UNL     1       0.065   0.536  23.289  0.00  0.00    +0.103 C 
BRANCH  14  18
ATOM      1  O   UNL     1       1.280  -0.519  21.481  0.00  0.00    -0.276 OA
ATOM      4  N   UNL     1       2.431   0.766  23.040  0.00  0.00    -0.314 N 
ATOM     18  C   UNL     1       1.298   0.187  22.486  0.00  0.00    +0.214 C 
ATOM     31  H   UNL     1       2.339   1.341  23.871  0.00  0.00    +0.149 HD
BRANCH   4  20
ATOM     20  C   UNL     1       3.754   0.600  22.483  0.00  0.00    +0.119 C 
BRANCH  20  22
ATOM     22  C   UNL     1       4.829   0.906  23.514  0.00  0.00    +0.102 C 
BRANCH  22   5
ATOM      5  N   UNL     1       5.510  -0.319  23.916  0.00  0.00    -0.307 NA
ATOM     27  C   UNL     1       6.681  -0.559  23.072  0.00  0.00    +0.104 C 
ATOM     28  C   UNL     1       4.597  -1.461  23.852  0.00  0.00    +0.104 C 
ENDBRANCH  22   5
ENDBRANCH  20  22
ENDBRANCH   4  20
ENDBRANCH  14  18
ENDBRANCH   9  14
TORSDOF 9
ENDMDL
MODEL 8
REMARK VINA RESULT:      -0.2      2.273      5.883
REMARK  Name = 38027463
REMARK  14 active torsions:
REMARK  status: ('A' for Active; 'I' for Inactive)
REMARK    1  A    between atoms: N_3  and  C_13
REMARK    2  A    between atoms: N_4  and  C_20
REMARK    3  A    between atoms: N_5  and  C_22
REMARK    4  A    between atoms: N_5  and  C_27
REMARK    5  A    between atoms: N_5  and  C_28
REMARK    6  A    between atoms: C_6  and  C_10
REMARK    7  A    between atoms: C_7  and  C_13
REMARK    8  A    between atoms: C_9  and  C_14
REMARK    9  A    between atoms: C_10  and  C_15
REMARK   10  A    between atoms: C_10  and  C_16
REMARK   11  A    between atoms: C_11  and  C_17
REMARK   12  A    between atoms: C_14  and  C_18
REMARK   13  A    between atoms: C_19  and  C_21
REMARK   14  A    between atoms: C_20  and  C_22
REMARK                            x       y       z     vdW  Elec       q    Type
REMARK                         _______ _______ _______ _____ _____    ______ ____
ROOT
ATOM      6  C   UNL     1       0.208   1.713  24.157  0.00  0.00    +0.000 C 
ATOM      7  C   UNL     1       0.268   2.129  25.648  0.00  0.00    +0.032 C 
ATOM      8  C   UNL     1       0.301   2.950  23.250  0.00  0.00    +0.012 C 
ATOM      9  C   UNL     1      -0.831   3.958  23.523  0.00  0.00    +0.023 C 
ATOM     11  C   UNL     1      -1.012   4.217  25.004  0.00  0.00    -0.073 C 
ATOM     12  C   UNL     1      -0.501   3.396  25.939  0.00  0.00    -0.022 C 
ATOM     17  C   UNL     1      -1.752   5.468  25.388  0.00  0.00    +0.039 C 
ENDROOT
BRANCH   6  10
ATOM     10  C   UNL     1       1.319   0.722  23.797  0.00  0.00    -0.013 C 
ATOM     15  C   UNL     1       0.799  -0.329  22.821  0.00  0.00    +0.007 C 
ATOM     16  C   UNL     1       2.519   1.458  23.212  0.00  0.00    +0.007 C 
ENDBRANCH   6  10
BRANCH   7  13
ATOM     13  C   UNL     1      -0.238   1.003  26.557  0.00  0.00    +0.112 C 
BRANCH  13   3
ATOM      2  O   UNL     1      -0.224  -1.751  25.745  0.00  0.00    -0.270 OA
ATOM      3  N   UNL     1      -1.310   0.292  25.935  0.00  0.00    -0.311 N 
ATOM     19  C   UNL     1      -1.219  -1.051  25.571  0.00  0.00    +0.244 C 
ATOM     30  H   UNL     1      -2.196   0.778  25.842  0.00  0.00    +0.149 HD
BRANCH  19  21
ATOM     21  C   UNL     1      -2.413  -1.639  24.910  0.00  0.00    +0.037 A 
ATOM     23  C   UNL     1      -2.453  -3.004  24.629  0.00  0.00    +0.013 A 
ATOM     24  C   UNL     1      -3.493  -0.824  24.570  0.00  0.00    +0.013 A 
ATOM     25  C   UNL     1      -3.575  -3.556  24.009  0.00  0.00    +0.001 A 
ATOM     26  C   UNL     1      -4.614  -1.375  23.950  0.00  0.00    +0.001 A 
ATOM     29  C   UNL     1      -4.655  -2.741  23.670  0.00  0.00    +0.000 A 
ENDBRANCH  19  21
ENDBRANCH  13   3
ENDBRANCH   7  13
BRANCH   9  14
ATOM     14  C   UNL     1      -2.146   3.498  22.882  0.00  0.00    +0.103 C 
BRANCH  14  18
ATOM      1  O   UNL     1      -3.107   1.931  24.456  0.00  0.00    -0.276 OA
ATOM      4  N   UNL     1      -4.106   4.008  24.151  0.00  0.00    -0.314 N 
ATOM     18  C   UNL     1      -3.149   3.033  23.913  0.00  0.00    +0.214 C 
ATOM     31  H   UNL     1      -4.049   4.892  23.655  0.00  0.00    +0.149 HD
BRANCH   4  20
ATOM     20  C   UNL     1      -5.192   3.836  25.089  0.00  0.00    +0.119 C 
BRANCH  20  22
ATOM     22  C   UNL     1      -4.878   2.744  26.100  0.00  0.00    +0.102 C 
BRANCH  22   5
ATOM      5  N   UNL     1      -5.820   1.639  25.962  0.00  0.00    -0.307 NA
ATOM     27  C   UNL     1      -6.586   1.766  24.721  0.00  0.00    +0.104 C 
ATOM     28  C   UNL     1      -6.724   1.586  27.112  0.00  0.00    +0.104 C 
ENDBRANCH  22   5
ENDBRANCH  20  22
ENDBRANCH   4  20
ENDBRANCH  14  18
ENDBRANCH   9  14
TORSDOF 9
ENDMDL
