MODEL 1
REMARK VINA RESULT:       5.5      0.000      0.000
REMARK  Name = 51136831
REMARK  6 active torsions:
REMARK  status: ('A' for Active; 'I' for Inactive)
REMARK    1  A    between atoms: N_3  and  C_13
REMARK    2  A    between atoms: C_9  and  C_14
REMARK    3  A    between atoms: C_13  and  C_15
REMARK    4  A    between atoms: C_13  and  C_16
REMARK    5  A    between atoms: C_21  and  C_23
REMARK    6  A    between atoms: C_25  and  C_28
REMARK                            x       y       z     vdW  Elec       q    Type
REMARK                         _______ _______ _______ _____ _____    ______ ____
ROOT
ATOM      2  O   UNL     1      -6.136  -6.004   8.129  0.00  0.00    -0.276 OA
ATOM      4  N   UNL     1      -5.150  -8.827  12.208  0.00  0.00    -0.312 N 
ATOM      6  N   UNL     1      -6.278  -7.519   9.884  0.00  0.00    -0.299 N 
ATOM      8  N   UNL     1      -3.396 -10.092  13.156  0.00  0.00    -0.240 NA
ATOM     17  C   UNL     1      -4.293  -8.184  11.208  0.00  0.00    +0.125 C 
ATOM     18  C   UNL     1      -6.602  -8.724  12.044  0.00  0.00    +0.125 C 
ATOM     19  C   UNL     1      -5.040  -7.053  10.503  0.00  0.00    +0.126 C 
ATOM     20  C   UNL     1      -6.975  -8.613  10.565  0.00  0.00    +0.126 C 
ATOM     22  C   UNL     1      -4.595  -9.485  13.303  0.00  0.00    +0.122 A 
ATOM     23  C   UNL     1      -4.778 -10.127  15.585  0.00  0.00    +0.027 A 
ATOM     24  C   UNL     1      -5.319  -9.473  14.484  0.00  0.00    +0.055 A 
ATOM     25  C   UNL     1      -6.722  -6.926   8.702  0.00  0.00    +0.213 C 
ATOM     26  C   UNL     1      -3.548 -10.764  15.474  0.00  0.00    +0.031 A 
ATOM     27  C   UNL     1      -2.903 -10.718  14.249  0.00  0.00    +0.113 A 
ATOM     28  C   UNL     1      -8.005  -7.470   8.124  0.00  0.00    +0.109 C 
ENDROOT
BRANCH  23  21
ATOM      1  O   UNL     1      -6.022 -10.526  18.867  0.00  0.00    -0.336 OA
ATOM      5  N   UNL     1      -6.686  -9.508  16.985  0.00  0.00    -0.190 NA
ATOM      7  N   UNL     1      -5.023 -10.775  17.916  0.00  0.00    -0.056 NA
ATOM     14  C   UNL     1      -6.962  -9.774  18.237  0.00  0.00    +0.245 A 
ATOM     21  C   UNL     1      -5.487 -10.143  16.834  0.00  0.00    +0.202 A 
BRANCH  14   9
ATOM      3  N   UNL     1      -9.393  -9.242  18.255  0.00  0.00    -0.289 NA
ATOM      9  C   UNL     1      -8.164  -9.366  19.064  0.00  0.00    +0.146 C 
ATOM     10  C   UNL     1      -8.514 -10.397  20.152  0.00  0.00    +0.030 C 
ATOM     11  C   UNL     1     -10.509  -9.554  19.149  0.00  0.00    +0.085 C 
ATOM     12  C   UNL     1      -9.975 -10.749  19.913  0.00  0.00    +0.017 C 
BRANCH   3  13
ATOM     13  C   UNL     1      -9.540  -7.935  17.630  0.00  0.00    +0.051 C 
ATOM     15  C   UNL     1      -9.786  -8.113  16.135  0.00  0.00    +0.024 C 
ATOM     16  C   UNL     1     -10.680  -7.160  18.284  0.00  0.00    +0.024 C 
ENDBRANCH   3  13
ENDBRANCH  14   9
ENDBRANCH  23  21
TORSDOF 3
ENDMDL
