MODEL 1
REMARK VINA RESULT:      -5.6      0.000      0.000
REMARK  Name = 51137055
REMARK  5 active torsions:
REMARK  status: ('A' for Active; 'I' for Inactive)
REMARK    1  A    between atoms: O_2  and  C_24
REMARK    2  A    between atoms: N_4  and  C_10
REMARK    3  A    between atoms: C_6  and  C_11
REMARK    4  A    between atoms: C_10  and  C_12
REMARK    5  A    between atoms: C_21  and  C_24
REMARK                            x       y       z     vdW  Elec       q    Type
REMARK                         _______ _______ _______ _____ _____    ______ ____
ROOT
ATOM      4  N   UNL     1      -2.790 -10.754  14.122  0.00  0.00    -0.297 NA
ATOM      6  C   UNL     1      -3.990 -10.781  12.107  0.00  0.00    +0.090 C 
ATOM      7  C   UNL     1      -2.514 -10.458  11.823  0.00  0.00    +0.029 C 
ATOM      8  C   UNL     1      -4.152 -10.562  13.617  0.00  0.00    +0.097 C 
ATOM      9  C   UNL     1      -1.933 -10.048  13.171  0.00  0.00    +0.085 C 
ENDROOT
BRANCH   6  11
ATOM      1  O   UNL     1      -6.298 -10.275  11.506  0.00  0.00    -0.439 OA
ATOM      5  N   UNL     1      -4.743  -9.062  10.387  0.00  0.00    -0.213 NA
ATOM     11  C   UNL     1      -4.983  -9.990  11.287  0.00  0.00    +0.201 A 
ATOM     13  C   UNL     1      -6.953  -9.434  10.653  0.00  0.00    +0.155 A 
ATOM     14  C   UNL     1      -5.999  -8.694   9.970  0.00  0.00    +0.110 A 
ATOM     17  C   UNL     1      -8.326  -9.314  10.473  0.00  0.00    +0.048 A 
ATOM     18  C   UNL     1      -6.423  -7.749   9.025  0.00  0.00    +0.031 A 
ATOM     22  C   UNL     1      -8.732  -8.367   9.526  0.00  0.00    +0.004 A 
ATOM     23  C   UNL     1      -7.801  -7.598   8.816  0.00  0.00    +0.002 A 
ENDBRANCH   6  11
BRANCH   4  10
ATOM     10  C   UNL     1      -2.629 -10.264  15.483  0.00  0.00    +0.119 C 
BRANCH  10  12
ATOM     12  C   UNL     1      -3.920 -10.326  16.257  0.00  0.00    -0.033 A 
ATOM     15  C   UNL     1      -5.122  -9.985  15.635  0.00  0.00    +0.006 A 
ATOM     16  C   UNL     1      -3.914 -10.724  17.593  0.00  0.00    +0.006 A 
ATOM     19  C   UNL     1      -6.317 -10.043  16.351  0.00  0.00    +0.015 A 
ATOM     20  C   UNL     1      -5.109 -10.781  18.309  0.00  0.00    +0.015 A 
ATOM     21  C   UNL     1      -6.312 -10.441  17.688  0.00  0.00    +0.059 A 
BRANCH  21  24
ATOM      3  O   UNL     1      -8.684 -10.631  17.940  0.00  0.00    -0.245 OA
ATOM     24  C   UNL     1      -7.558 -10.502  18.435  0.00  0.00    +0.337 C 
BRANCH  24   2
ATOM      2  O   UNL     1      -7.366 -10.399  19.778  0.00  0.00    -0.477 OA
ATOM     25  H   UNL     1      -6.423 -10.241  20.001  0.00  0.00    +0.295 HD
ENDBRANCH  24   2
ENDBRANCH  21  24
ENDBRANCH  10  12
ENDBRANCH   4  10
TORSDOF 5
ENDMDL
MODEL 2
REMARK VINA RESULT:      -4.7      1.184      2.044
REMARK  Name = 51137055
REMARK  5 active torsions:
REMARK  status: ('A' for Active; 'I' for Inactive)
REMARK    1  A    between atoms: O_2  and  C_24
REMARK    2  A    between atoms: N_4  and  C_10
REMARK    3  A    between atoms: C_6  and  C_11
REMARK    4  A    between atoms: C_10  and  C_12
REMARK    5  A    between atoms: C_21  and  C_24
REMARK                            x       y       z     vdW  Elec       q    Type
REMARK                         _______ _______ _______ _____ _____    ______ ____
ROOT
ATOM      4  N   UNL     1      -4.003 -10.678  14.742  0.00  0.00    -0.297 NA
ATOM      6  C   UNL     1      -5.057 -10.781  12.650  0.00  0.00    +0.090 C 
ATOM      7  C   UNL     1      -3.553 -10.521  12.456  0.00  0.00    +0.029 C 
ATOM      8  C   UNL     1      -5.318 -10.471  14.129  0.00  0.00    +0.097 C 
ATOM      9  C   UNL     1      -3.056 -10.054  13.819  0.00  0.00    +0.085 C 
ENDROOT
BRANCH   6  11
ATOM      1  O   UNL     1      -5.338  -9.153  10.857  0.00  0.00    -0.439 OA
ATOM      5  N   UNL     1      -7.271 -10.052  11.627  0.00  0.00    -0.213 NA
ATOM     11  C   UNL     1      -5.960 -10.007  11.717  0.00  0.00    +0.201 A 
ATOM     13  C   UNL     1      -6.369  -8.602  10.151  0.00  0.00    +0.155 A 
ATOM     14  C   UNL     1      -7.549  -9.154  10.625  0.00  0.00    +0.110 A 
ATOM     17  C   UNL     1      -6.288  -7.656   9.136  0.00  0.00    +0.048 A 
ATOM     18  C   UNL     1      -8.764  -8.746  10.055  0.00  0.00    +0.031 A 
ATOM     22  C   UNL     1      -7.509  -7.260   8.579  0.00  0.00    +0.004 A 
ATOM     23  C   UNL     1      -8.723  -7.794   9.027  0.00  0.00    +0.002 A 
ENDBRANCH   6  11
BRANCH   4  10
ATOM     10  C   UNL     1      -3.923 -10.116  16.082  0.00  0.00    +0.119 C 
BRANCH  10  12
ATOM     12  C   UNL     1      -5.232 -10.234  16.818  0.00  0.00    -0.033 A 
ATOM     15  C   UNL     1      -5.249 -10.671  18.143  0.00  0.00    +0.006 A 
ATOM     16  C   UNL     1      -6.426  -9.905  16.176  0.00  0.00    +0.006 A 
ATOM     19  C   UNL     1      -6.461 -10.779  18.824  0.00  0.00    +0.015 A 
ATOM     20  C   UNL     1      -7.637 -10.015  16.857  0.00  0.00    +0.015 A 
ATOM     21  C   UNL     1      -7.655 -10.452  18.183  0.00  0.00    +0.059 A 
BRANCH  21  24
ATOM      3  O   UNL     1      -9.043 -10.781  20.104  0.00  0.00    -0.245 OA
ATOM     24  C   UNL     1      -8.919 -10.565  18.893  0.00  0.00    +0.337 C 
BRANCH  24   2
ATOM      2  O   UNL     1      -9.993 -10.405  18.073  0.00  0.00    -0.477 OA
ATOM     25  H   UNL     1      -9.814  -9.756  17.358  0.00  0.00    +0.295 HD
ENDBRANCH  24   2
ENDBRANCH  21  24
ENDBRANCH  10  12
ENDBRANCH   4  10
TORSDOF 5
ENDMDL
MODEL 3
REMARK VINA RESULT:      -3.5     14.461     16.702
REMARK  Name = 51137055
REMARK  5 active torsions:
REMARK  status: ('A' for Active; 'I' for Inactive)
REMARK    1  A    between atoms: O_2  and  C_24
REMARK    2  A    between atoms: N_4  and  C_10
REMARK    3  A    between atoms: C_6  and  C_11
REMARK    4  A    between atoms: C_10  and  C_12
REMARK    5  A    between atoms: C_21  and  C_24
REMARK                            x       y       z     vdW  Elec       q    Type
REMARK                         _______ _______ _______ _____ _____    ______ ____
ROOT
ATOM      4  N   UNL     1       0.396   2.788  25.065  0.00  0.00    -0.297 NA
ATOM      6  C   UNL     1       0.077   0.467  24.958  0.00  0.00    +0.090 C 
ATOM      7  C   UNL     1       0.832   0.941  23.705  0.00  0.00    +0.029 C 
ATOM      8  C   UNL     1      -0.505   1.748  25.568  0.00  0.00    +0.097 C 
ATOM      9  C   UNL     1       0.613   2.448  23.659  0.00  0.00    +0.085 C 
ENDROOT
BRANCH   6  11
ATOM      1  O   UNL     1      -2.213  -0.140  24.383  0.00  0.00    -0.439 OA
ATOM      5  N   UNL     1      -0.836  -1.901  24.757  0.00  0.00    -0.213 NA
ATOM     11  C   UNL     1      -0.970  -0.594  24.706  0.00  0.00    +0.201 A 
ATOM     13  C   UNL     1      -2.938  -1.285  24.213  0.00  0.00    +0.155 A 
ATOM     14  C   UNL     1      -2.093  -2.360  24.443  0.00  0.00    +0.110 A 
ATOM     17  C   UNL     1      -4.281  -1.393  23.872  0.00  0.00    +0.048 A 
ATOM     18  C   UNL     1      -2.604  -3.660  24.330  0.00  0.00    +0.031 A 
ATOM     22  C   UNL     1      -4.775  -2.697  23.764  0.00  0.00    +0.004 A 
ATOM     23  C   UNL     1      -3.955  -3.810  23.987  0.00  0.00    +0.002 A 
ENDBRANCH   6  11
BRANCH   4  10
ATOM     10  C   UNL     1      -0.153   4.125  25.233  0.00  0.00    +0.119 C 
BRANCH  10  12
ATOM     12  C   UNL     1      -1.657   4.108  25.316  0.00  0.00    -0.033 A 
ATOM     15  C   UNL     1      -2.417   4.007  24.151  0.00  0.00    +0.006 A 
ATOM     16  C   UNL     1      -2.288   4.192  26.557  0.00  0.00    +0.006 A 
ATOM     19  C   UNL     1      -3.809   3.991  24.228  0.00  0.00    +0.015 A 
ATOM     20  C   UNL     1      -3.680   4.176  26.633  0.00  0.00    +0.015 A 
ATOM     21  C   UNL     1      -4.442   4.075  25.468  0.00  0.00    +0.059 A 
BRANCH  21  24
ATOM      3  O   UNL     1      -6.616   5.053  25.669  0.00  0.00    -0.245 OA
ATOM     24  C   UNL     1      -5.894   4.057  25.548  0.00  0.00    +0.337 C 
BRANCH  24   2
ATOM      2  O   UNL     1      -6.404   2.798  25.474  0.00  0.00    -0.477 OA
ATOM     25  H   UNL     1      -7.091   2.722  24.777  0.00  0.00    +0.295 HD
ENDBRANCH  24   2
ENDBRANCH  21  24
ENDBRANCH  10  12
ENDBRANCH   4  10
TORSDOF 5
ENDMDL
MODEL 4
REMARK VINA RESULT:      -2.2     14.727     17.076
REMARK  Name = 51137055
REMARK  5 active torsions:
REMARK  status: ('A' for Active; 'I' for Inactive)
REMARK    1  A    between atoms: O_2  and  C_24
REMARK    2  A    between atoms: N_4  and  C_10
REMARK    3  A    between atoms: C_6  and  C_11
REMARK    4  A    between atoms: C_10  and  C_12
REMARK    5  A    between atoms: C_21  and  C_24
REMARK                            x       y       z     vdW  Elec       q    Type
REMARK                         _______ _______ _______ _____ _____    ______ ____
ROOT
ATOM      4  N   UNL     1      -2.871  -0.832  24.568  0.00  0.00    -0.297 NA
ATOM      6  C   UNL     1      -0.759  -1.376  23.706  0.00  0.00    +0.090 C 
ATOM      7  C   UNL     1      -0.979  -2.118  25.036  0.00  0.00    +0.029 C 
ATOM      8  C   UNL     1      -1.836  -0.284  23.688  0.00  0.00    +0.097 C 
ATOM      9  C   UNL     1      -2.140  -1.392  25.704  0.00  0.00    +0.085 C 
ENDROOT
BRANCH   6  11
ATOM      1  O   UNL     1       1.656  -1.637  23.920  0.00  0.00    -0.439 OA
ATOM      5  N   UNL     1       0.997   0.321  22.986  0.00  0.00    -0.213 NA
ATOM     11  C   UNL     1       0.637  -0.831  23.507  0.00  0.00    +0.201 A 
ATOM     13  C   UNL     1       2.776  -0.913  23.626  0.00  0.00    +0.155 A 
ATOM     14  C   UNL     1       2.369   0.284  23.055  0.00  0.00    +0.110 A 
ATOM     17  C   UNL     1       4.099  -1.276  23.846  0.00  0.00    +0.048 A 
ATOM     18  C   UNL     1       3.343   1.212  22.661  0.00  0.00    +0.031 A 
ATOM     22  C   UNL     1       5.058  -0.338  23.447  0.00  0.00    +0.004 A 
ATOM     23  C   UNL     1       4.690   0.881  22.865  0.00  0.00    +0.002 A 
ENDBRANCH   6  11
BRANCH   4  10
ATOM     10  C   UNL     1      -3.841   0.174  24.974  0.00  0.00    +0.119 C 
BRANCH  10  12
ATOM     12  C   UNL     1      -3.243   1.556  24.989  0.00  0.00    -0.033 A 
ATOM     15  C   UNL     1      -3.944   2.625  24.431  0.00  0.00    +0.006 A 
ATOM     16  C   UNL     1      -1.988   1.767  25.561  0.00  0.00    +0.006 A 
ATOM     19  C   UNL     1      -3.390   3.905  24.445  0.00  0.00    +0.015 A 
ATOM     20  C   UNL     1      -1.434   3.047  25.574  0.00  0.00    +0.015 A 
ATOM     21  C   UNL     1      -2.136   4.117  25.017  0.00  0.00    +0.059 A 
BRANCH  21  24
ATOM      3  O   UNL     1      -2.158   6.488  25.333  0.00  0.00    -0.245 OA
ATOM     24  C   UNL     1      -1.558   5.451  25.032  0.00  0.00    +0.337 C 
BRANCH  24   2
ATOM      2  O   UNL     1      -0.246   5.454  24.670  0.00  0.00    -0.477 OA
ATOM     25  H   UNL     1       0.346   5.565  25.445  0.00  0.00    +0.295 HD
ENDBRANCH  24   2
ENDBRANCH  21  24
ENDBRANCH  10  12
ENDBRANCH   4  10
TORSDOF 5
ENDMDL
MODEL 5
REMARK VINA RESULT:      -1.9     14.258     16.513
REMARK  Name = 51137055
REMARK  5 active torsions:
REMARK  status: ('A' for Active; 'I' for Inactive)
REMARK    1  A    between atoms: O_2  and  C_24
REMARK    2  A    between atoms: N_4  and  C_10
REMARK    3  A    between atoms: C_6  and  C_11
REMARK    4  A    between atoms: C_10  and  C_12
REMARK    5  A    between atoms: C_21  and  C_24
REMARK                            x       y       z     vdW  Elec       q    Type
REMARK                         _______ _______ _______ _____ _____    ______ ____
ROOT
ATOM      4  N   UNL     1      -2.737  -1.684  24.460  0.00  0.00    -0.297 NA
ATOM      6  C   UNL     1      -0.396  -1.812  24.459  0.00  0.00    +0.090 C 
ATOM      7  C   UNL     1      -0.888  -1.400  25.857  0.00  0.00    +0.029 C 
ATOM      8  C   UNL     1      -1.602  -1.584  23.539  0.00  0.00    +0.097 C 
ATOM      9  C   UNL     1      -2.325  -0.938  25.648  0.00  0.00    +0.085 C 
ENDROOT
BRANCH   6  11
ATOM      1  O   UNL     1       2.032  -1.716  24.257  0.00  0.00    -0.439 OA
ATOM      5  N   UNL     1       0.939   0.051  23.350  0.00  0.00    -0.213 NA
ATOM     11  C   UNL     1       0.849  -1.095  23.988  0.00  0.00    +0.201 A 
ATOM     13  C   UNL     1       2.965  -0.868  23.732  0.00  0.00    +0.155 A 
ATOM     14  C   UNL     1       2.293   0.211  23.178  0.00  0.00    +0.110 A 
ATOM     17  C   UNL     1       4.346  -1.025  23.733  0.00  0.00    +0.048 A 
ATOM     18  C   UNL     1       3.036   1.232  22.570  0.00  0.00    +0.031 A 
ATOM     22  C   UNL     1       5.072   0.003  23.123  0.00  0.00    +0.004 A 
ATOM     23  C   UNL     1       4.433   1.110  22.551  0.00  0.00    +0.002 A 
ENDBRANCH   6  11
BRANCH   4  10
ATOM     10  C   UNL     1      -3.968  -1.168  23.879  0.00  0.00    +0.119 C 
BRANCH  10  12
ATOM     12  C   UNL     1      -4.246   0.245  24.322  0.00  0.00    -0.033 A 
ATOM     15  C   UNL     1      -5.237   0.495  25.271  0.00  0.00    +0.006 A 
ATOM     16  C   UNL     1      -3.513   1.302  23.784  0.00  0.00    +0.006 A 
ATOM     19  C   UNL     1      -5.494   1.802  25.682  0.00  0.00    +0.015 A 
ATOM     20  C   UNL     1      -3.771   2.610  24.194  0.00  0.00    +0.015 A 
ATOM     21  C   UNL     1      -4.762   2.861  25.144  0.00  0.00    +0.059 A 
BRANCH  21  24
ATOM      3  O   UNL     1      -6.145   4.755  25.616  0.00  0.00    -0.245 OA
ATOM     24  C   UNL     1      -5.030   4.224  25.572  0.00  0.00    +0.337 C 
BRANCH  24   2
ATOM      2  O   UNL     1      -3.898   4.888  25.934  0.00  0.00    -0.477 OA
ATOM     25  H   UNL     1      -4.101   5.717  26.419  0.00  0.00    +0.295 HD
ENDBRANCH  24   2
ENDBRANCH  21  24
ENDBRANCH  10  12
ENDBRANCH   4  10
TORSDOF 5
ENDMDL
