MODEL 1
REMARK VINA RESULT:       5.4      0.000      0.000
REMARK  Name = 11867217
REMARK  5 active torsions:
REMARK  status: ('A' for Active; 'I' for Inactive)
REMARK    1  A    between atoms: S_1  and  N_9
REMARK    2  A    between atoms: S_1  and  C_25
REMARK    3  A    between atoms: N_9  and  C_20
REMARK    4  A    between atoms: C_19  and  C_22
REMARK    5  A    between atoms: C_25  and  C_29
REMARK                            x       y       z     vdW  Elec       q    Type
REMARK                         _______ _______ _______ _____ _____    ______ ____
ROOT
ATOM      3  O   UNL     1      -0.141   2.875  25.720  0.00  0.00    -0.266 OA
ATOM      4  O   UNL     1      -4.092  -0.077  27.308  0.00  0.00    -0.270 OA
ATOM      7  N   UNL     1      -4.874   1.281  25.572  0.00  0.00    -0.297 N 
ATOM      8  N   UNL     1      -2.248   2.828  24.696  0.00  0.00    -0.310 N 
ATOM     10  C   UNL     1      -4.371   3.704  25.828  0.00  0.00    +0.027 C 
ATOM     11  C   UNL     1      -4.504   2.714  23.578  0.00  0.00    +0.054 C 
ATOM     12  C   UNL     1      -4.859   3.949  24.404  0.00  0.00    +0.018 C 
ATOM     13  C   UNL     1      -5.049   2.458  26.423  0.00  0.00    +0.113 C 
ATOM     14  C   UNL     1      -2.842   3.578  25.811  0.00  0.00    +0.130 C 
ATOM     15  C   UNL     1      -5.226   1.481  24.156  0.00  0.00    +0.117 C 
ATOM     16  C   UNL     1      -3.006   2.473  23.572  0.00  0.00    +0.027 A 
ATOM     17  C   UNL     1      -2.420   1.888  22.510  0.00  0.00    +0.024 A 
ATOM     18  C   UNL     1      -0.863   2.574  24.769  0.00  0.00    +0.274 A 
ATOM     19  C   UNL     1      -4.387   0.096  26.127  0.00  0.00    +0.247 C 
ATOM     20  C   UNL     1      -0.278   1.906  23.580  0.00  0.00    +0.112 A 
ATOM     21  C   UNL     1      -1.013   1.592  22.512  0.00  0.00    +0.031 A 
ENDROOT
BRANCH  19  22
ATOM      2  F   UNL     1      -3.613  -4.271  22.721  0.00  0.00    -0.205 F 
ATOM     22  C   UNL     1      -4.184  -1.050  25.234  0.00  0.00    +0.037 A 
ATOM     23  C   UNL     1      -3.403  -2.124  25.652  0.00  0.00    +0.016 A 
ATOM     24  C   UNL     1      -4.773  -1.057  23.972  0.00  0.00    +0.016 A 
ATOM     26  C   UNL     1      -3.210  -3.213  24.802  0.00  0.00    +0.039 A 
ATOM     27  C   UNL     1      -4.580  -2.146  23.122  0.00  0.00    +0.039 A 
ATOM     28  C   UNL     1      -3.798  -3.225  23.537  0.00  0.00    +0.123 A 
ENDBRANCH  19  22
BRANCH  20   9
ATOM      9  N   UNL     1       1.091   1.589  23.546  0.00  0.00    -0.215 N 
ATOM     35  H   UNL     1       1.556   1.785  24.443  0.00  0.00    +0.173 HD
BRANCH   9   1
ATOM      1  S   UNL     1       1.474   0.061  22.897  0.00  0.00    +0.047 S 
ATOM      5  O   UNL     1       1.795  -0.861  23.969  0.00  0.00    -0.155 OA
ATOM      6  O   UNL     1       0.503  -0.284  21.876  0.00  0.00    -0.155 OA
BRANCH   1  25
ATOM     25  C   UNL     1       2.996   0.460  22.074  0.00  0.00    +0.223 C 
BRANCH  25  29
ATOM     29  C   UNL     1       4.122   0.029  22.962  0.00  0.00    -0.025 A 
ATOM     30  C   UNL     1       4.236  -1.308  23.334  0.00  0.00    +0.005 A 
ATOM     31  C   UNL     1       5.047   0.967  23.410  0.00  0.00    +0.005 A 
ATOM     32  C   UNL     1       5.285  -1.709  24.162  0.00  0.00    +0.000 A 
ATOM     33  C   UNL     1       6.096   0.565  24.238  0.00  0.00    +0.000 A 
ATOM     34  C   UNL     1       6.215  -0.773  24.613  0.00  0.00    +0.000 A 
ENDBRANCH  25  29
ENDBRANCH   1  25
ENDBRANCH   9   1
ENDBRANCH  20   9
TORSDOF 5
ENDMDL
MODEL 2
REMARK VINA RESULT:       6.8      3.283      6.133
REMARK  Name = 11867217
REMARK  5 active torsions:
REMARK  status: ('A' for Active; 'I' for Inactive)
REMARK    1  A    between atoms: S_1  and  N_9
REMARK    2  A    between atoms: S_1  and  C_25
REMARK    3  A    between atoms: N_9  and  C_20
REMARK    4  A    between atoms: C_19  and  C_22
REMARK    5  A    between atoms: C_25  and  C_29
REMARK                            x       y       z     vdW  Elec       q    Type
REMARK                         _______ _______ _______ _____ _____    ______ ____
ROOT
ATOM      3  O   UNL     1       0.693   0.172  22.462  0.00  0.00    -0.266 OA
ATOM      4  O   UNL     1      -4.328  -1.094  22.654  0.00  0.00    -0.270 OA
ATOM      7  N   UNL     1      -3.381  -1.630  24.725  0.00  0.00    -0.297 N 
ATOM      8  N   UNL     1      -0.399  -0.607  24.383  0.00  0.00    -0.310 N 
ATOM     10  C   UNL     1      -1.302  -2.992  24.605  0.00  0.00    +0.027 C 
ATOM     11  C   UNL     1      -1.612  -1.390  26.449  0.00  0.00    +0.054 C 
ATOM     12  C   UNL     1      -1.088  -2.782  26.101  0.00  0.00    +0.018 C 
ATOM     13  C   UNL     1      -2.797  -2.887  24.256  0.00  0.00    +0.113 C 
ATOM     14  C   UNL     1      -0.456  -1.970  23.837  0.00  0.00    +0.130 C 
ATOM     15  C   UNL     1      -3.119  -1.312  26.139  0.00  0.00    +0.117 C 
ATOM     16  C   UNL     1      -0.872  -0.318  25.670  0.00  0.00    +0.027 A 
ATOM     17  C   UNL     1      -0.709   0.910  26.198  0.00  0.00    +0.024 A 
ATOM     18  C   UNL     1       0.243   0.367  23.591  0.00  0.00    +0.274 A 
ATOM     19  C   UNL     1      -4.105  -0.834  23.835  0.00  0.00    +0.247 C 
ATOM     20  C   UNL     1       0.372   1.707  24.217  0.00  0.00    +0.112 A 
ATOM     21  C   UNL     1      -0.069   1.957  25.450  0.00  0.00    +0.031 A 
ENDROOT
BRANCH  19  22
ATOM      2  F   UNL     1      -6.139   4.021  25.721  0.00  0.00    -0.205 F 
ATOM     22  C   UNL     1      -4.639   0.440  24.329  0.00  0.00    +0.037 A 
ATOM     23  C   UNL     1      -4.144   1.640  23.826  0.00  0.00    +0.016 A 
ATOM     24  C   UNL     1      -5.637   0.443  25.300  0.00  0.00    +0.016 A 
ATOM     26  C   UNL     1      -4.651   2.851  24.297  0.00  0.00    +0.039 A 
ATOM     27  C   UNL     1      -6.144   1.653  25.771  0.00  0.00    +0.039 A 
ATOM     28  C   UNL     1      -5.652   2.859  25.269  0.00  0.00    +0.123 A 
ENDBRANCH  19  22
BRANCH  20   9
ATOM      9  N   UNL     1       0.981   2.761  23.515  0.00  0.00    -0.215 N 
ATOM     35  H   UNL     1       1.503   2.429  22.692  0.00  0.00    +0.173 HD
BRANCH   9   1
ATOM      1  S   UNL     1      -0.021   4.102  23.192  0.00  0.00    +0.047 S 
ATOM      5  O   UNL     1       0.598   4.946  22.188  0.00  0.00    -0.155 OA
ATOM      6  O   UNL     1      -1.393   3.654  23.053  0.00  0.00    -0.155 OA
BRANCH   1  25
ATOM     25  C   UNL     1       0.110   4.952  24.746  0.00  0.00    +0.223 C 
BRANCH  25  29
ATOM     29  C   UNL     1      -1.222   4.863  25.428  0.00  0.00    -0.025 A 
ATOM     30  C   UNL     1      -2.187   5.836  25.187  0.00  0.00    +0.005 A 
ATOM     31  C   UNL     1      -1.484   3.808  26.298  0.00  0.00    +0.005 A 
ATOM     32  C   UNL     1      -3.427   5.754  25.822  0.00  0.00    +0.000 A 
ATOM     33  C   UNL     1      -2.723   3.726  26.932  0.00  0.00    +0.000 A 
ATOM     34  C   UNL     1      -3.695   4.698  26.694  0.00  0.00    +0.000 A 
ENDBRANCH  25  29
ENDBRANCH   1  25
ENDBRANCH   9   1
ENDBRANCH  20   9
TORSDOF 5
ENDMDL
MODEL 3
REMARK VINA RESULT:       7.1      3.050      6.321
REMARK  Name = 11867217
REMARK  5 active torsions:
REMARK  status: ('A' for Active; 'I' for Inactive)
REMARK    1  A    between atoms: S_1  and  N_9
REMARK    2  A    between atoms: S_1  and  C_25
REMARK    3  A    between atoms: N_9  and  C_20
REMARK    4  A    between atoms: C_19  and  C_22
REMARK    5  A    between atoms: C_25  and  C_29
REMARK                            x       y       z     vdW  Elec       q    Type
REMARK                         _______ _______ _______ _____ _____    ______ ____
ROOT
ATOM      3  O   UNL     1      -4.419   1.682  26.054  0.00  0.00    -0.266 OA
ATOM      4  O   UNL     1      -0.279  -1.380  26.625  0.00  0.00    -0.270 OA
ATOM      7  N   UNL     1      -1.562  -2.242  24.869  0.00  0.00    -0.297 N 
ATOM      8  N   UNL     1      -3.897  -0.108  24.636  0.00  0.00    -0.310 N 
ATOM     10  C   UNL     1      -3.975  -2.554  25.389  0.00  0.00    +0.027 C 
ATOM     11  C   UNL     1      -3.280  -2.003  23.092  0.00  0.00    +0.054 C 
ATOM     12  C   UNL     1      -4.246  -2.851  23.918  0.00  0.00    +0.018 C 
ATOM     13  C   UNL     1      -2.521  -2.907  25.750  0.00  0.00    +0.113 C 
ATOM     14  C   UNL     1      -4.297  -1.080  25.663  0.00  0.00    +0.130 C 
ATOM     15  C   UNL     1      -1.829  -2.398  23.429  0.00  0.00    +0.117 C 
ATOM     16  C   UNL     1      -3.483  -0.523  23.363  0.00  0.00    +0.027 A 
ATOM     17  C   UNL     1      -3.230   0.381  22.399  0.00  0.00    +0.024 A 
ATOM     18  C   UNL     1      -4.046   1.256  24.961  0.00  0.00    +0.274 A 
ATOM     19  C   UNL     1      -0.507  -1.514  25.425  0.00  0.00    +0.247 C 
ATOM     20  C   UNL     1      -3.729   2.206  23.865  0.00  0.00    +0.112 A 
ATOM     21  C   UNL     1      -3.354   1.790  22.655  0.00  0.00    +0.031 A 
ENDROOT
BRANCH  19  22
ATOM      2  F   UNL     1       2.987   1.113  21.938  0.00  0.00    -0.205 F 
ATOM     22  C   UNL     1       0.410  -0.824  24.510  0.00  0.00    +0.037 A 
ATOM     23  C   UNL     1       0.066   0.422  23.994  0.00  0.00    +0.016 A 
ATOM     24  C   UNL     1       1.619  -1.421  24.161  0.00  0.00    +0.016 A 
ATOM     26  C   UNL     1       0.937   1.077  23.125  0.00  0.00    +0.039 A 
ATOM     27  C   UNL     1       2.490  -0.766  23.291  0.00  0.00    +0.039 A 
ATOM     28  C   UNL     1       2.150   0.484  22.773  0.00  0.00    +0.123 A 
ENDBRANCH  19  22
BRANCH  20   9
ATOM      9  N   UNL     1      -3.827   3.591  24.079  0.00  0.00    -0.215 N 
ATOM     35  H   UNL     1      -3.943   4.112  23.198  0.00  0.00    +0.173 HD
BRANCH   9   1
ATOM      1  S   UNL     1      -4.913   4.069  25.303  0.00  0.00    +0.047 S 
ATOM      5  O   UNL     1      -5.514   5.342  24.955  0.00  0.00    -0.155 OA
ATOM      6  O   UNL     1      -5.729   2.935  25.690  0.00  0.00    -0.155 OA
BRANCH   1  25
ATOM     25  C   UNL     1      -3.761   4.374  26.620  0.00  0.00    +0.223 C 
BRANCH  25  29
ATOM     29  C   UNL     1      -2.379   4.266  26.051  0.00  0.00    -0.025 A 
ATOM     30  C   UNL     1      -1.900   5.262  25.204  0.00  0.00    +0.005 A 
ATOM     31  C   UNL     1      -1.583   3.171  26.373  0.00  0.00    +0.005 A 
ATOM     32  C   UNL     1      -0.613   5.161  24.674  0.00  0.00    +0.000 A 
ATOM     33  C   UNL     1      -0.296   3.071  25.843  0.00  0.00    +0.000 A 
ATOM     34  C   UNL     1       0.189   4.066  24.994  0.00  0.00    +0.000 A 
ENDBRANCH  25  29
ENDBRANCH   1  25
ENDBRANCH   9   1
ENDBRANCH  20   9
TORSDOF 5
ENDMDL
MODEL 4
REMARK VINA RESULT:       7.2      3.380      5.621
REMARK  Name = 11867217
REMARK  5 active torsions:
REMARK  status: ('A' for Active; 'I' for Inactive)
REMARK    1  A    between atoms: S_1  and  N_9
REMARK    2  A    between atoms: S_1  and  C_25
REMARK    3  A    between atoms: N_9  and  C_20
REMARK    4  A    between atoms: C_19  and  C_22
REMARK    5  A    between atoms: C_25  and  C_29
REMARK                            x       y       z     vdW  Elec       q    Type
REMARK                         _______ _______ _______ _____ _____    ______ ____
ROOT
ATOM      3  O   UNL     1       0.435   1.631  27.034  0.00  0.00    -0.266 OA
ATOM      4  O   UNL     1      -3.616   4.861  27.072  0.00  0.00    -0.270 OA
ATOM      7  N   UNL     1      -2.685   4.917  24.927  0.00  0.00    -0.297 N 
ATOM      8  N   UNL     1      -0.374   2.755  25.144  0.00  0.00    -0.310 N 
ATOM     10  C   UNL     1      -0.226   5.295  24.862  0.00  0.00    +0.027 C 
ATOM     11  C   UNL     1      -1.301   3.931  23.116  0.00  0.00    +0.054 C 
ATOM     12  C   UNL     1      -0.226   4.987  23.368  0.00  0.00    +0.018 C 
ATOM     13  C   UNL     1      -1.602   5.827  25.301  0.00  0.00    +0.113 C 
ATOM     14  C   UNL     1       0.176   4.029  25.627  0.00  0.00    +0.130 C 
ATOM     15  C   UNL     1      -2.679   4.491  23.517  0.00  0.00    +0.117 C 
ATOM     16  C   UNL     1      -1.015   2.663  23.901  0.00  0.00    +0.027 A 
ATOM     17  C   UNL     1      -1.411   1.469  23.424  0.00  0.00    +0.024 A 
ATOM     18  C   UNL     1      -0.136   1.618  25.944  0.00  0.00    +0.274 A 
ATOM     19  C   UNL     1      -3.606   4.509  25.894  0.00  0.00    +0.247 C 
ATOM     20  C   UNL     1      -0.616   0.333  25.375  0.00  0.00    +0.112 A 
ATOM     21  C   UNL     1      -1.209   0.265  24.182  0.00  0.00    +0.031 A 
ENDROOT
BRANCH  19  22
ATOM      2  F   UNL     1      -7.592   0.900  24.360  0.00  0.00    -0.205 F 
ATOM     22  C   UNL     1      -4.652   3.562  25.491  0.00  0.00    +0.037 A 
ATOM     23  C   UNL     1      -4.693   3.092  24.182  0.00  0.00    +0.016 A 
ATOM     24  C   UNL     1      -5.598   3.139  26.421  0.00  0.00    +0.016 A 
ATOM     26  C   UNL     1      -5.688   2.192  23.799  0.00  0.00    +0.039 A 
ATOM     27  C   UNL     1      -6.592   2.239  26.039  0.00  0.00    +0.039 A 
ATOM     28  C   UNL     1      -6.638   1.764  24.727  0.00  0.00    +0.123 A 
ENDBRANCH  19  22
BRANCH  20   9
ATOM      9  N   UNL     1      -0.448  -0.865  26.090  0.00  0.00    -0.215 N 
ATOM     35  H   UNL     1      -1.176  -0.995  26.805  0.00  0.00    +0.173 HD
BRANCH   9   1
ATOM      1  S   UNL     1      -0.166  -2.252  25.140  0.00  0.00    +0.047 S 
ATOM      5  O   UNL     1      -0.263  -1.910  23.734  0.00  0.00    -0.155 OA
ATOM      6  O   UNL     1       0.983  -2.966  25.662  0.00  0.00    -0.155 OA
BRANCH   1  25
ATOM     25  C   UNL     1      -1.614  -3.193  25.553  0.00  0.00    +0.223 C 
BRANCH  25  29
ATOM     29  C   UNL     1      -2.811  -2.408  25.110  0.00  0.00    -0.025 A 
ATOM     30  C   UNL     1      -3.272  -1.352  25.891  0.00  0.00    +0.005 A 
ATOM     31  C   UNL     1      -3.454  -2.739  23.921  0.00  0.00    +0.005 A 
ATOM     32  C   UNL     1      -4.386  -0.620  25.478  0.00  0.00    +0.000 A 
ATOM     33  C   UNL     1      -4.568  -2.007  23.509  0.00  0.00    +0.000 A 
ATOM     34  C   UNL     1      -5.034  -0.948  24.287  0.00  0.00    +0.000 A 
ENDBRANCH  25  29
ENDBRANCH   1  25
ENDBRANCH   9   1
ENDBRANCH  20   9
TORSDOF 5
ENDMDL
MODEL 5
REMARK VINA RESULT:       7.3      3.339      6.130
REMARK  Name = 11867217
REMARK  5 active torsions:
REMARK  status: ('A' for Active; 'I' for Inactive)
REMARK    1  A    between atoms: S_1  and  N_9
REMARK    2  A    between atoms: S_1  and  C_25
REMARK    3  A    between atoms: N_9  and  C_20
REMARK    4  A    between atoms: C_19  and  C_22
REMARK    5  A    between atoms: C_25  and  C_29
REMARK                            x       y       z     vdW  Elec       q    Type
REMARK                         _______ _______ _______ _____ _____    ______ ____
ROOT
ATOM      3  O   UNL     1       0.713   0.689  22.947  0.00  0.00    -0.266 OA
ATOM      4  O   UNL     1      -4.267  -0.724  22.711  0.00  0.00    -0.270 OA
ATOM      7  N   UNL     1      -3.400  -1.513  24.736  0.00  0.00    -0.297 N 
ATOM      8  N   UNL     1      -0.441  -0.373  24.687  0.00  0.00    -0.310 N 
ATOM     10  C   UNL     1      -1.274  -2.790  24.539  0.00  0.00    +0.027 C 
ATOM     11  C   UNL     1      -1.722  -1.464  26.565  0.00  0.00    +0.054 C 
ATOM     12  C   UNL     1      -1.136  -2.781  26.058  0.00  0.00    +0.018 C 
ATOM     13  C   UNL     1      -2.754  -2.678  24.132  0.00  0.00    +0.113 C 
ATOM     14  C   UNL     1      -0.427  -1.650  23.960  0.00  0.00    +0.130 C 
ATOM     15  C   UNL     1      -3.214  -1.384  26.191  0.00  0.00    +0.117 C 
ATOM     16  C   UNL     1      -0.983  -0.275  25.976  0.00  0.00    +0.027 A 
ATOM     17  C   UNL     1      -0.885   0.872  26.673  0.00  0.00    +0.024 A 
ATOM     18  C   UNL     1       0.204   0.717  24.067  0.00  0.00    +0.274 A 
ATOM     19  C   UNL     1      -4.108  -0.622  23.926  0.00  0.00    +0.247 C 
ATOM     20  C   UNL     1       0.260   1.962  24.875  0.00  0.00    +0.112 A 
ATOM     21  C   UNL     1      -0.246   2.029  26.107  0.00  0.00    +0.031 A 
ENDROOT
BRANCH  19  22
ATOM      2  F   UNL     1      -6.387   3.875  26.345  0.00  0.00    -0.205 F 
ATOM     22  C   UNL     1      -4.706   0.558  24.561  0.00  0.00    +0.037 A 
ATOM     23  C   UNL     1      -6.030   0.894  24.290  0.00  0.00    +0.016 A 
ATOM     24  C   UNL     1      -3.947   1.336  25.432  0.00  0.00    +0.016 A 
ATOM     26  C   UNL     1      -6.598   2.016  24.893  0.00  0.00    +0.039 A 
ATOM     27  C   UNL     1      -4.516   2.458  26.035  0.00  0.00    +0.039 A 
ATOM     28  C   UNL     1      -5.842   2.798  25.766  0.00  0.00    +0.123 A 
ENDBRANCH  19  22
BRANCH  20   9
ATOM      9  N   UNL     1       0.865   3.117  24.353  0.00  0.00    -0.215 N 
ATOM     35  H   UNL     1       1.353   2.933  23.465  0.00  0.00    +0.173 HD
BRANCH   9   1
ATOM      1  S   UNL     1      -0.121   4.508  24.315  0.00  0.00    +0.047 S 
ATOM      5  O   UNL     1       0.300   5.435  25.347  0.00  0.00    -0.155 OA
ATOM      6  O   UNL     1      -0.289   4.940  22.941  0.00  0.00    -0.155 OA
BRANCH   1  25
ATOM     25  C   UNL     1      -1.659   3.796  24.844  0.00  0.00    +0.223 C 
BRANCH  25  29
ATOM     29  C   UNL     1      -2.456   3.469  23.618  0.00  0.00    -0.025 A 
ATOM     30  C   UNL     1      -3.609   4.194  23.331  0.00  0.00    +0.005 A 
ATOM     31  C   UNL     1      -2.039   2.443  22.775  0.00  0.00    +0.005 A 
ATOM     32  C   UNL     1      -4.351   3.890  22.189  0.00  0.00    +0.000 A 
ATOM     33  C   UNL     1      -2.781   2.140  21.634  0.00  0.00    +0.000 A 
ATOM     34  C   UNL     1      -3.937   2.864  21.341  0.00  0.00    +0.000 A 
ENDBRANCH  25  29
ENDBRANCH   1  25
ENDBRANCH   9   1
ENDBRANCH  20   9
TORSDOF 5
ENDMDL
MODEL 6
REMARK VINA RESULT:       7.3      2.929      5.507
REMARK  Name = 11867217
REMARK  5 active torsions:
REMARK  status: ('A' for Active; 'I' for Inactive)
REMARK    1  A    between atoms: S_1  and  N_9
REMARK    2  A    between atoms: S_1  and  C_25
REMARK    3  A    between atoms: N_9  and  C_20
REMARK    4  A    between atoms: C_19  and  C_22
REMARK    5  A    between atoms: C_25  and  C_29
REMARK                            x       y       z     vdW  Elec       q    Type
REMARK                         _______ _______ _______ _____ _____    ______ ____
ROOT
ATOM      3  O   UNL     1      -3.986   2.479  26.074  0.00  0.00    -0.266 OA
ATOM      4  O   UNL     1      -0.425  -1.249  26.587  0.00  0.00    -0.270 OA
ATOM      7  N   UNL     1      -1.831  -1.850  24.817  0.00  0.00    -0.297 N 
ATOM      8  N   UNL     1      -3.771   0.652  24.625  0.00  0.00    -0.310 N 
ATOM     10  C   UNL     1      -4.264  -1.759  25.334  0.00  0.00    +0.027 C 
ATOM     11  C   UNL     1      -3.480  -1.292  23.046  0.00  0.00    +0.054 C 
ATOM     12  C   UNL     1      -4.578  -1.979  23.857  0.00  0.00    +0.018 C 
ATOM     13  C   UNL     1      -2.891  -2.359  25.687  0.00  0.00    +0.113 C 
ATOM     14  C   UNL     1      -4.332  -0.256  25.634  0.00  0.00    +0.130 C 
ATOM     15  C   UNL     1      -2.118  -1.933  23.375  0.00  0.00    +0.117 C 
ATOM     16  C   UNL     1      -3.431   0.195  23.344  0.00  0.00    +0.027 A 
ATOM     17  C   UNL     1      -3.026   1.061  22.395  0.00  0.00    +0.024 A 
ATOM     18  C   UNL     1      -3.688   2.015  24.974  0.00  0.00    +0.274 A 
ATOM     19  C   UNL     1      -0.670  -1.321  25.384  0.00  0.00    +0.247 C 
ATOM     20  C   UNL     1      -3.212   2.917  23.895  0.00  0.00    +0.112 A 
ATOM     21  C   UNL     1      -2.911   2.466  22.677  0.00  0.00    +0.031 A 
ENDROOT
BRANCH  19  22
ATOM      2  F   UNL     1       3.226   0.738  21.942  0.00  0.00    -0.205 F 
ATOM     22  C   UNL     1       0.352  -0.781  24.481  0.00  0.00    +0.037 A 
ATOM     23  C   UNL     1       0.152   0.452  23.867  0.00  0.00    +0.016 A 
ATOM     24  C   UNL     1       1.518  -1.504  24.242  0.00  0.00    +0.016 A 
ATOM     26  C   UNL     1       1.123   0.966  23.009  0.00  0.00    +0.039 A 
ATOM     27  C   UNL     1       2.490  -0.991  23.384  0.00  0.00    +0.039 A 
ATOM     28  C   UNL     1       2.293   0.245  22.766  0.00  0.00    +0.123 A 
ENDBRANCH  19  22
BRANCH  20   9
ATOM      9  N   UNL     1      -3.075   4.295  24.133  0.00  0.00    -0.215 N 
ATOM     35  H   UNL     1      -3.977   4.744  24.344  0.00  0.00    +0.173 HD
BRANCH   9   1
ATOM      1  S   UNL     1      -1.827   4.732  25.209  0.00  0.00    +0.047 S 
ATOM      5  O   UNL     1      -1.227   5.982  24.783  0.00  0.00    -0.155 OA
ATOM      6  O   UNL     1      -2.281   4.544  26.573  0.00  0.00    -0.155 OA
BRANCH   1  25
ATOM     25  C   UNL     1      -0.661   3.441  24.851  0.00  0.00    +0.223 C 
BRANCH  25  29
ATOM     29  C   UNL     1      -0.011   3.043  26.142  0.00  0.00    -0.025 A 
ATOM     30  C   UNL     1       1.226   3.579  26.487  0.00  0.00    +0.005 A 
ATOM     31  C   UNL     1      -0.649   2.138  26.986  0.00  0.00    +0.005 A 
ATOM     32  C   UNL     1       1.831   3.208  27.688  0.00  0.00    +0.000 A 
ATOM     33  C   UNL     1      -0.043   1.768  28.187  0.00  0.00    +0.000 A 
ATOM     34  C   UNL     1       1.196   2.303  28.538  0.00  0.00    +0.000 A 
ENDBRANCH  25  29
ENDBRANCH   1  25
ENDBRANCH   9   1
ENDBRANCH  20   9
TORSDOF 5
ENDMDL
MODEL 7
REMARK VINA RESULT:       7.5      3.046      5.024
REMARK  Name = 11867217
REMARK  5 active torsions:
REMARK  status: ('A' for Active; 'I' for Inactive)
REMARK    1  A    between atoms: S_1  and  N_9
REMARK    2  A    between atoms: S_1  and  C_25
REMARK    3  A    between atoms: N_9  and  C_20
REMARK    4  A    between atoms: C_19  and  C_22
REMARK    5  A    between atoms: C_25  and  C_29
REMARK                            x       y       z     vdW  Elec       q    Type
REMARK                         _______ _______ _______ _____ _____    ______ ____
ROOT
ATOM      3  O   UNL     1      -4.545  -1.512  23.040  0.00  0.00    -0.266 OA
ATOM      4  O   UNL     1      -3.210   3.493  22.948  0.00  0.00    -0.270 OA
ATOM      7  N   UNL     1      -4.493   3.136  24.871  0.00  0.00    -0.297 N 
ATOM      8  N   UNL     1      -5.014   0.010  24.758  0.00  0.00    -0.310 N 
ATOM     10  C   UNL     1      -6.652   1.959  24.488  0.00  0.00    +0.027 C 
ATOM     11  C   UNL     1      -5.453   1.655  26.617  0.00  0.00    +0.054 C 
ATOM     12  C   UNL     1      -6.838   1.826  25.996  0.00  0.00    +0.018 C 
ATOM     13  C   UNL     1      -5.771   3.178  24.160  0.00  0.00    +0.113 C 
ATOM     14  C   UNL     1      -6.056   0.654  23.947  0.00  0.00    +0.130 C 
ATOM     15  C   UNL     1      -4.597   2.901  26.321  0.00  0.00    +0.117 C 
ATOM     16  C   UNL     1      -4.761   0.417  26.075  0.00  0.00    +0.027 A 
ATOM     17  C   UNL     1      -3.883  -0.257  26.841  0.00  0.00    +0.024 A 
ATOM     18  C   UNL     1      -4.356  -1.097  24.182  0.00  0.00    +0.274 A 
ATOM     19  C   UNL     1      -3.303   3.296  24.158  0.00  0.00    +0.247 C 
ATOM     20  C   UNL     1      -3.382  -1.784  25.068  0.00  0.00    +0.112 A 
ATOM     21  C   UNL     1      -3.169  -1.392  26.324  0.00  0.00    +0.031 A 
ENDROOT
BRANCH  19  22
ATOM      2  F   UNL     1       1.512   2.948  26.980  0.00  0.00    -0.205 F 
ATOM     22  C   UNL     1      -2.040   3.205  24.899  0.00  0.00    +0.037 A 
ATOM     23  C   UNL     1      -1.136   4.263  24.859  0.00  0.00    +0.016 A 
ATOM     24  C   UNL     1      -1.751   2.060  25.637  0.00  0.00    +0.016 A 
ATOM     26  C   UNL     1       0.065   4.176  25.562  0.00  0.00    +0.039 A 
ATOM     27  C   UNL     1      -0.550   1.974  26.340  0.00  0.00    +0.039 A 
ATOM     28  C   UNL     1       0.359   3.032  26.304  0.00  0.00    +0.123 A 
ENDBRANCH  19  22
BRANCH  20   9
ATOM      9  N   UNL     1      -2.656  -2.891  24.597  0.00  0.00    -0.215 N 
ATOM     35  H   UNL     1      -3.184  -3.434  23.899  0.00  0.00    +0.173 HD
BRANCH   9   1
ATOM      1  S   UNL     1      -1.046  -2.569  24.136  0.00  0.00    +0.047 S 
ATOM      5  O   UNL     1      -0.194  -2.554  25.309  0.00  0.00    -0.155 OA
ATOM      6  O   UNL     1      -0.711  -3.369  22.974  0.00  0.00    -0.155 OA
BRANCH   1  25
ATOM     25  C   UNL     1      -1.224  -0.887  23.594  0.00  0.00    +0.223 C 
BRANCH  25  29
ATOM     29  C   UNL     1       0.129  -0.397  23.176  0.00  0.00    -0.025 A 
ATOM     30  C   UNL     1       0.699  -0.865  21.996  0.00  0.00    +0.005 A 
ATOM     31  C   UNL     1       0.807   0.523  23.971  0.00  0.00    +0.005 A 
ATOM     32  C   UNL     1       1.959  -0.408  21.607  0.00  0.00    +0.000 A 
ATOM     33  C   UNL     1       2.066   0.979  23.582  0.00  0.00    +0.000 A 
ATOM     34  C   UNL     1       2.642   0.514  22.400  0.00  0.00    +0.000 A 
ENDBRANCH  25  29
ENDBRANCH   1  25
ENDBRANCH   9   1
ENDBRANCH  20   9
TORSDOF 5
ENDMDL
MODEL 8
REMARK VINA RESULT:       8.1      2.598      4.421
REMARK  Name = 11867217
REMARK  5 active torsions:
REMARK  status: ('A' for Active; 'I' for Inactive)
REMARK    1  A    between atoms: S_1  and  N_9
REMARK    2  A    between atoms: S_1  and  C_25
REMARK    3  A    between atoms: N_9  and  C_20
REMARK    4  A    between atoms: C_19  and  C_22
REMARK    5  A    between atoms: C_25  and  C_29
REMARK                            x       y       z     vdW  Elec       q    Type
REMARK                         _______ _______ _______ _____ _____    ______ ____
ROOT
ATOM      3  O   UNL     1      -0.227  -0.977  22.280  0.00  0.00    -0.266 OA
ATOM      4  O   UNL     1      -5.189   0.286  23.074  0.00  0.00    -0.270 OA
ATOM      7  N   UNL     1      -4.398  -0.741  25.021  0.00  0.00    -0.297 N 
ATOM      8  N   UNL     1      -1.345  -1.241  24.322  0.00  0.00    -0.310 N 
ATOM     10  C   UNL     1      -3.249  -2.919  24.664  0.00  0.00    +0.027 C 
ATOM     11  C   UNL     1      -2.555  -1.459  26.522  0.00  0.00    +0.054 C 
ATOM     12  C   UNL     1      -2.801  -2.913  26.123  0.00  0.00    +0.018 C 
ATOM     13  C   UNL     1      -4.539  -2.098  24.495  0.00  0.00    +0.113 C 
ATOM     14  C   UNL     1      -2.104  -2.384  23.795  0.00  0.00    +0.130 C 
ATOM     15  C   UNL     1      -3.865  -0.659  26.392  0.00  0.00    +0.117 C 
ATOM     16  C   UNL     1      -1.482  -0.828  25.654  0.00  0.00    +0.027 A 
ATOM     17  C   UNL     1      -0.696   0.145  26.152  0.00  0.00    +0.024 A 
ATOM     18  C   UNL     1      -0.405  -0.650  23.453  0.00  0.00    +0.274 A 
ATOM     19  C   UNL     1      -4.744   0.348  24.218  0.00  0.00    +0.247 C 
ATOM     20  C   UNL     1       0.415   0.434  24.051  0.00  0.00    +0.112 A 
ATOM     21  C   UNL     1       0.282   0.799  25.327  0.00  0.00    +0.031 A 
ENDROOT
BRANCH  19  22
ATOM      2  F   UNL     1      -3.995   5.483  26.303  0.00  0.00    -0.205 F 
ATOM     22  C   UNL     1      -4.547   1.696  24.765  0.00  0.00    +0.037 A 
ATOM     23  C   UNL     1      -3.280   2.271  24.750  0.00  0.00    +0.016 A 
ATOM     24  C   UNL     1      -5.630   2.392  25.296  0.00  0.00    +0.016 A 
ATOM     26  C   UNL     1      -3.093   3.551  25.270  0.00  0.00    +0.039 A 
ATOM     27  C   UNL     1      -5.443   3.673  25.816  0.00  0.00    +0.039 A 
ATOM     28  C   UNL     1      -4.175   4.253  25.803  0.00  0.00    +0.123 A 
ENDBRANCH  19  22
BRANCH  20   9
ATOM      9  N   UNL     1       1.375   1.106  23.275  0.00  0.00    -0.215 N 
ATOM     35  H   UNL     1       1.829   1.869  23.796  0.00  0.00    +0.173 HD
BRANCH   9   1
ATOM      1  S   UNL     1       2.470   0.106  22.436  0.00  0.00    +0.047 S 
ATOM      5  O   UNL     1       2.808  -1.044  23.252  0.00  0.00    -0.155 OA
ATOM      6  O   UNL     1       2.022  -0.052  21.065  0.00  0.00    -0.155 OA
BRANCH   1  25
ATOM     25  C   UNL     1       3.890   1.172  22.415  0.00  0.00    +0.223 C 
BRANCH  25  29
ATOM     29  C   UNL     1       5.023   0.435  23.063  0.00  0.00    -0.025 A 
ATOM     30  C   UNL     1       6.016  -0.138  22.273  0.00  0.00    +0.005 A 
ATOM     31  C   UNL     1       5.074   0.328  24.450  0.00  0.00    +0.005 A 
ATOM     32  C   UNL     1       7.071  -0.824  22.877  0.00  0.00    +0.000 A 
ATOM     33  C   UNL     1       6.130  -0.358  25.052  0.00  0.00    +0.000 A 
ATOM     34  C   UNL     1       7.127  -0.933  24.266  0.00  0.00    +0.000 A 
ENDBRANCH  25  29
ENDBRANCH   1  25
ENDBRANCH   9   1
ENDBRANCH  20   9
TORSDOF 5
ENDMDL
MODEL 9
REMARK VINA RESULT:       8.2      3.321      6.430
REMARK  Name = 11867217
REMARK  5 active torsions:
REMARK  status: ('A' for Active; 'I' for Inactive)
REMARK    1  A    between atoms: S_1  and  N_9
REMARK    2  A    between atoms: S_1  and  C_25
REMARK    3  A    between atoms: N_9  and  C_20
REMARK    4  A    between atoms: C_19  and  C_22
REMARK    5  A    between atoms: C_25  and  C_29
REMARK                            x       y       z     vdW  Elec       q    Type
REMARK                         _______ _______ _______ _____ _____    ______ ____
ROOT
ATOM      3  O   UNL     1      -4.957   4.448  23.985  0.00  0.00    -0.266 OA
ATOM      4  O   UNL     1      -0.913   1.937  21.939  0.00  0.00    -0.270 OA
ATOM      7  N   UNL     1      -0.105   3.299  23.660  0.00  0.00    -0.297 N 
ATOM      8  N   UNL     1      -2.772   4.561  24.823  0.00  0.00    -0.310 N 
ATOM     10  C   UNL     1      -0.846   5.672  23.554  0.00  0.00    +0.027 C 
ATOM     11  C   UNL     1      -0.424   4.618  25.739  0.00  0.00    +0.054 C 
ATOM     12  C   UNL     1      -0.257   5.910  24.941  0.00  0.00    +0.018 C 
ATOM     13  C   UNL     1      -0.112   4.517  22.850  0.00  0.00    +0.113 C 
ATOM     14  C   UNL     1      -2.348   5.403  23.696  0.00  0.00    +0.130 C 
ATOM     15  C   UNL     1       0.352   3.480  25.049  0.00  0.00    +0.117 C 
ATOM     16  C   UNL     1      -1.888   4.238  25.863  0.00  0.00    +0.027 A 
ATOM     17  C   UNL     1      -2.323   3.563  26.943  0.00  0.00    +0.024 A 
ATOM     18  C   UNL     1      -4.130   4.182  24.857  0.00  0.00    +0.274 A 
ATOM     19  C   UNL     1      -0.531   2.094  23.097  0.00  0.00    +0.247 C 
ATOM     20  C   UNL     1      -4.544   3.419  26.062  0.00  0.00    +0.112 A 
ATOM     21  C   UNL     1      -3.692   3.137  27.048  0.00  0.00    +0.031 A 
ENDROOT
BRANCH  19  22
ATOM      2  F   UNL     1      -0.604  -2.446  26.360  0.00  0.00    -0.205 F 
ATOM     22  C   UNL     1      -0.550   0.903  23.953  0.00  0.00    +0.037 A 
ATOM     23  C   UNL     1      -0.241  -0.342  23.413  0.00  0.00    +0.016 A 
ATOM     24  C   UNL     1      -0.877   1.024  25.301  0.00  0.00    +0.016 A 
ATOM     26  C   UNL     1      -0.260  -1.475  24.227  0.00  0.00    +0.039 A 
ATOM     27  C   UNL     1      -0.895  -0.108  26.115  0.00  0.00    +0.039 A 
ATOM     28  C   UNL     1      -0.586  -1.358  25.579  0.00  0.00    +0.123 A 
ENDBRANCH  19  22
BRANCH  20   9
ATOM      9  N   UNL     1      -5.870   2.975  26.197  0.00  0.00    -0.215 N 
ATOM     35  H   UNL     1      -6.551   3.708  25.954  0.00  0.00    +0.173 HD
BRANCH   9   1
ATOM      1  S   UNL     1      -6.212   1.462  25.490  0.00  0.00    +0.047 S 
ATOM      5  O   UNL     1      -6.253   0.439  26.517  0.00  0.00    -0.155 OA
ATOM      6  O   UNL     1      -7.294   1.612  24.536  0.00  0.00    -0.155 OA
BRANCH   1  25
ATOM     25  C   UNL     1      -4.715   1.220  24.567  0.00  0.00    +0.223 C 
BRANCH  25  29
ATOM     29  C   UNL     1      -4.336  -0.225  24.682  0.00  0.00    -0.025 A 
ATOM     30  C   UNL     1      -3.933  -0.738  25.912  0.00  0.00    +0.005 A 
ATOM     31  C   UNL     1      -4.390  -1.045  23.559  0.00  0.00    +0.005 A 
ATOM     32  C   UNL     1      -3.581  -2.084  26.019  0.00  0.00    +0.000 A 
ATOM     33  C   UNL     1      -4.038  -2.391  23.667  0.00  0.00    +0.000 A 
ATOM     34  C   UNL     1      -3.633  -2.910  24.897  0.00  0.00    +0.000 A 
ENDBRANCH  25  29
ENDBRANCH   1  25
ENDBRANCH   9   1
ENDBRANCH  20   9
TORSDOF 5
ENDMDL
MODEL 10
REMARK VINA RESULT:       8.6      2.708      4.419
REMARK  Name = 11867217
REMARK  5 active torsions:
REMARK  status: ('A' for Active; 'I' for Inactive)
REMARK    1  A    between atoms: S_1  and  N_9
REMARK    2  A    between atoms: S_1  and  C_25
REMARK    3  A    between atoms: N_9  and  C_20
REMARK    4  A    between atoms: C_19  and  C_22
REMARK    5  A    between atoms: C_25  and  C_29
REMARK                            x       y       z     vdW  Elec       q    Type
REMARK                         _______ _______ _______ _____ _____    ______ ____
ROOT
ATOM      3  O   UNL     1      -1.806   1.032  21.730  0.00  0.00    -0.266 OA
ATOM      4  O   UNL     1      -1.409   5.040  24.989  0.00  0.00    -0.270 OA
ATOM      7  N   UNL     1      -3.257   3.767  25.652  0.00  0.00    -0.297 N 
ATOM      8  N   UNL     1      -3.155   1.333  23.621  0.00  0.00    -0.310 N 
ATOM     10  C   UNL     1      -4.864   3.228  23.830  0.00  0.00    +0.027 C 
ATOM     11  C   UNL     1      -4.553   1.650  25.695  0.00  0.00    +0.054 C 
ATOM     12  C   UNL     1      -5.596   2.273  24.769  0.00  0.00    +0.018 C 
ATOM     13  C   UNL     1      -4.146   4.326  24.633  0.00  0.00    +0.113 C 
ATOM     14  C   UNL     1      -3.894   2.418  22.962  0.00  0.00    +0.130 C 
ATOM     15  C   UNL     1      -3.874   2.755  26.526  0.00  0.00    +0.117 C 
ATOM     16  C   UNL     1      -3.506   0.888  24.903  0.00  0.00    +0.027 A 
ATOM     17  C   UNL     1      -2.894  -0.182  25.446  0.00  0.00    +0.024 A 
ATOM     18  C   UNL     1      -2.148   0.699  22.864  0.00  0.00    +0.274 A 
ATOM     19  C   UNL     1      -1.929   4.196  25.716  0.00  0.00    +0.247 C 
ATOM     20  C   UNL     1      -1.493  -0.458  23.525  0.00  0.00    +0.112 A 
ATOM     21  C   UNL     1      -1.854  -0.877  24.738  0.00  0.00    +0.031 A 
ENDROOT
BRANCH  19  22
ATOM      2  F   UNL     1       1.396   1.851  29.552  0.00  0.00    -0.205 F 
ATOM     22  C   UNL     1      -1.056   3.580  26.723  0.00  0.00    +0.037 A 
ATOM     23  C   UNL     1       0.128   2.964  26.329  0.00  0.00    +0.016 A 
ATOM     24  C   UNL     1      -1.418   3.616  28.067  0.00  0.00    +0.016 A 
ATOM     26  C   UNL     1       0.957   2.379  27.285  0.00  0.00    +0.039 A 
ATOM     27  C   UNL     1      -0.588   3.031  29.024  0.00  0.00    +0.039 A 
ATOM     28  C   UNL     1       0.600   2.413  28.634  0.00  0.00    +0.123 A 
ENDBRANCH  19  22
BRANCH  20   9
ATOM      9  N   UNL     1      -0.465  -1.158  22.871  0.00  0.00    -0.215 N 
ATOM     35  H   UNL     1      -0.792  -1.611  22.007  0.00  0.00    +0.173 HD
BRANCH   9   1
ATOM      1  S   UNL     1       0.998  -0.303  22.683  0.00  0.00    +0.047 S 
ATOM      5  O   UNL     1       1.387  -0.299  21.286  0.00  0.00    -0.155 OA
ATOM      6  O   UNL     1       0.938   0.926  23.450  0.00  0.00    -0.155 OA
BRANCH   1  25
ATOM     25  C   UNL     1       2.099  -1.409  23.531  0.00  0.00    +0.223 C 
BRANCH  25  29
ATOM     29  C   UNL     1       3.463  -0.788  23.526  0.00  0.00    -0.025 A 
ATOM     30  C   UNL     1       4.548  -1.499  24.030  0.00  0.00    +0.005 A 
ATOM     31  C   UNL     1       3.636   0.496  23.016  0.00  0.00    +0.005 A 
ATOM     32  C   UNL     1       5.818  -0.921  24.024  0.00  0.00    +0.000 A 
ATOM     33  C   UNL     1       4.906   1.074  23.011  0.00  0.00    +0.000 A 
ATOM     34  C   UNL     1       5.997   0.365  23.514  0.00  0.00    +0.000 A 
ENDBRANCH  25  29
ENDBRANCH   1  25
ENDBRANCH   9   1
ENDBRANCH  20   9
TORSDOF 5
ENDMDL
