MODEL 1
REMARK VINA RESULT:       0.0      0.000      0.000
REMARK  Name = 45361549
REMARK  8 active torsions:
REMARK  status: ('A' for Active; 'I' for Inactive)
REMARK    1  A    between atoms: O_1  and  C_11
REMARK    2  A    between atoms: N_4  and  C_15
REMARK    3  A    between atoms: C_8  and  C_18
REMARK    4  A    between atoms: C_10  and  C_20
REMARK    5  A    between atoms: C_13  and  C_19
REMARK    6  A    between atoms: C_19  and  C_21
REMARK    7  A    between atoms: C_19  and  C_22
REMARK    8  A    between atoms: C_23  and  C_28
REMARK                            x       y       z     vdW  Elec       q    Type
REMARK                         _______ _______ _______ _____ _____    ______ ____
ROOT
ATOM      8  C   UNL     1      -2.862  -1.088  24.857  0.00  0.00    -0.027 C 
ATOM      9  C   UNL     1      -2.418   0.104  23.947  0.00  0.00    +0.028 C 
ATOM     10  C   UNL     1      -0.867   0.336  24.047  0.00  0.00    +0.012 C 
ATOM     11  C   UNL     1      -3.299   1.362  24.195  0.00  0.00    +0.122 C 
ATOM     12  C   UNL     1      -4.370  -1.362  24.650  0.00  0.00    +0.007 C 
ATOM     13  C   UNL     1      -4.812   1.058  24.088  0.00  0.00    +0.029 C 
ATOM     14  C   UNL     1      -2.091  -2.360  24.435  0.00  0.00    +0.009 C 
ATOM     15  C   UNL     1      -0.103  -0.971  23.692  0.00  0.00    +0.076 C 
ATOM     16  C   UNL     1      -5.240  -0.144  24.930  0.00  0.00    +0.007 C 
ATOM     17  C   UNL     1      -0.579  -2.187  24.486  0.00  0.00    +0.023 C 
ATOM     18  C   UNL     1      -2.608  -0.814  26.362  0.00  0.00    +0.011 C 
ATOM     20  C   UNL     1      -0.356   1.478  23.153  0.00  0.00    +0.010 C 
ENDROOT
BRANCH  15   4
ATOM      3  O   UNL     1       1.833  -0.240  21.702  0.00  0.00    -0.268 OA
ATOM      4  N   UNL     1       1.325  -0.827  23.886  0.00  0.00    -0.307 N 
ATOM     23  C   UNL     1       2.179  -0.469  22.859  0.00  0.00    +0.264 C 
ATOM     32  H   UNL     1       1.713  -1.054  24.798  0.00  0.00    +0.149 HD
BRANCH  23  28
ATOM      6  N   UNL     1       4.163  -1.486  23.779  0.00  0.00    -0.247 NA
ATOM      7  N   UNL     1       5.662   0.835  23.301  0.00  0.00    -0.259 NA
ATOM     28  C   UNL     1       3.619  -0.390  23.214  0.00  0.00    +0.143 A 
ATOM     29  C   UNL     1       4.356   0.751  22.981  0.00  0.00    +0.143 A 
ATOM     30  C   UNL     1       5.469  -1.402  24.099  0.00  0.00    +0.131 A 
ATOM     31  C   UNL     1       6.206  -0.261  23.865  0.00  0.00    +0.130 A 
ENDBRANCH  23  28
ENDBRANCH  15   4
BRANCH  11   1
ATOM      1  O   UNL     1      -3.009   2.350  23.204  0.00  0.00    -0.391 OA
ATOM     33  H   UNL     1      -2.230   2.851  23.496  0.00  0.00    +0.210 HD
ENDBRANCH  11   1
BRANCH  13  19
ATOM     19  C   UNL     1      -5.664   2.277  24.463  0.00  0.00    +0.078 C 
ATOM     21  C   UNL     1      -5.479   3.404  23.465  0.00  0.00    +0.017 C 
BRANCH  19  22
ATOM      2  O   UNL     1      -5.932   2.414  26.826  0.00  0.00    -0.275 OA
ATOM      5  N   UNL     1      -4.128   3.523  25.903  0.00  0.00    -0.301 N 
ATOM     22  C   UNL     1      -5.263   2.736  25.843  0.00  0.00    +0.219 C 
ATOM     24  C   UNL     1      -3.613   4.052  27.158  0.00  0.00    +0.108 C 
ATOM     25  C   UNL     1      -3.291   3.936  24.779  0.00  0.00    +0.108 C 
ATOM     26  C   UNL     1      -2.222   4.560  26.816  0.00  0.00    +0.020 C 
ATOM     27  C   UNL     1      -2.368   4.996  25.364  0.00  0.00    +0.020 C 
ENDBRANCH  19  22
ENDBRANCH  13  19
TORSDOF 5
ENDMDL
MODEL 2
REMARK VINA RESULT:       3.8      1.435      1.970
REMARK  Name = 45361549
REMARK  8 active torsions:
REMARK  status: ('A' for Active; 'I' for Inactive)
REMARK    1  A    between atoms: O_1  and  C_11
REMARK    2  A    between atoms: N_4  and  C_15
REMARK    3  A    between atoms: C_8  and  C_18
REMARK    4  A    between atoms: C_10  and  C_20
REMARK    5  A    between atoms: C_13  and  C_19
REMARK    6  A    between atoms: C_19  and  C_21
REMARK    7  A    between atoms: C_19  and  C_22
REMARK    8  A    between atoms: C_23  and  C_28
REMARK                            x       y       z     vdW  Elec       q    Type
REMARK                         _______ _______ _______ _____ _____    ______ ____
ROOT
ATOM      8  C   UNL     1      -2.699  -0.791  24.722  0.00  0.00    -0.027 C 
ATOM      9  C   UNL     1      -2.151   0.666  24.562  0.00  0.00    +0.028 C 
ATOM     10  C   UNL     1      -0.591   0.699  24.744  0.00  0.00    +0.012 C 
ATOM     11  C   UNL     1      -2.948   1.668  25.444  0.00  0.00    +0.122 C 
ATOM     12  C   UNL     1      -4.217  -0.807  24.426  0.00  0.00    +0.007 C 
ATOM     13  C   UNL     1      -4.476   1.575  25.218  0.00  0.00    +0.029 C 
ATOM     14  C   UNL     1      -2.008  -1.707  23.686  0.00  0.00    +0.009 C 
ATOM     15  C   UNL     1       0.089  -0.281  23.747  0.00  0.00    +0.076 C 
ATOM     16  C   UNL     1      -5.006   0.144  25.315  0.00  0.00    +0.007 C 
ATOM     17  C   UNL     1      -0.490  -1.695  23.795  0.00  0.00    +0.023 C 
ATOM     18  C   UNL     1      -2.463  -1.362  26.144  0.00  0.00    +0.011 C 
ATOM     20  C   UNL     1       0.020   2.100  24.570  0.00  0.00    +0.010 C 
ENDROOT
BRANCH  15   4
ATOM      3  O   UNL     1       2.146   0.026  21.767  0.00  0.00    -0.268 OA
ATOM      4  N   UNL     1       1.518  -0.363  23.965  0.00  0.00    -0.307 N 
ATOM     23  C   UNL     1       2.434  -0.199  22.940  0.00  0.00    +0.264 C 
ATOM     32  H   UNL     1       1.852  -0.606  24.894  0.00  0.00    +0.149 HD
BRANCH  23  28
ATOM      6  N   UNL     1       4.634   0.758  23.192  0.00  0.00    -0.247 NA
ATOM      7  N   UNL     1       5.663  -1.676  24.131  0.00  0.00    -0.259 NA
ATOM     28  C   UNL     1       3.862  -0.340  23.323  0.00  0.00    +0.143 A 
ATOM     29  C   UNL     1       4.368  -1.536  23.784  0.00  0.00    +0.143 A 
ATOM     30  C   UNL     1       5.928   0.617  23.540  0.00  0.00    +0.131 A 
ATOM     31  C   UNL     1       6.434  -0.579  24.001  0.00  0.00    +0.130 A 
ENDBRANCH  23  28
ENDBRANCH  15   4
BRANCH  11   1
ATOM      1  O   UNL     1      -2.567   3.004  25.111  0.00  0.00    -0.391 OA
ATOM     33  H   UNL     1      -1.645   2.987  24.803  0.00  0.00    +0.210 HD
ENDBRANCH  11   1
BRANCH  13  19
ATOM     19  C   UNL     1      -5.250   2.476  26.189  0.00  0.00    +0.078 C 
ATOM     21  C   UNL     1      -6.662   1.964  26.404  0.00  0.00    +0.017 C 
BRANCH  19  22
ATOM      2  O   UNL     1      -5.749   4.802  26.285  0.00  0.00    -0.275 OA
ATOM      5  N   UNL     1      -4.776   4.012  24.345  0.00  0.00    -0.301 N 
ATOM     22  C   UNL     1      -5.285   3.873  25.623  0.00  0.00    +0.219 C 
ATOM     24  C   UNL     1      -4.743   5.295  23.656  0.00  0.00    +0.108 C 
ATOM     25  C   UNL     1      -4.208   2.956  23.512  0.00  0.00    +0.108 C 
ATOM     26  C   UNL     1      -3.833   5.061  22.461  0.00  0.00    +0.020 C 
ATOM     27  C   UNL     1      -4.069   3.592  22.136  0.00  0.00    +0.020 C 
ENDBRANCH  19  22
ENDBRANCH  13  19
TORSDOF 5
ENDMDL
