MODEL 1
REMARK VINA RESULT:      -0.5      0.000      0.000
REMARK  Name = 25388909
REMARK  8 active torsions:
REMARK  status: ('A' for Active; 'I' for Inactive)
REMARK    1  A    between atoms: O_2  and  C_22
REMARK    2  A    between atoms: O_2  and  C_27
REMARK    3  A    between atoms: N_4  and  C_18
REMARK    4  A    between atoms: N_5  and  C_15
REMARK    5  A    between atoms: C_8  and  C_14
REMARK    6  A    between atoms: C_9  and  C_15
REMARK    7  A    between atoms: C_17  and  C_20
REMARK    8  A    between atoms: C_19  and  C_21
REMARK                            x       y       z     vdW  Elec       q    Type
REMARK                         _______ _______ _______ _____ _____    ______ ____
ROOT
ATOM      3  N   UNL     1      -5.413   2.431  26.415  0.00  0.00    -0.297 NA
ATOM      7  C   UNL     1      -5.055   1.779  23.918  0.00  0.00    +0.002 C 
ATOM      8  C   UNL     1      -4.355   0.755  24.853  0.00  0.00    +0.055 C 
ATOM      9  C   UNL     1      -4.931   3.608  25.647  0.00  0.00    +0.074 C 
ATOM     10  C   UNL     1      -4.516   3.195  24.218  0.00  0.00    +0.024 C 
ATOM     11  C   UNL     1      -6.552   1.775  24.294  0.00  0.00    +0.019 C 
ATOM     12  C   UNL     1      -4.440   1.315  26.301  0.00  0.00    +0.094 C 
ATOM     13  C   UNL     1      -6.694   1.989  25.811  0.00  0.00    +0.085 C 
ENDROOT
BRANCH   8  14
ATOM      4  N   UNL     1      -2.542  -1.001  24.591  0.00  0.00    -0.270 N 
ATOM      6  N   UNL     1      -1.263  -1.198  24.226  0.00  0.00    -0.171 NA
ATOM     14  C   UNL     1      -2.949   0.297  24.493  0.00  0.00    +0.044 A 
ATOM     16  C   UNL     1      -1.861   0.998  24.032  0.00  0.00    +0.053 A 
ATOM     17  C   UNL     1      -0.853   0.026  23.886  0.00  0.00    +0.096 A 
ATOM     18  C   UNL     1      -3.331  -2.127  25.035  0.00  0.00    +0.172 C 
BRANCH  17  20
ATOM     20  C   UNL     1       0.495   0.245  23.430  0.00  0.00    +0.044 A 
ATOM     22  C   UNL     1       1.205   1.383  23.815  0.00  0.00    +0.129 A 
ATOM     23  C   UNL     1       1.091  -0.698  22.593  0.00  0.00    +0.014 A 
ATOM     24  C   UNL     1       2.509   1.577  23.363  0.00  0.00    +0.046 A 
ATOM     25  C   UNL     1       2.395  -0.503  22.140  0.00  0.00    +0.001 A 
ATOM     26  C   UNL     1       3.105   0.634  22.524  0.00  0.00    +0.004 A 
BRANCH  22   2
ATOM      2  O   UNL     1       0.648   2.321  24.633  0.00  0.00    -0.494 OA
ATOM     27  C   UNL     1       0.497   1.973  26.007  0.00  0.00    +0.277 C 
ENDBRANCH  22   2
ENDBRANCH  17  20
ENDBRANCH   8  14
BRANCH   9  15
ATOM     15  C   UNL     1      -3.810   4.356  26.371  0.00  0.00    +0.123 C 
BRANCH  15   5
ATOM      1  O   UNL     1      -2.099   6.404  25.227  0.00  0.00    -0.276 OA
ATOM      5  N   UNL     1      -2.558   4.170  25.704  0.00  0.00    -0.314 N 
ATOM     19  C   UNL     1      -1.798   5.215  25.182  0.00  0.00    +0.210 C 
ATOM     21  C   UNL     1      -0.514   4.742  24.555  0.00  0.00    +0.109 C 
ATOM     28  H   UNL     1      -2.209   3.220  25.613  0.00  0.00    +0.149 HD
ENDBRANCH  15   5
ENDBRANCH   9  15
TORSDOF 5
ENDMDL
MODEL 2
REMARK VINA RESULT:      -0.5      2.099      4.335
REMARK  Name = 25388909
REMARK  8 active torsions:
REMARK  status: ('A' for Active; 'I' for Inactive)
REMARK    1  A    between atoms: O_2  and  C_22
REMARK    2  A    between atoms: O_2  and  C_27
REMARK    3  A    between atoms: N_4  and  C_18
REMARK    4  A    between atoms: N_5  and  C_15
REMARK    5  A    between atoms: C_8  and  C_14
REMARK    6  A    between atoms: C_9  and  C_15
REMARK    7  A    between atoms: C_17  and  C_20
REMARK    8  A    between atoms: C_19  and  C_21
REMARK                            x       y       z     vdW  Elec       q    Type
REMARK                         _______ _______ _______ _____ _____    ______ ____
ROOT
ATOM      3  N   UNL     1      -5.407   2.545  24.184  0.00  0.00    -0.297 NA
ATOM      7  C   UNL     1      -3.697   3.055  26.081  0.00  0.00    +0.002 C 
ATOM      8  C   UNL     1      -3.113   3.460  24.700  0.00  0.00    +0.055 C 
ATOM      9  C   UNL     1      -5.241   1.350  25.053  0.00  0.00    +0.074 C 
ATOM     10  C   UNL     1      -4.085   1.561  26.053  0.00  0.00    +0.024 C 
ATOM     11  C   UNL     1      -5.003   3.858  26.265  0.00  0.00    +0.019 C 
ATOM     12  C   UNL     1      -4.096   2.944  23.611  0.00  0.00    +0.094 C 
ATOM     13  C   UNL     1      -5.899   3.658  25.031  0.00  0.00    +0.085 C 
ENDROOT
BRANCH   8  14
ATOM      4  N   UNL     1      -0.636   3.975  24.501  0.00  0.00    -0.270 N 
ATOM      6  N   UNL     1       0.562   3.453  24.186  0.00  0.00    -0.171 NA
ATOM     14  C   UNL     1      -1.669   3.090  24.395  0.00  0.00    +0.044 A 
ATOM     16  C   UNL     1      -1.107   1.906  23.980  0.00  0.00    +0.053 A 
ATOM     17  C   UNL     1       0.268   2.189  23.869  0.00  0.00    +0.096 A 
ATOM     18  C   UNL     1      -0.718   5.361  24.903  0.00  0.00    +0.172 C 
BRANCH  17  20
ATOM     20  C   UNL     1       1.305   1.276  23.463  0.00  0.00    +0.044 A 
ATOM     22  C   UNL     1       1.059  -0.094  23.382  0.00  0.00    +0.129 A 
ATOM     23  C   UNL     1       2.567   1.779  23.149  0.00  0.00    +0.014 A 
ATOM     24  C   UNL     1       2.077  -0.962  22.987  0.00  0.00    +0.046 A 
ATOM     25  C   UNL     1       3.584   0.911  22.754  0.00  0.00    +0.001 A 
ATOM     26  C   UNL     1       3.340  -0.460  22.673  0.00  0.00    +0.004 A 
BRANCH  22   2
ATOM      2  O   UNL     1      -0.165  -0.614  23.683  0.00  0.00    -0.494 OA
ATOM     27  C   UNL     1      -0.264  -1.384  24.879  0.00  0.00    +0.277 C 
ENDBRANCH  22   2
ENDBRANCH  17  20
ENDBRANCH   8  14
BRANCH   9  15
ATOM     15  C   UNL     1      -5.068   0.062  24.245  0.00  0.00    +0.123 C 
BRANCH  15   5
ATOM      1  O   UNL     1      -4.345  -2.624  23.413  0.00  0.00    -0.276 OA
ATOM      5  N   UNL     1      -4.237  -0.870  24.943  0.00  0.00    -0.314 N 
ATOM     19  C   UNL     1      -3.940  -2.146  24.469  0.00  0.00    +0.210 C 
ATOM     21  C   UNL     1      -3.022  -2.908  25.387  0.00  0.00    +0.109 C 
ATOM     28  H   UNL     1      -3.842  -0.576  25.832  0.00  0.00    +0.149 HD
ENDBRANCH  15   5
ENDBRANCH   9  15
TORSDOF 5
ENDMDL
MODEL 3
REMARK VINA RESULT:       0.7      2.093      5.101
REMARK  Name = 25388909
REMARK  8 active torsions:
REMARK  status: ('A' for Active; 'I' for Inactive)
REMARK    1  A    between atoms: O_2  and  C_22
REMARK    2  A    between atoms: O_2  and  C_27
REMARK    3  A    between atoms: N_4  and  C_18
REMARK    4  A    between atoms: N_5  and  C_15
REMARK    5  A    between atoms: C_8  and  C_14
REMARK    6  A    between atoms: C_9  and  C_15
REMARK    7  A    between atoms: C_17  and  C_20
REMARK    8  A    between atoms: C_19  and  C_21
REMARK                            x       y       z     vdW  Elec       q    Type
REMARK                         _______ _______ _______ _____ _____    ______ ____
ROOT
ATOM      3  N   UNL     1      -1.380   4.982  25.665  0.00  0.00    -0.297 NA
ATOM      7  C   UNL     1      -2.911   4.348  23.656  0.00  0.00    +0.002 C 
ATOM      8  C   UNL     1      -3.464   3.739  24.973  0.00  0.00    +0.055 C 
ATOM      9  C   UNL     1      -0.558   4.436  24.554  0.00  0.00    +0.074 C 
ATOM     10  C   UNL     1      -1.461   3.865  23.439  0.00  0.00    +0.024 C 
ATOM     11  C   UNL     1      -2.852   5.878  23.862  0.00  0.00    +0.019 C 
ATOM     12  C   UNL     1      -2.400   3.986  26.081  0.00  0.00    +0.094 C 
ATOM     13  C   UNL     1      -2.086   6.184  25.161  0.00  0.00    +0.085 C 
ENDROOT
BRANCH   8  14
ATOM      4  N   UNL     1      -5.216   1.932  25.295  0.00  0.00    -0.270 N 
ATOM      6  N   UNL     1      -5.443   0.610  25.208  0.00  0.00    -0.171 NA
ATOM     14  C   UNL     1      -3.948   2.296  24.949  0.00  0.00    +0.044 A 
ATOM     16  C   UNL     1      -3.301   1.132  24.613  0.00  0.00    +0.053 A 
ATOM     17  C   UNL     1      -4.270   0.127  24.791  0.00  0.00    +0.096 A 
ATOM     18  C   UNL     1      -6.282   2.805  25.728  0.00  0.00    +0.172 C 
BRANCH  17  20
ATOM     20  C   UNL     1      -4.097  -1.286  24.572  0.00  0.00    +0.044 A 
ATOM     22  C   UNL     1      -3.285  -2.046  25.414  0.00  0.00    +0.129 A 
ATOM     23  C   UNL     1      -4.753  -1.893  23.502  0.00  0.00    +0.014 A 
ATOM     24  C   UNL     1      -3.130  -3.413  25.186  0.00  0.00    +0.046 A 
ATOM     25  C   UNL     1      -4.597  -3.260  23.273  0.00  0.00    +0.001 A 
ATOM     26  C   UNL     1      -3.786  -4.020  24.115  0.00  0.00    +0.004 A 
BRANCH  22   2
ATOM      2  O   UNL     1      -2.632  -1.480  26.469  0.00  0.00    -0.494 OA
ATOM     27  C   UNL     1      -1.293  -1.046  26.242  0.00  0.00    +0.277 C 
ENDBRANCH  22   2
ENDBRANCH  17  20
ENDBRANCH   8  14
BRANCH   9  15
ATOM     15  C   UNL     1       0.468   3.409  25.037  0.00  0.00    +0.123 C 
BRANCH  15   5
ATOM      1  O   UNL     1       2.158   1.625  23.491  0.00  0.00    -0.276 OA
ATOM      5  N   UNL     1       0.143   2.100  24.561  0.00  0.00    -0.314 N 
ATOM     19  C   UNL     1       1.019   1.308  23.822  0.00  0.00    +0.210 C 
ATOM     21  C   UNL     1       0.434  -0.034  23.471  0.00  0.00    +0.109 C 
ATOM     28  H   UNL     1      -0.778   1.733  24.782  0.00  0.00    +0.149 HD
ENDBRANCH  15   5
ENDBRANCH   9  15
TORSDOF 5
ENDMDL
MODEL 4
REMARK VINA RESULT:       1.0      1.639      5.438
REMARK  Name = 25388909
REMARK  8 active torsions:
REMARK  status: ('A' for Active; 'I' for Inactive)
REMARK    1  A    between atoms: O_2  and  C_22
REMARK    2  A    between atoms: O_2  and  C_27
REMARK    3  A    between atoms: N_4  and  C_18
REMARK    4  A    between atoms: N_5  and  C_15
REMARK    5  A    between atoms: C_8  and  C_14
REMARK    6  A    between atoms: C_9  and  C_15
REMARK    7  A    between atoms: C_17  and  C_20
REMARK    8  A    between atoms: C_19  and  C_21
REMARK                            x       y       z     vdW  Elec       q    Type
REMARK                         _______ _______ _______ _____ _____    ______ ____
ROOT
ATOM      3  N   UNL     1      -2.911  -2.698  23.712  0.00  0.00    -0.297 NA
ATOM      7  C   UNL     1      -3.001  -1.577  26.061  0.00  0.00    +0.002 C 
ATOM      8  C   UNL     1      -3.849  -0.770  25.042  0.00  0.00    +0.055 C 
ATOM      9  C   UNL     1      -1.535  -2.536  24.250  0.00  0.00    +0.074 C 
ATOM     10  C   UNL     1      -1.551  -1.691  25.542  0.00  0.00    +0.024 C 
ATOM     11  C   UNL     1      -3.584  -3.007  26.094  0.00  0.00    +0.019 C 
ATOM     12  C   UNL     1      -3.585  -1.377  23.634  0.00  0.00    +0.094 C 
ATOM     13  C   UNL     1      -3.672  -3.550  24.657  0.00  0.00    +0.085 C 
ENDROOT
BRANCH   8  14
ATOM      4  N   UNL     1      -4.798   1.579  25.198  0.00  0.00    -0.270 N 
ATOM      6  N   UNL     1      -4.479   2.884  25.174  0.00  0.00    -0.171 NA
ATOM     14  C   UNL     1      -3.727   0.747  25.047  0.00  0.00    +0.044 A 
ATOM     16  C   UNL     1      -2.632   1.566  24.915  0.00  0.00    +0.053 A 
ATOM     17  C   UNL     1      -3.156   2.870  25.001  0.00  0.00    +0.096 A 
ATOM     18  C   UNL     1      -6.180   1.192  25.370  0.00  0.00    +0.172 C 
BRANCH  17  20
ATOM     20  C   UNL     1      -2.415   4.103  24.919  0.00  0.00    +0.044 A 
ATOM     22  C   UNL     1      -1.026   4.111  25.039  0.00  0.00    +0.129 A 
ATOM     23  C   UNL     1      -3.106   5.297  24.717  0.00  0.00    +0.014 A 
ATOM     24  C   UNL     1      -0.327   5.315  24.956  0.00  0.00    +0.046 A 
ATOM     25  C   UNL     1      -2.406   6.501  24.635  0.00  0.00    +0.001 A 
ATOM     26  C   UNL     1      -1.017   6.511  24.755  0.00  0.00    +0.004 A 
BRANCH  22   2
ATOM      2  O   UNL     1      -0.324   2.959  25.236  0.00  0.00    -0.494 OA
ATOM     27  C   UNL     1       0.134   2.701  26.562  0.00  0.00    +0.277 C 
ENDBRANCH  22   2
ENDBRANCH  17  20
ENDBRANCH   8  14
BRANCH   9  15
ATOM     15  C   UNL     1      -0.565  -1.969  23.211  0.00  0.00    +0.123 C 
BRANCH  15   5
ATOM      1  O   UNL     1       1.391  -0.321  21.836  0.00  0.00    -0.276 OA
ATOM      5  N   UNL     1       0.069  -0.783  23.699  0.00  0.00    -0.314 N 
ATOM     19  C   UNL     1       1.001  -0.050  22.968  0.00  0.00    +0.210 C 
ATOM     21  C   UNL     1       1.491   1.167  23.707  0.00  0.00    +0.109 C 
ATOM     28  H   UNL     1      -0.183  -0.462  24.629  0.00  0.00    +0.149 HD
ENDBRANCH  15   5
ENDBRANCH   9  15
TORSDOF 5
ENDMDL
MODEL 5
REMARK VINA RESULT:       1.7      1.414      2.116
REMARK  Name = 25388909
REMARK  8 active torsions:
REMARK  status: ('A' for Active; 'I' for Inactive)
REMARK    1  A    between atoms: O_2  and  C_22
REMARK    2  A    between atoms: O_2  and  C_27
REMARK    3  A    between atoms: N_4  and  C_18
REMARK    4  A    between atoms: N_5  and  C_15
REMARK    5  A    between atoms: C_8  and  C_14
REMARK    6  A    between atoms: C_9  and  C_15
REMARK    7  A    between atoms: C_17  and  C_20
REMARK    8  A    between atoms: C_19  and  C_21
REMARK                            x       y       z     vdW  Elec       q    Type
REMARK                         _______ _______ _______ _____ _____    ______ ____
ROOT
ATOM      3  N   UNL     1      -4.689   2.558  25.988  0.00  0.00    -0.297 NA
ATOM      7  C   UNL     1      -4.253   1.795  23.536  0.00  0.00    +0.002 C 
ATOM      8  C   UNL     1      -3.553   0.835  24.537  0.00  0.00    +0.055 C 
ATOM      9  C   UNL     1      -4.216   3.708  25.175  0.00  0.00    +0.074 C 
ATOM     10  C   UNL     1      -3.756   3.236  23.779  0.00  0.00    +0.024 C 
ATOM     11  C   UNL     1      -5.759   1.772  23.876  0.00  0.00    +0.019 C 
ATOM     12  C   UNL     1      -3.687   1.463  25.953  0.00  0.00    +0.094 C 
ATOM     13  C   UNL     1      -5.944   2.055  25.377  0.00  0.00    +0.085 C 
ENDROOT
BRANCH   8  14
ATOM      4  N   UNL     1      -1.652  -0.846  24.538  0.00  0.00    -0.270 N 
ATOM      6  N   UNL     1      -0.368  -1.036  24.188  0.00  0.00    -0.171 NA
ATOM     14  C   UNL     1      -2.128   0.396  24.233  0.00  0.00    +0.044 A 
ATOM     16  C   UNL     1      -1.082   1.065  23.644  0.00  0.00    +0.053 A 
ATOM     17  C   UNL     1      -0.025   0.134  23.644  0.00  0.00    +0.096 A 
ATOM     18  C   UNL     1      -2.376  -1.921  25.175  0.00  0.00    +0.172 C 
BRANCH  17  20
ATOM     20  C   UNL     1       1.306   0.343  23.134  0.00  0.00    +0.044 A 
ATOM     22  C   UNL     1       1.737  -0.301  21.975  0.00  0.00    +0.129 A 
ATOM     23  C   UNL     1       2.166   1.204  23.816  0.00  0.00    +0.014 A 
ATOM     24  C   UNL     1       3.030  -0.085  21.498  0.00  0.00    +0.046 A 
ATOM     25  C   UNL     1       3.458   1.419  23.338  0.00  0.00    +0.001 A 
ATOM     26  C   UNL     1       3.891   0.774  22.180  0.00  0.00    +0.004 A 
BRANCH  22   2
ATOM      2  O   UNL     1       0.918  -1.148  21.289  0.00  0.00    -0.494 OA
ATOM     27  C   UNL     1       0.180  -0.592  20.202  0.00  0.00    +0.277 C 
ENDBRANCH  22   2
ENDBRANCH  17  20
ENDBRANCH   8  14
BRANCH   9  15
ATOM     15  C   UNL     1      -3.131   4.519  25.888  0.00  0.00    +0.123 C 
BRANCH  15   5
ATOM      1  O   UNL     1      -0.488   4.429  24.692  0.00  0.00    -0.276 OA
ATOM      5  N   UNL     1      -2.034   3.681  26.266  0.00  0.00    -0.314 N 
ATOM     19  C   UNL     1      -0.793   3.704  25.634  0.00  0.00    +0.210 C 
ATOM     21  C   UNL     1       0.188   2.740  26.247  0.00  0.00    +0.109 C 
ATOM     28  H   UNL     1      -2.176   3.040  27.041  0.00  0.00    +0.149 HD
ENDBRANCH  15   5
ENDBRANCH   9  15
TORSDOF 5
ENDMDL
MODEL 6
REMARK VINA RESULT:       2.0      2.791      5.399
REMARK  Name = 25388909
REMARK  8 active torsions:
REMARK  status: ('A' for Active; 'I' for Inactive)
REMARK    1  A    between atoms: O_2  and  C_22
REMARK    2  A    between atoms: O_2  and  C_27
REMARK    3  A    between atoms: N_4  and  C_18
REMARK    4  A    between atoms: N_5  and  C_15
REMARK    5  A    between atoms: C_8  and  C_14
REMARK    6  A    between atoms: C_9  and  C_15
REMARK    7  A    between atoms: C_17  and  C_20
REMARK    8  A    between atoms: C_19  and  C_21
REMARK                            x       y       z     vdW  Elec       q    Type
REMARK                         _______ _______ _______ _____ _____    ______ ____
ROOT
ATOM      3  N   UNL     1      -1.084   4.506  26.062  0.00  0.00    -0.297 NA
ATOM      7  C   UNL     1      -1.170   3.326  23.741  0.00  0.00    +0.002 C 
ATOM      8  C   UNL     1      -2.547   3.228  24.452  0.00  0.00    +0.055 C 
ATOM      9  C   UNL     1       0.064   3.571  25.924  0.00  0.00    +0.074 C 
ATOM     10  C   UNL     1      -0.082   2.713  24.649  0.00  0.00    +0.024 C 
ATOM     11  C   UNL     1      -0.848   4.830  23.600  0.00  0.00    +0.019 C 
ATOM     12  C   UNL     1      -2.363   3.769  25.899  0.00  0.00    +0.094 C 
ATOM     13  C   UNL     1      -0.986   5.509  24.974  0.00  0.00    +0.085 C 
ENDROOT
BRANCH   8  14
ATOM      4  N   UNL     1      -4.610   1.767  24.683  0.00  0.00    -0.270 N 
ATOM      6  N   UNL     1      -5.061   0.503  24.609  0.00  0.00    -0.171 NA
ATOM     14  C   UNL     1      -3.276   1.892  24.425  0.00  0.00    +0.044 A 
ATOM     16  C   UNL     1      -2.824   0.621  24.164  0.00  0.00    +0.053 A 
ATOM     17  C   UNL     1      -3.966  -0.192  24.292  0.00  0.00    +0.096 A 
ATOM     18  C   UNL     1      -5.532   2.828  25.016  0.00  0.00    +0.172 C 
BRANCH  17  20
ATOM     20  C   UNL     1      -4.030  -1.620  24.118  0.00  0.00    +0.044 A 
ATOM     22  C   UNL     1      -3.116  -2.460  24.755  0.00  0.00    +0.129 A 
ATOM     23  C   UNL     1      -5.023  -2.161  23.301  0.00  0.00    +0.014 A 
ATOM     24  C   UNL     1      -3.195  -3.840  24.574  0.00  0.00    +0.046 A 
ATOM     25  C   UNL     1      -5.101  -3.541  23.121  0.00  0.00    +0.001 A 
ATOM     26  C   UNL     1      -4.188  -4.381  23.756  0.00  0.00    +0.004 A 
BRANCH  22   2
ATOM      2  O   UNL     1      -2.136  -1.959  25.560  0.00  0.00    -0.494 OA
ATOM     27  C   UNL     1      -0.805  -1.986  25.049  0.00  0.00    +0.277 C 
ENDBRANCH  22   2
ENDBRANCH  17  20
ENDBRANCH   8  14
BRANCH   9  15
ATOM     15  C   UNL     1       0.265   2.708  27.172  0.00  0.00    +0.123 C 
BRANCH  15   5
ATOM      1  O   UNL     1       1.170   2.482  29.921  0.00  0.00    -0.276 OA
ATOM      5  N   UNL     1       1.607   2.816  27.657  0.00  0.00    -0.314 N 
ATOM     19  C   UNL     1       1.953   2.694  29.000  0.00  0.00    +0.210 C 
ATOM     21  C   UNL     1       3.435   2.825  29.232  0.00  0.00    +0.109 C 
ATOM     28  H   UNL     1       2.341   2.989  26.977  0.00  0.00    +0.149 HD
ENDBRANCH  15   5
ENDBRANCH   9  15
TORSDOF 5
ENDMDL
MODEL 7
REMARK VINA RESULT:       2.3      2.285      4.877
REMARK  Name = 25388909
REMARK  8 active torsions:
REMARK  status: ('A' for Active; 'I' for Inactive)
REMARK    1  A    between atoms: O_2  and  C_22
REMARK    2  A    between atoms: O_2  and  C_27
REMARK    3  A    between atoms: N_4  and  C_18
REMARK    4  A    between atoms: N_5  and  C_15
REMARK    5  A    between atoms: C_8  and  C_14
REMARK    6  A    between atoms: C_9  and  C_15
REMARK    7  A    between atoms: C_17  and  C_20
REMARK    8  A    between atoms: C_19  and  C_21
REMARK                            x       y       z     vdW  Elec       q    Type
REMARK                         _______ _______ _______ _____ _____    ______ ____
ROOT
ATOM      3  N   UNL     1      -3.641   5.403  24.150  0.00  0.00    -0.297 NA
ATOM      7  C   UNL     1      -1.630   4.374  25.446  0.00  0.00    +0.002 C 
ATOM      8  C   UNL     1      -1.864   3.612  24.114  0.00  0.00    +0.055 C 
ATOM      9  C   UNL     1      -4.029   5.137  25.560  0.00  0.00    +0.074 C 
ATOM     10  C   UNL     1      -2.924   4.340  26.288  0.00  0.00    +0.024 C 
ATOM     11  C   UNL     1      -1.369   5.850  25.076  0.00  0.00    +0.019 C 
ATOM     12  C   UNL     1      -3.189   4.146  23.500  0.00  0.00    +0.094 C 
ATOM     13  C   UNL     1      -2.501   6.351  24.163  0.00  0.00    +0.085 C 
ENDROOT
BRANCH   8  14
ATOM      4  N   UNL     1      -0.643   1.388  24.070  0.00  0.00    -0.270 N 
ATOM      6  N   UNL     1      -0.811   0.054  24.104  0.00  0.00    -0.171 NA
ATOM     14  C   UNL     1      -1.810   2.091  24.137  0.00  0.00    +0.044 A 
ATOM     16  C   UNL     1      -2.810   1.153  24.219  0.00  0.00    +0.053 A 
ATOM     17  C   UNL     1      -2.136  -0.083  24.194  0.00  0.00    +0.096 A 
ATOM     18  C   UNL     1       0.693   1.929  23.969  0.00  0.00    +0.172 C 
BRANCH  17  20
ATOM     20  C   UNL     1      -2.734  -1.391  24.254  0.00  0.00    +0.044 A 
ATOM     22  C   UNL     1      -2.154  -2.409  25.012  0.00  0.00    +0.129 A 
ATOM     23  C   UNL     1      -3.908  -1.634  23.542  0.00  0.00    +0.014 A 
ATOM     24  C   UNL     1      -2.749  -3.669  25.058  0.00  0.00    +0.046 A 
ATOM     25  C   UNL     1      -4.503  -2.895  23.588  0.00  0.00    +0.001 A 
ATOM     26  C   UNL     1      -3.923  -3.913  24.345  0.00  0.00    +0.004 A 
BRANCH  22   2
ATOM      2  O   UNL     1      -1.007  -2.200  25.719  0.00  0.00    -0.494 OA
ATOM     27  C   UNL     1       0.162  -2.881  25.269  0.00  0.00    +0.277 C 
ENDBRANCH  22   2
ENDBRANCH  17  20
ENDBRANCH   8  14
BRANCH   9  15
ATOM     15  C   UNL     1      -5.392   4.451  25.670  0.00  0.00    +0.123 C 
BRANCH  15   5
ATOM      1  O   UNL     1      -6.626   2.110  24.474  0.00  0.00    -0.276 OA
ATOM      5  N   UNL     1      -5.245   3.087  26.077  0.00  0.00    -0.314 N 
ATOM     19  C   UNL     1      -5.877   2.020  25.443  0.00  0.00    +0.210 C 
ATOM     21  C   UNL     1      -5.530   0.690  26.058  0.00  0.00    +0.109 C 
ATOM     28  H   UNL     1      -4.642   2.894  26.871  0.00  0.00    +0.149 HD
ENDBRANCH  15   5
ENDBRANCH   9  15
TORSDOF 5
ENDMDL
MODEL 8
REMARK VINA RESULT:       3.0      2.232      4.878
REMARK  Name = 25388909
REMARK  8 active torsions:
REMARK  status: ('A' for Active; 'I' for Inactive)
REMARK    1  A    between atoms: O_2  and  C_22
REMARK    2  A    between atoms: O_2  and  C_27
REMARK    3  A    between atoms: N_4  and  C_18
REMARK    4  A    between atoms: N_5  and  C_15
REMARK    5  A    between atoms: C_8  and  C_14
REMARK    6  A    between atoms: C_9  and  C_15
REMARK    7  A    between atoms: C_17  and  C_20
REMARK    8  A    between atoms: C_19  and  C_21
REMARK                            x       y       z     vdW  Elec       q    Type
REMARK                         _______ _______ _______ _____ _____    ______ ____
ROOT
ATOM      3  N   UNL     1      -2.885   4.949  24.749  0.00  0.00    -0.297 NA
ATOM      7  C   UNL     1      -0.591   3.849  25.306  0.00  0.00    +0.002 C 
ATOM      8  C   UNL     1      -1.246   3.150  24.083  0.00  0.00    +0.055 C 
ATOM      9  C   UNL     1      -2.817   4.622  26.197  0.00  0.00    +0.074 C 
ATOM     10  C   UNL     1      -1.557   3.786  26.508  0.00  0.00    +0.024 C 
ATOM     11  C   UNL     1      -0.428   5.339  24.933  0.00  0.00    +0.019 C 
ATOM     12  C   UNL     1      -2.686   3.720  23.940  0.00  0.00    +0.094 C 
ATOM     13  C   UNL     1      -1.779   5.889  24.442  0.00  0.00    +0.085 C 
ENDROOT
BRANCH   8  14
ATOM      4  N   UNL     1      -0.064   0.909  23.937  0.00  0.00    -0.270 N 
ATOM      6  N   UNL     1      -0.255  -0.421  23.898  0.00  0.00    -0.171 NA
ATOM     14  C   UNL     1      -1.219   1.630  24.026  0.00  0.00    +0.044 A 
ATOM     16  C   UNL     1      -2.236   0.707  24.045  0.00  0.00    +0.053 A 
ATOM     17  C   UNL     1      -1.584  -0.538  23.964  0.00  0.00    +0.096 A 
ATOM     18  C   UNL     1       1.283   1.431  23.883  0.00  0.00    +0.172 C 
BRANCH  17  20
ATOM     20  C   UNL     1      -2.205  -1.837  23.946  0.00  0.00    +0.044 A 
ATOM     22  C   UNL     1      -3.480  -2.028  24.480  0.00  0.00    +0.129 A 
ATOM     23  C   UNL     1      -1.516  -2.912  23.385  0.00  0.00    +0.014 A 
ATOM     24  C   UNL     1      -4.064  -3.293  24.452  0.00  0.00    +0.046 A 
ATOM     25  C   UNL     1      -2.101  -4.177  23.358  0.00  0.00    +0.001 A 
ATOM     26  C   UNL     1      -3.375  -4.369  23.892  0.00  0.00    +0.004 A 
BRANCH  22   2
ATOM      2  O   UNL     1      -4.177  -0.995  25.034  0.00  0.00    -0.494 OA
ATOM     27  C   UNL     1      -3.975  -0.752  26.424  0.00  0.00    +0.277 C 
ENDBRANCH  22   2
ENDBRANCH  17  20
ENDBRANCH   8  14
BRANCH   9  15
ATOM     15  C   UNL     1      -4.091   3.941  26.701  0.00  0.00    +0.123 C 
BRANCH  15   5
ATOM      1  O   UNL     1      -6.344   2.125  26.940  0.00  0.00    -0.276 OA
ATOM      5  N   UNL     1      -4.711   3.183  25.658  0.00  0.00    -0.314 N 
ATOM     19  C   UNL     1      -5.794   2.331  25.862  0.00  0.00    +0.210 C 
ATOM     21  C   UNL     1      -6.267   1.677  24.591  0.00  0.00    +0.109 C 
ATOM     28  H   UNL     1      -4.337   3.280  24.719  0.00  0.00    +0.149 HD
ENDBRANCH  15   5
ENDBRANCH   9  15
TORSDOF 5
ENDMDL
MODEL 9
REMARK VINA RESULT:       3.4      2.310      4.230
REMARK  Name = 25388909
REMARK  8 active torsions:
REMARK  status: ('A' for Active; 'I' for Inactive)
REMARK    1  A    between atoms: O_2  and  C_22
REMARK    2  A    between atoms: O_2  and  C_27
REMARK    3  A    between atoms: N_4  and  C_18
REMARK    4  A    between atoms: N_5  and  C_15
REMARK    5  A    between atoms: C_8  and  C_14
REMARK    6  A    between atoms: C_9  and  C_15
REMARK    7  A    between atoms: C_17  and  C_20
REMARK    8  A    between atoms: C_19  and  C_21
REMARK                            x       y       z     vdW  Elec       q    Type
REMARK                         _______ _______ _______ _____ _____    ______ ____
ROOT
ATOM      3  N   UNL     1      -4.001   2.667  23.766  0.00  0.00    -0.297 NA
ATOM      7  C   UNL     1      -1.995   2.794  25.422  0.00  0.00    +0.002 C 
ATOM      8  C   UNL     1      -1.488   2.577  23.970  0.00  0.00    +0.055 C 
ATOM      9  C   UNL     1      -4.233   1.753  24.915  0.00  0.00    +0.074 C 
ATOM     10  C   UNL     1      -2.970   1.657  25.798  0.00  0.00    +0.024 C 
ATOM     11  C   UNL     1      -2.809   4.106  25.419  0.00  0.00    +0.019 C 
ATOM     12  C   UNL     1      -2.734   2.311  23.079  0.00  0.00    +0.094 C 
ATOM     13  C   UNL     1      -3.865   4.044  24.302  0.00  0.00    +0.085 C 
ENDROOT
BRANCH   8  14
ATOM      4  N   UNL     1      -0.628   0.284  23.307  0.00  0.00    -0.270 N 
ATOM      6  N   UNL     1       0.480  -0.464  23.167  0.00  0.00    -0.171 NA
ATOM     14  C   UNL     1      -0.385   1.554  23.740  0.00  0.00    +0.044 A 
ATOM     16  C   UNL     1       0.977   1.643  23.896  0.00  0.00    +0.053 A 
ATOM     17  C   UNL     1       1.457   0.372  23.528  0.00  0.00    +0.096 A 
ATOM     18  C   UNL     1      -1.915  -0.298  23.001  0.00  0.00    +0.172 C 
BRANCH  17  20
ATOM     20  C   UNL     1       2.831  -0.060  23.518  0.00  0.00    +0.044 A 
ATOM     22  C   UNL     1       3.858   0.831  23.209  0.00  0.00    +0.129 A 
ATOM     23  C   UNL     1       3.128  -1.388  23.822  0.00  0.00    +0.014 A 
ATOM     24  C   UNL     1       5.183   0.394  23.205  0.00  0.00    +0.046 A 
ATOM     25  C   UNL     1       4.452  -1.825  23.817  0.00  0.00    +0.001 A 
ATOM     26  C   UNL     1       5.480  -0.935  23.508  0.00  0.00    +0.004 A 
BRANCH  22   2
ATOM      2  O   UNL     1       3.598   2.136  22.909  0.00  0.00    -0.494 OA
ATOM     27  C   UNL     1       4.172   2.649  21.709  0.00  0.00    +0.277 C 
ENDBRANCH  22   2
ENDBRANCH  17  20
ENDBRANCH   8  14
BRANCH   9  15
ATOM     15  C   UNL     1      -4.723   0.373  24.471  0.00  0.00    +0.123 C 
BRANCH  15   5
ATOM      1  O   UNL     1      -4.465  -2.407  23.672  0.00  0.00    -0.276 OA
ATOM      5  N   UNL     1      -4.011  -0.665  25.152  0.00  0.00    -0.314 N 
ATOM     19  C   UNL     1      -3.938  -1.979  24.695  0.00  0.00    +0.210 C 
ATOM     21  C   UNL     1      -3.105  -2.859  25.588  0.00  0.00    +0.109 C 
ATOM     28  H   UNL     1      -3.532  -0.421  26.013  0.00  0.00    +0.149 HD
ENDBRANCH  15   5
ENDBRANCH   9  15
TORSDOF 5
ENDMDL
