MODEL 1
REMARK VINA RESULT:      -2.7      0.000      0.000
REMARK  Name = 45783680
REMARK  8 active torsions:
REMARK  status: ('A' for Active; 'I' for Inactive)
REMARK    1  A    between atoms: O_2  and  C_17
REMARK    2  A    between atoms: O_3  and  C_23
REMARK    3  A    between atoms: O_3  and  C_28
REMARK    4  A    between atoms: N_4  and  C_14
REMARK    5  A    between atoms: N_8  and  C_27
REMARK    6  A    between atoms: C_10  and  C_15
REMARK    7  A    between atoms: C_14  and  C_16
REMARK    8  A    between atoms: C_19  and  C_22
REMARK                            x       y       z     vdW  Elec       q    Type
REMARK                         _______ _______ _______ _____ _____    ______ ____
ROOT
ATOM      4  N   UNL     1      13.471  -9.122  31.542  0.00  0.00    -0.287 NA
ATOM     10  C   UNL     1      14.374  -9.920  30.688  0.00  0.00    +0.146 C 
ATOM     11  C   UNL     1      13.436 -10.780  29.823  0.00  0.00    +0.030 C 
ATOM     12  C   UNL     1      12.031 -10.444  30.304  0.00  0.00    +0.017 C 
ATOM     13  C   UNL     1      12.252  -9.914  31.706  0.00  0.00    +0.085 C 
ENDROOT
BRANCH  10  15
ATOM      1  O   UNL     1      16.635  -9.296  30.000  0.00  0.00    -0.336 OA
ATOM      5  N   UNL     1      15.018  -8.097  29.019  0.00  0.00    -0.190 NA
ATOM      6  N   UNL     1      17.283  -8.390  29.150  0.00  0.00    -0.056 NA
ATOM     15  C   UNL     1      15.305  -9.057  29.861  0.00  0.00    +0.245 A 
ATOM     19  C   UNL     1      16.263  -7.719  28.608  0.00  0.00    +0.204 A 
BRANCH  19  22
ATOM      7  N   UNL     1      17.088  -4.377  27.200  0.00  0.00    -0.237 NA
ATOM     22  C   UNL     1      16.454  -6.667  27.652  0.00  0.00    +0.041 A 
ATOM     24  C   UNL     1      16.206  -6.872  26.300  0.00  0.00    +0.017 A 
ATOM     25  C   UNL     1      16.890  -5.412  28.048  0.00  0.00    +0.124 A 
ATOM     26  C   UNL     1      16.398  -5.833  25.397  0.00  0.00    +0.047 A 
ATOM     27  C   UNL     1      16.837  -4.615  25.893  0.00  0.00    +0.139 A 
BRANCH  27   8
ATOM      8  N   UNL     1      17.030  -3.575  24.997  0.00  0.00    -0.290 N 
ATOM      9  N   UNL     1      17.212  -2.505  23.060  0.00  0.00    -0.244 NA
ATOM     29  C   UNL     1      17.295  -2.273  25.313  0.00  0.00    +0.114 A 
ATOM     30  C   UNL     1      16.989  -3.667  23.633  0.00  0.00    +0.205 A 
ATOM     31  C   UNL     1      17.403  -1.632  24.102  0.00  0.00    +0.130 A 
ENDBRANCH  27   8
ENDBRANCH  19  22
ENDBRANCH  10  15
BRANCH   4  14
ATOM     14  C   UNL     1      14.065  -8.758  32.822  0.00  0.00    +0.124 C 
BRANCH  14  16
ATOM     16  C   UNL     1      14.750  -7.419  32.762  0.00  0.00    +0.008 A 
ATOM     17  C   UNL     1      14.009  -6.245  32.613  0.00  0.00    +0.125 A 
ATOM     18  C   UNL     1      16.139  -7.359  32.857  0.00  0.00    +0.012 A 
ATOM     20  C   UNL     1      14.660  -5.013  32.559  0.00  0.00    +0.091 A 
ATOM     21  C   UNL     1      16.790  -6.125  32.802  0.00  0.00    +0.046 A 
ATOM     23  C   UNL     1      16.050  -4.952  32.654  0.00  0.00    +0.124 A 
BRANCH  17   2
ATOM      2  O   UNL     1      12.651  -6.286  32.519  0.00  0.00    -0.506 OA
ATOM     32  H   UNL     1      12.262  -6.075  33.385  0.00  0.00    +0.292 HD
ENDBRANCH  17   2
BRANCH  23   3
ATOM      3  O   UNL     1      16.685  -3.750  32.601  0.00  0.00    -0.495 OA
ATOM     28  C   UNL     1      16.338  -2.879  31.525  0.00  0.00    +0.277 C 
ENDBRANCH  23   3
ENDBRANCH  14  16
ENDBRANCH   4  14
TORSDOF 7
ENDMDL
MODEL 2
REMARK VINA RESULT:      -1.8      1.563      2.242
REMARK  Name = 45783680
REMARK  8 active torsions:
REMARK  status: ('A' for Active; 'I' for Inactive)
REMARK    1  A    between atoms: O_2  and  C_17
REMARK    2  A    between atoms: O_3  and  C_23
REMARK    3  A    between atoms: O_3  and  C_28
REMARK    4  A    between atoms: N_4  and  C_14
REMARK    5  A    between atoms: N_8  and  C_27
REMARK    6  A    between atoms: C_10  and  C_15
REMARK    7  A    between atoms: C_14  and  C_16
REMARK    8  A    between atoms: C_19  and  C_22
REMARK                            x       y       z     vdW  Elec       q    Type
REMARK                         _______ _______ _______ _____ _____    ______ ____
ROOT
ATOM      4  N   UNL     1      14.262  -9.317  29.630  0.00  0.00    -0.287 NA
ATOM     10  C   UNL     1      14.977 -10.011  28.540  0.00  0.00    +0.146 C 
ATOM     11  C   UNL     1      13.881 -10.777  27.778  0.00  0.00    +0.030 C 
ATOM     12  C   UNL     1      12.597 -10.504  28.548  0.00  0.00    +0.017 C 
ATOM     13  C   UNL     1      13.084 -10.129  29.933  0.00  0.00    +0.085 C 
ENDROOT
BRANCH  10  15
ATOM      1  O   UNL     1      16.871  -9.552  27.064  0.00  0.00    -0.336 OA
ATOM      5  N   UNL     1      15.498  -7.807  27.360  0.00  0.00    -0.190 NA
ATOM      6  N   UNL     1      17.405  -8.503  26.305  0.00  0.00    -0.056 NA
ATOM     15  C   UNL     1      15.750  -9.058  27.652  0.00  0.00    +0.245 A 
ATOM     19  C   UNL     1      16.541  -7.509  26.530  0.00  0.00    +0.204 A 
BRANCH  19  22
ATOM      7  N   UNL     1      16.954  -3.825  26.243  0.00  0.00    -0.237 NA
ATOM     22  C   UNL     1      16.689  -6.210  25.943  0.00  0.00    +0.041 A 
ATOM     24  C   UNL     1      16.710  -6.045  24.562  0.00  0.00    +0.017 A 
ATOM     25  C   UNL     1      16.813  -5.078  26.733  0.00  0.00    +0.124 A 
ATOM     26  C   UNL     1      16.853  -4.772  24.021  0.00  0.00    +0.047 A 
ATOM     27  C   UNL     1      16.971  -3.705  24.897  0.00  0.00    +0.139 A 
BRANCH  27   8
ATOM      8  N   UNL     1      17.113  -2.433  24.362  0.00  0.00    -0.290 N 
ATOM      9  N   UNL     1      17.357  -0.228  24.277  0.00  0.00    -0.244 NA
ATOM     29  C   UNL     1      17.156  -2.113  23.035  0.00  0.00    +0.114 A 
ATOM     30  C   UNL     1      17.238  -1.270  25.070  0.00  0.00    +0.205 A 
ATOM     31  C   UNL     1      17.306  -0.747  23.007  0.00  0.00    +0.130 A 
ENDBRANCH  27   8
ENDBRANCH  19  22
ENDBRANCH  10  15
BRANCH   4  14
ATOM     14  C   UNL     1      15.090  -9.091  30.807  0.00  0.00    +0.124 C 
BRANCH  14  16
ATOM     16  C   UNL     1      15.188  -7.629  31.153  0.00  0.00    +0.008 A 
ATOM     17  C   UNL     1      16.271  -6.865  30.716  0.00  0.00    +0.125 A 
ATOM     18  C   UNL     1      14.182  -7.040  31.917  0.00  0.00    +0.012 A 
ATOM     20  C   UNL     1      16.345  -5.512  31.045  0.00  0.00    +0.091 A 
ATOM     21  C   UNL     1      14.257  -5.686  32.246  0.00  0.00    +0.046 A 
ATOM     23  C   UNL     1      15.340  -4.922  31.809  0.00  0.00    +0.124 A 
BRANCH  17   2
ATOM      2  O   UNL     1      17.262  -7.425  29.968  0.00  0.00    -0.506 OA
ATOM     32  H   UNL     1      18.123  -7.095  30.278  0.00  0.00    +0.292 HD
ENDBRANCH  17   2
BRANCH  23   3
ATOM      3  O   UNL     1      15.412  -3.602  32.130  0.00  0.00    -0.495 OA
ATOM     28  C   UNL     1      16.032  -2.736  31.180  0.00  0.00    +0.277 C 
ENDBRANCH  23   3
ENDBRANCH  14  16
ENDBRANCH   4  14
TORSDOF 7
ENDMDL
MODEL 3
REMARK VINA RESULT:       0.5     18.210     19.521
REMARK  Name = 45783680
REMARK  8 active torsions:
REMARK  status: ('A' for Active; 'I' for Inactive)
REMARK    1  A    between atoms: O_2  and  C_17
REMARK    2  A    between atoms: O_3  and  C_23
REMARK    3  A    between atoms: O_3  and  C_28
REMARK    4  A    between atoms: N_4  and  C_14
REMARK    5  A    between atoms: N_8  and  C_27
REMARK    6  A    between atoms: C_10  and  C_15
REMARK    7  A    between atoms: C_14  and  C_16
REMARK    8  A    between atoms: C_19  and  C_22
REMARK                            x       y       z     vdW  Elec       q    Type
REMARK                         _______ _______ _______ _____ _____    ______ ____
ROOT
ATOM      4  N   UNL     1      -4.897   1.627  25.491  0.00  0.00    -0.287 NA
ATOM     10  C   UNL     1      -4.793   2.275  24.167  0.00  0.00    +0.146 C 
ATOM     11  C   UNL     1      -5.138   3.752  24.426  0.00  0.00    +0.030 C 
ATOM     12  C   UNL     1      -5.482   3.827  25.907  0.00  0.00    +0.017 C 
ATOM     13  C   UNL     1      -5.872   2.404  26.255  0.00  0.00    +0.085 C 
ENDROOT
BRANCH  10  15
ATOM      1  O   UNL     1      -3.276   2.570  22.274  0.00  0.00    -0.336 OA
ATOM      5  N   UNL     1      -2.350   1.540  24.034  0.00  0.00    -0.190 NA
ATOM      6  N   UNL     1      -1.952   2.292  21.910  0.00  0.00    -0.056 NA
ATOM     15  C   UNL     1      -3.427   2.095  23.537  0.00  0.00    +0.245 A 
ATOM     19  C   UNL     1      -1.472   1.685  23.000  0.00  0.00    +0.204 A 
BRANCH  19  22
ATOM      7  N   UNL     1       2.150   1.577  23.834  0.00  0.00    -0.237 NA
ATOM     22  C   UNL     1      -0.120   1.213  23.087  0.00  0.00    +0.041 A 
ATOM     24  C   UNL     1       0.249  -0.010  22.539  0.00  0.00    +0.017 A 
ATOM     25  C   UNL     1       0.859   1.963  23.719  0.00  0.00    +0.124 A 
ATOM     26  C   UNL     1       1.567  -0.441  22.638  0.00  0.00    +0.047 A 
ATOM     27  C   UNL     1       2.471   0.382  23.290  0.00  0.00    +0.139 A 
BRANCH  27   8
ATOM      8  N   UNL     1       3.787  -0.043  23.391  0.00  0.00    -0.290 N 
ATOM      9  N   UNL     1       5.518  -1.373  23.795  0.00  0.00    -0.244 NA
ATOM     29  C   UNL     1       4.900   0.691  23.092  0.00  0.00    +0.114 A 
ATOM     30  C   UNL     1       4.207  -1.275  23.809  0.00  0.00    +0.205 A 
ATOM     31  C   UNL     1       5.956  -0.151  23.350  0.00  0.00    +0.130 A 
ENDBRANCH  27   8
ENDBRANCH  19  22
ENDBRANCH  10  15
BRANCH   4  14
ATOM     14  C   UNL     1      -5.258   0.218  25.413  0.00  0.00    +0.124 C 
BRANCH  14  16
ATOM     16  C   UNL     1      -4.045  -0.667  25.307  0.00  0.00    +0.008 A 
ATOM     17  C   UNL     1      -4.005  -1.714  24.385  0.00  0.00    +0.125 A 
ATOM     18  C   UNL     1      -2.954  -0.432  26.143  0.00  0.00    +0.012 A 
ATOM     20  C   UNL     1      -2.873  -2.524  24.300  0.00  0.00    +0.091 A 
ATOM     21  C   UNL     1      -1.821  -1.243  26.057  0.00  0.00    +0.046 A 
ATOM     23  C   UNL     1      -1.781  -2.289  25.135  0.00  0.00    +0.124 A 
BRANCH  17   2
ATOM      2  O   UNL     1      -5.062  -1.957  23.561  0.00  0.00    -0.506 OA
ATOM     32  H   UNL     1      -5.059  -2.894  23.303  0.00  0.00    +0.292 HD
ENDBRANCH  17   2
BRANCH  23   3
ATOM      3  O   UNL     1      -0.677  -3.080  25.052  0.00  0.00    -0.495 OA
ATOM     28  C   UNL     1       0.569  -2.495  25.430  0.00  0.00    +0.277 C 
ENDBRANCH  23   3
ENDBRANCH  14  16
ENDBRANCH   4  14
TORSDOF 7
ENDMDL
