MODEL 1
REMARK VINA RESULT:      -0.4      0.000      0.000
REMARK  Name = 40780192
REMARK  8 active torsions:
REMARK  status: ('A' for Active; 'I' for Inactive)
REMARK    1  A    between atoms: N_3  and  C_14
REMARK    2  A    between atoms: N_4  and  C_15
REMARK    3  A    between atoms: N_5  and  C_28
REMARK    4  A    between atoms: C_8  and  C_14
REMARK    5  A    between atoms: C_10  and  C_15
REMARK    6  A    between atoms: C_18  and  C_21
REMARK    7  A    between atoms: C_21  and  C_23
REMARK    8  A    between atoms: C_32  and  C_35
REMARK                            x       y       z     vdW  Elec       q    Type
REMARK                         _______ _______ _______ _____ _____    ______ ____
ROOT
ATOM      2  N   UNL     1      -3.801   4.617  24.040  0.00  0.00    -0.298 NA
ATOM      7  C   UNL     1      -2.076   4.434  25.978  0.00  0.00    -0.003 C 
ATOM      8  C   UNL     1      -1.818   3.351  24.906  0.00  0.00    +0.020 C 
ATOM      9  C   UNL     1      -3.516   4.298  26.504  0.00  0.00    +0.024 C 
ATOM     10  C   UNL     1      -4.508   4.557  25.348  0.00  0.00    +0.074 C 
ATOM     11  C   UNL     1      -2.952   3.414  23.859  0.00  0.00    +0.089 C 
ATOM     12  C   UNL     1      -1.975   5.799  25.269  0.00  0.00    +0.019 C 
ATOM     13  C   UNL     1      -2.918   5.808  24.052  0.00  0.00    +0.085 C 
ENDROOT
BRANCH   8  14
ATOM     14  C   UNL     1      -1.668   1.948  25.489  0.00  0.00    +0.089 C 
BRANCH  14   3
ATOM      3  N   UNL     1      -0.629   1.196  24.785  0.00  0.00    -0.302 NA
ATOM     16  C   UNL     1       0.531   2.054  24.512  0.00  0.00    +0.084 C 
ATOM     17  C   UNL     1      -1.164   0.618  23.544  0.00  0.00    +0.084 C 
ATOM     18  C   UNL     1       1.153   0.610  22.532  0.00  0.00    -0.004 C 
ATOM     19  C   UNL     1       1.649   1.269  23.824  0.00  0.00    +0.019 C 
ATOM     20  C   UNL     1      -0.105  -0.217  22.823  0.00  0.00    +0.019 C 
BRANCH  18  21
ATOM     21  C   UNL     1       2.244  -0.253  21.904  0.00  0.00    +0.038 C 
BRANCH  21  23
ATOM     23  C   UNL     1       3.497  -0.259  22.737  0.00  0.00    -0.047 A 
ATOM     24  C   UNL     1       4.305   0.876  22.791  0.00  0.00    +0.003 A 
ATOM     25  C   UNL     1       3.848  -1.401  23.458  0.00  0.00    +0.003 A 
ATOM     26  C   UNL     1       5.466   0.869  23.564  0.00  0.00    +0.000 A 
ATOM     27  C   UNL     1       5.010  -1.407  24.231  0.00  0.00    +0.000 A 
ATOM     29  C   UNL     1       5.818  -0.272  24.283  0.00  0.00    +0.000 A 
ENDBRANCH  21  23
ENDBRANCH  18  21
ENDBRANCH  14   3
ENDBRANCH   8  14
BRANCH  10  15
ATOM     15  C   UNL     1      -5.655   3.544  25.346  0.00  0.00    +0.124 C 
BRANCH  15   4
ATOM      1  O   UNL     1      -4.517   1.469  23.731  0.00  0.00    -0.253 OA
ATOM      4  N   UNL     1      -5.203   2.262  25.794  0.00  0.00    -0.298 N 
ATOM      5  N   UNL     1      -4.303   0.142  25.655  0.00  0.00    -0.269 N 
ATOM     22  C   UNL     1      -4.652   1.290  24.940  0.00  0.00    +0.304 C 
ATOM     36  H   UNL     1      -5.286   2.043  26.781  0.00  0.00    +0.150 HD
ATOM     37  H   UNL     1      -4.484   0.156  26.656  0.00  0.00    +0.156 HD
BRANCH   5  28
ATOM     28  C   UNL     1      -3.724  -1.049  25.158  0.00  0.00    +0.036 A 
ATOM     30  C   UNL     1      -2.400  -1.361  25.462  0.00  0.00    +0.042 A 
ATOM     31  C   UNL     1      -4.480  -1.912  24.364  0.00  0.00    +0.023 A 
ATOM     32  C   UNL     1      -1.830  -2.537  24.973  0.00  0.00    +0.054 A 
ATOM     33  C   UNL     1      -3.911  -3.087  23.875  0.00  0.00    +0.003 A 
ATOM     34  C   UNL     1      -2.585  -3.400  24.178  0.00  0.00    +0.019 A 
BRANCH  32  35
ATOM      6  N   UNL     1       0.631  -3.115  25.535  0.00  0.00    -0.191 NA
ATOM     35  C   UNL     1      -0.472  -2.856  25.283  0.00  0.00    +0.099 C 
ENDBRANCH  32  35
ENDBRANCH   5  28
ENDBRANCH  15   4
ENDBRANCH  10  15
TORSDOF 8
ENDMDL
