MODEL 1
REMARK VINA RESULT:      -0.4      0.000      0.000
REMARK  Name = 51136912
REMARK  5 active torsions:
REMARK  status: ('A' for Active; 'I' for Inactive)
REMARK    1  A    between atoms: N_2  and  C_13
REMARK    2  A    between atoms: C_9  and  C_14
REMARK    3  A    between atoms: C_13  and  C_15
REMARK    4  A    between atoms: C_16  and  C_18
REMARK    5  A    between atoms: C_25  and  C_26
REMARK                            x       y       z     vdW  Elec       q    Type
REMARK                         _______ _______ _______ _____ _____    ______ ____
ROOT
ATOM      1  O   UNL     1      -3.365   2.633  22.342  0.00  0.00    -0.336 OA
ATOM      3  N   UNL     1      -2.420   1.640  24.113  0.00  0.00    -0.190 NA
ATOM      4  N   UNL     1      -2.061   2.304  21.953  0.00  0.00    -0.056 NA
ATOM     14  C   UNL     1      -3.494   2.208  23.627  0.00  0.00    +0.245 A 
ATOM     16  C   UNL     1      -1.568   1.722  23.050  0.00  0.00    +0.204 A 
ENDROOT
BRANCH  16  18
ATOM      6  N   UNL     1       2.051   1.490  23.878  0.00  0.00    -0.254 NA
ATOM     18  C   UNL     1      -0.228   1.213  23.118  0.00  0.00    +0.041 A 
ATOM     22  C   UNL     1       0.110   0.002  22.523  0.00  0.00    +0.015 A 
ATOM     23  C   UNL     1       0.770   1.913  23.777  0.00  0.00    +0.123 A 
ATOM     24  C   UNL     1       1.416  -0.465  22.604  0.00  0.00    +0.029 A 
ATOM     25  C   UNL     1       2.341   0.309  23.287  0.00  0.00    +0.074 A 
BRANCH  25  26
ATOM      7  N   UNL     1       5.332  -1.817  23.942  0.00  0.00    -0.243 NA
ATOM      8  N   UNL     1       6.068   0.372  23.255  0.00  0.00    -0.243 NA
ATOM     26  C   UNL     1       3.716  -0.114  23.412  0.00  0.00    +0.037 A 
ATOM     27  C   UNL     1       4.059  -1.389  23.811  0.00  0.00    +0.124 A 
ATOM     28  C   UNL     1       4.773   0.733  23.146  0.00  0.00    +0.124 A 
ATOM     29  C   UNL     1       6.273  -0.897  23.653  0.00  0.00    +0.221 A 
ENDBRANCH  25  26
ENDBRANCH  16  18
BRANCH  14   9
ATOM      2  N   UNL     1      -5.011   1.660  25.522  0.00  0.00    -0.286 NA
ATOM      9  C   UNL     1      -4.835   2.450  24.286  0.00  0.00    +0.146 C 
ATOM     10  C   UNL     1      -5.025   3.913  24.727  0.00  0.00    +0.030 C 
ATOM     11  C   UNL     1      -5.363   3.842  26.210  0.00  0.00    +0.017 C 
ATOM     12  C   UNL     1      -5.902   2.436  26.385  0.00  0.00    +0.085 C 
BRANCH   2  13
ATOM     13  C   UNL     1      -5.518   0.316  25.277  0.00  0.00    +0.140 C 
BRANCH  13  15
ATOM      5  N   UNL     1      -3.380  -0.636  25.938  0.00  0.00    -0.259 NA
ATOM     15  C   UNL     1      -4.403  -0.672  25.056  0.00  0.00    +0.055 A 
ATOM     17  C   UNL     1      -4.476  -1.551  23.988  0.00  0.00    +0.024 A 
ATOM     19  C   UNL     1      -3.431  -2.451  23.811  0.00  0.00    +0.003 A 
ATOM     20  C   UNL     1      -2.381  -1.526  25.735  0.00  0.00    +0.111 A 
ATOM     21  C   UNL     1      -2.359  -2.444  24.699  0.00  0.00    +0.020 A 
ENDBRANCH  13  15
ENDBRANCH   2  13
ENDBRANCH  14   9
TORSDOF 5
ENDMDL
MODEL 2
REMARK VINA RESULT:       3.1      1.665      3.175
REMARK  Name = 51136912
REMARK  5 active torsions:
REMARK  status: ('A' for Active; 'I' for Inactive)
REMARK    1  A    between atoms: N_2  and  C_13
REMARK    2  A    between atoms: C_9  and  C_14
REMARK    3  A    between atoms: C_13  and  C_15
REMARK    4  A    between atoms: C_16  and  C_18
REMARK    5  A    between atoms: C_25  and  C_26
REMARK                            x       y       z     vdW  Elec       q    Type
REMARK                         _______ _______ _______ _____ _____    ______ ____
ROOT
ATOM      1  O   UNL     1      -3.504   1.764  23.151  0.00  0.00    -0.336 OA
ATOM      3  N   UNL     1      -2.210   1.070  24.843  0.00  0.00    -0.190 NA
ATOM      4  N   UNL     1      -2.250   1.485  22.593  0.00  0.00    -0.056 NA
ATOM     14  C   UNL     1      -3.394   1.494  24.479  0.00  0.00    +0.245 A 
ATOM     16  C   UNL     1      -1.543   1.081  23.652  0.00  0.00    +0.204 A 
ENDROOT
BRANCH  16  18
ATOM      6  N   UNL     1       2.168   1.237  23.843  0.00  0.00    -0.254 NA
ATOM     18  C   UNL     1      -0.168   0.683  23.556  0.00  0.00    +0.041 A 
ATOM     22  C   UNL     1       0.182  -0.585  23.103  0.00  0.00    +0.015 A 
ATOM     23  C   UNL     1       0.854   1.550  23.910  0.00  0.00    +0.123 A 
ATOM     24  C   UNL     1       1.522  -0.942  23.020  0.00  0.00    +0.029 A 
ATOM     25  C   UNL     1       2.468  -0.004  23.398  0.00  0.00    +0.074 A 
BRANCH  25  26
ATOM      7  N   UNL     1       5.703  -1.825  23.728  0.00  0.00    -0.243 NA
ATOM      8  N   UNL     1       6.128   0.351  22.787  0.00  0.00    -0.243 NA
ATOM     26  C   UNL     1       3.879  -0.304  23.338  0.00  0.00    +0.037 A 
ATOM     27  C   UNL     1       4.391  -1.512  23.767  0.00  0.00    +0.124 A 
ATOM     28  C   UNL     1       4.804   0.599  22.854  0.00  0.00    +0.124 A 
ATOM     29  C   UNL     1       6.504  -0.861  23.234  0.00  0.00    +0.221 A 
ENDBRANCH  25  26
ENDBRANCH  16  18
BRANCH  14   9
ATOM      2  N   UNL     1      -5.096   3.120  25.284  0.00  0.00    -0.286 NA
ATOM      9  C   UNL     1      -4.633   1.718  25.318  0.00  0.00    +0.146 C 
ATOM     10  C   UNL     1      -5.839   0.896  24.826  0.00  0.00    +0.030 C 
ATOM     11  C   UNL     1      -6.949   1.914  24.599  0.00  0.00    +0.017 C 
ATOM     12  C   UNL     1      -6.546   3.081  25.478  0.00  0.00    +0.085 C 
BRANCH   2  13
ATOM     13  C   UNL     1      -4.434   3.966  26.268  0.00  0.00    +0.140 C 
BRANCH  13  15
ATOM      5  N   UNL     1      -2.078   3.445  26.574  0.00  0.00    -0.259 NA
ATOM     15  C   UNL     1      -2.988   4.202  25.922  0.00  0.00    +0.055 A 
ATOM     17  C   UNL     1      -2.663   5.160  24.974  0.00  0.00    +0.024 A 
ATOM     19  C   UNL     1      -1.319   5.354  24.677  0.00  0.00    +0.003 A 
ATOM     20  C   UNL     1      -0.781   3.661  26.259  0.00  0.00    +0.111 A 
ATOM     21  C   UNL     1      -0.353   4.593  25.329  0.00  0.00    +0.020 A 
ENDBRANCH  13  15
ENDBRANCH   2  13
ENDBRANCH  14   9
TORSDOF 5
ENDMDL
