MODEL 1
REMARK VINA RESULT:      -1.8      0.000      0.000
REMARK  Name = 51137800
REMARK  5 active torsions:
REMARK  status: ('A' for Active; 'I' for Inactive)
REMARK    1  A    between atoms: O_3  and  C_21
REMARK    2  A    between atoms: O_3  and  C_26
REMARK    3  A    between atoms: C_7  and  C_14
REMARK    4  A    between atoms: C_8  and  C_18
REMARK    5  A    between atoms: C_19  and  C_20
REMARK                            x       y       z     vdW  Elec       q    Type
REMARK                         _______ _______ _______ _____ _____    ______ ____
ROOT
ATOM      1  O   UNL     1      12.620  -7.451  30.183  0.00  0.00    -0.275 OA
ATOM      4  N   UNL     1      14.564  -8.032  29.077  0.00  0.00    -0.300 N 
ATOM      8  C   UNL     1      15.399  -7.565  26.901  0.00  0.00    +0.095 C 
ATOM      9  C   UNL     1      14.128  -7.584  27.760  0.00  0.00    +0.120 C 
ATOM     12  C   UNL     1      16.234  -8.686  27.542  0.00  0.00    +0.033 C 
ATOM     13  C   UNL     1      15.915  -8.578  29.029  0.00  0.00    +0.108 C 
ATOM     14  C   UNL     1      13.759  -7.921  30.196  0.00  0.00    +0.219 C 
ENDROOT
BRANCH  14   7
ATOM      7  C   UNL     1      14.357  -8.422  31.474  0.00  0.00    +0.075 C 
ATOM     10  C   UNL     1      14.221  -9.943  31.552  0.00  0.00    +0.013 C 
ATOM     11  C   UNL     1      15.822  -7.985  31.551  0.00  0.00    +0.013 C 
ATOM     15  C   UNL     1      14.911 -10.504  32.794  0.00  0.00    +0.001 C 
ATOM     16  C   UNL     1      16.512  -8.551  32.789  0.00  0.00    +0.001 C 
ATOM     17  C   UNL     1      16.372 -10.069  32.868  0.00  0.00    +0.000 C 
ENDBRANCH  14   7
BRANCH   8  18
ATOM      2  O   UNL     1      16.106  -5.552  25.687  0.00  0.00    -0.420 OA
ATOM      5  N   UNL     1      16.900  -5.681  27.774  0.00  0.00    -0.112 NA
ATOM      6  N   UNL     1      17.371  -4.510  27.210  0.00  0.00    -0.107 NA
ATOM     18  C   UNL     1      16.167  -6.257  26.850  0.00  0.00    +0.222 A 
ATOM     19  C   UNL     1      16.882  -4.477  25.992  0.00  0.00    +0.252 A 
BRANCH  19  20
ATOM     20  C   UNL     1      17.037  -3.500  24.954  0.00  0.00    +0.080 A 
ATOM     21  C   UNL     1      17.198  -3.888  23.624  0.00  0.00    +0.132 A 
ATOM     22  C   UNL     1      17.030  -2.145  25.289  0.00  0.00    +0.017 A 
ATOM     23  C   UNL     1      17.349  -2.922  22.629  0.00  0.00    +0.046 A 
ATOM     24  C   UNL     1      17.181  -1.180  24.294  0.00  0.00    +0.001 A 
ATOM     25  C   UNL     1      17.341  -1.569  22.964  0.00  0.00    +0.004 A 
BRANCH  21   3
ATOM      3  O   UNL     1      17.210  -5.204  23.267  0.00  0.00    -0.494 OA
ATOM     26  C   UNL     1      17.401  -5.499  21.886  0.00  0.00    +0.277 C 
ENDBRANCH  21   3
ENDBRANCH  19  20
ENDBRANCH   8  18
TORSDOF 4
ENDMDL
MODEL 2
REMARK VINA RESULT:      -0.2     18.257     19.737
REMARK  Name = 51137800
REMARK  5 active torsions:
REMARK  status: ('A' for Active; 'I' for Inactive)
REMARK    1  A    between atoms: O_3  and  C_21
REMARK    2  A    between atoms: O_3  and  C_26
REMARK    3  A    between atoms: C_7  and  C_14
REMARK    4  A    between atoms: C_8  and  C_18
REMARK    5  A    between atoms: C_19  and  C_20
REMARK                            x       y       z     vdW  Elec       q    Type
REMARK                         _______ _______ _______ _____ _____    ______ ____
ROOT
ATOM      1  O   UNL     1      -3.558   2.299  21.958  0.00  0.00    -0.275 OA
ATOM      4  N   UNL     1      -3.579   0.932  23.821  0.00  0.00    -0.300 N 
ATOM      8  C   UNL     1      -3.053  -1.361  24.163  0.00  0.00    +0.095 C 
ATOM      9  C   UNL     1      -3.404  -0.319  23.093  0.00  0.00    +0.120 C 
ATOM     12  C   UNL     1      -3.792  -0.814  25.395  0.00  0.00    +0.033 C 
ATOM     13  C   UNL     1      -3.669   0.699  25.257  0.00  0.00    +0.108 C 
ATOM     14  C   UNL     1      -3.639   2.156  23.179  0.00  0.00    +0.219 C 
ENDROOT
BRANCH  14   7
ATOM      7  C   UNL     1      -3.816   3.345  24.071  0.00  0.00    +0.075 C 
ATOM     10  C   UNL     1      -4.962   3.095  25.051  0.00  0.00    +0.013 C 
ATOM     11  C   UNL     1      -2.502   3.626  24.804  0.00  0.00    +0.013 C 
ATOM     15  C   UNL     1      -5.108   4.243  26.047  0.00  0.00    +0.001 C 
ATOM     16  C   UNL     1      -2.651   4.771  25.802  0.00  0.00    +0.001 C 
ATOM     17  C   UNL     1      -3.797   4.522  26.778  0.00  0.00    +0.000 C 
ENDBRANCH  14   7
BRANCH   8  18
ATOM      2  O   UNL     1      -0.701  -0.757  23.798  0.00  0.00    -0.420 OA
ATOM      5  N   UNL     1      -0.994  -2.442  25.239  0.00  0.00    -0.112 NA
ATOM      6  N   UNL     1       0.364  -2.208  25.127  0.00  0.00    -0.107 NA
ATOM     18  C   UNL     1      -1.577  -1.573  24.447  0.00  0.00    +0.222 A 
ATOM     19  C   UNL     1       0.487  -1.217  24.276  0.00  0.00    +0.252 A 
BRANCH  19  20
ATOM     20  C   UNL     1       1.660  -0.555  23.782  0.00  0.00    +0.080 A 
ATOM     21  C   UNL     1       1.646   0.810  23.500  0.00  0.00    +0.132 A 
ATOM     22  C   UNL     1       2.824  -1.297  23.581  0.00  0.00    +0.017 A 
ATOM     23  C   UNL     1       2.796   1.435  23.018  0.00  0.00    +0.046 A 
ATOM     24  C   UNL     1       3.975  -0.672  23.099  0.00  0.00    +0.001 A 
ATOM     25  C   UNL     1       3.961   0.694  22.818  0.00  0.00    +0.004 A 
BRANCH  21   3
ATOM      3  O   UNL     1       0.522   1.561  23.685  0.00  0.00    -0.494 OA
ATOM     26  C   UNL     1       0.394   2.238  24.933  0.00  0.00    +0.277 C 
ENDBRANCH  21   3
ENDBRANCH  19  20
ENDBRANCH   8  18
TORSDOF 4
ENDMDL
MODEL 3
REMARK VINA RESULT:       0.4      1.283      2.084
REMARK  Name = 51137800
REMARK  5 active torsions:
REMARK  status: ('A' for Active; 'I' for Inactive)
REMARK    1  A    between atoms: O_3  and  C_21
REMARK    2  A    between atoms: O_3  and  C_26
REMARK    3  A    between atoms: C_7  and  C_14
REMARK    4  A    between atoms: C_8  and  C_18
REMARK    5  A    between atoms: C_19  and  C_20
REMARK                            x       y       z     vdW  Elec       q    Type
REMARK                         _______ _______ _______ _____ _____    ______ ____
ROOT
ATOM      1  O   UNL     1      12.242  -6.383  29.643  0.00  0.00    -0.275 OA
ATOM      4  N   UNL     1      14.206  -7.208  28.748  0.00  0.00    -0.300 N 
ATOM      8  C   UNL     1      15.194  -7.073  26.590  0.00  0.00    +0.095 C 
ATOM      9  C   UNL     1      13.876  -6.911  27.359  0.00  0.00    +0.120 C 
ATOM     12  C   UNL     1      15.918  -8.146  27.420  0.00  0.00    +0.033 C 
ATOM     13  C   UNL     1      15.521  -7.829  28.857  0.00  0.00    +0.108 C 
ATOM     14  C   UNL     1      13.347  -6.909  29.789  0.00  0.00    +0.219 C 
ENDROOT
BRANCH  14   7
ATOM      7  C   UNL     1      13.837  -7.272  31.157  0.00  0.00    +0.075 C 
ATOM     10  C   UNL     1      13.661  -8.772  31.392  0.00  0.00    +0.013 C 
ATOM     11  C   UNL     1      15.302  -6.851  31.295  0.00  0.00    +0.013 C 
ATOM     15  C   UNL     1      14.244  -9.201  32.737  0.00  0.00    +0.001 C 
ATOM     16  C   UNL     1      15.885  -7.283  32.637  0.00  0.00    +0.001 C 
ATOM     17  C   UNL     1      15.705  -8.781  32.873  0.00  0.00    +0.000 C 
ENDBRANCH  14   7
BRANCH   8  18
ATOM      2  O   UNL     1      15.905  -5.136  25.260  0.00  0.00    -0.420 OA
ATOM      5  N   UNL     1      16.915  -5.293  27.249  0.00  0.00    -0.112 NA
ATOM      6  N   UNL     1      17.403  -4.169  26.610  0.00  0.00    -0.107 NA
ATOM     18  C   UNL     1      16.044  -5.826  26.425  0.00  0.00    +0.222 A 
ATOM     19  C   UNL     1      16.785  -4.117  25.453  0.00  0.00    +0.252 A 
BRANCH  19  20
ATOM     20  C   UNL     1      16.894  -3.170  24.382  0.00  0.00    +0.080 A 
ATOM     21  C   UNL     1      16.858  -1.799  24.634  0.00  0.00    +0.132 A 
ATOM     22  C   UNL     1      17.033  -3.635  23.074  0.00  0.00    +0.017 A 
ATOM     23  C   UNL     1      16.963  -0.893  23.578  0.00  0.00    +0.046 A 
ATOM     24  C   UNL     1      17.138  -2.729  22.019  0.00  0.00    +0.001 A 
ATOM     25  C   UNL     1      17.103  -1.358  22.271  0.00  0.00    +0.004 A 
BRANCH  21   3
ATOM      3  O   UNL     1      16.721  -1.314  25.901  0.00  0.00    -0.494 OA
ATOM     26  C   UNL     1      15.421  -0.876  26.291  0.00  0.00    +0.277 C 
ENDBRANCH  21   3
ENDBRANCH  19  20
ENDBRANCH   8  18
TORSDOF 4
ENDMDL
MODEL 4
REMARK VINA RESULT:       0.6     19.443     20.823
REMARK  Name = 51137800
REMARK  5 active torsions:
REMARK  status: ('A' for Active; 'I' for Inactive)
REMARK    1  A    between atoms: O_3  and  C_21
REMARK    2  A    between atoms: O_3  and  C_26
REMARK    3  A    between atoms: C_7  and  C_14
REMARK    4  A    between atoms: C_8  and  C_18
REMARK    5  A    between atoms: C_19  and  C_20
REMARK                            x       y       z     vdW  Elec       q    Type
REMARK                         _______ _______ _______ _____ _____    ______ ____
ROOT
ATOM      1  O   UNL     1       0.100  -0.404  22.857  0.00  0.00    -0.275 OA
ATOM      4  N   UNL     1       0.015   0.772  24.844  0.00  0.00    -0.300 N 
ATOM      8  C   UNL     1       0.472   3.033  25.417  0.00  0.00    +0.095 C 
ATOM      9  C   UNL     1       0.703   1.958  24.347  0.00  0.00    +0.120 C 
ATOM     12  C   UNL     1       0.363   2.191  26.698  0.00  0.00    +0.033 C 
ATOM     13  C   UNL     1      -0.355   0.924  26.246  0.00  0.00    +0.108 C 
ATOM     14  C   UNL     1      -0.235  -0.325  24.040  0.00  0.00    +0.219 C 
ENDROOT
BRANCH  14   7
ATOM      7  C   UNL     1      -0.957  -1.459  24.701  0.00  0.00    +0.075 C 
ATOM     10  C   UNL     1      -2.039  -0.915  25.634  0.00  0.00    +0.013 C 
ATOM     11  C   UNL     1      -1.550  -2.373  23.627  0.00  0.00    +0.013 C 
ATOM     15  C   UNL     1      -2.867  -2.041  26.249  0.00  0.00    +0.001 C 
ATOM     16  C   UNL     1      -2.381  -3.496  24.243  0.00  0.00    +0.001 C 
ATOM     17  C   UNL     1      -3.458  -2.952  25.177  0.00  0.00    +0.000 C 
ENDBRANCH  14   7
BRANCH   8  18
ATOM      2  O   UNL     1      -1.962   3.354  25.411  0.00  0.00    -0.420 OA
ATOM      5  N   UNL     1      -0.800   5.201  24.919  0.00  0.00    -0.112 NA
ATOM      6  N   UNL     1      -2.145   5.519  24.880  0.00  0.00    -0.107 NA
ATOM     18  C   UNL     1      -0.740   3.928  25.232  0.00  0.00    +0.222 A 
ATOM     19  C   UNL     1      -2.784   4.411  25.174  0.00  0.00    +0.252 A 
BRANCH  19  20
ATOM     20  C   UNL     1      -4.190   4.149  25.281  0.00  0.00    +0.080 A 
ATOM     21  C   UNL     1      -4.685   2.849  25.182  0.00  0.00    +0.132 A 
ATOM     22  C   UNL     1      -5.067   5.215  25.484  0.00  0.00    +0.017 A 
ATOM     23  C   UNL     1      -6.056   2.615  25.287  0.00  0.00    +0.046 A 
ATOM     24  C   UNL     1      -6.438   4.981  25.590  0.00  0.00    +0.001 A 
ATOM     25  C   UNL     1      -6.932   3.681  25.491  0.00  0.00    +0.004 A 
BRANCH  21   3
ATOM      3  O   UNL     1      -3.853   1.788  24.982  0.00  0.00    -0.494 OA
ATOM     26  C   UNL     1      -3.700   1.328  23.641  0.00  0.00    +0.277 C 
ENDBRANCH  21   3
ENDBRANCH  19  20
ENDBRANCH   8  18
TORSDOF 4
ENDMDL
MODEL 5
REMARK VINA RESULT:       0.9     18.741     20.256
REMARK  Name = 51137800
REMARK  5 active torsions:
REMARK  status: ('A' for Active; 'I' for Inactive)
REMARK    1  A    between atoms: O_3  and  C_21
REMARK    2  A    between atoms: O_3  and  C_26
REMARK    3  A    between atoms: C_7  and  C_14
REMARK    4  A    between atoms: C_8  and  C_18
REMARK    5  A    between atoms: C_19  and  C_20
REMARK                            x       y       z     vdW  Elec       q    Type
REMARK                         _______ _______ _______ _____ _____    ______ ____
ROOT
ATOM      1  O   UNL     1      -0.249  -1.550  26.308  0.00  0.00    -0.275 OA
ATOM      4  N   UNL     1      -2.011  -1.255  24.842  0.00  0.00    -0.300 N 
ATOM      8  C   UNL     1      -4.319  -0.773  25.147  0.00  0.00    +0.095 C 
ATOM      9  C   UNL     1      -3.059  -1.286  25.855  0.00  0.00    +0.120 C 
ATOM     12  C   UNL     1      -4.075  -1.223  23.697  0.00  0.00    +0.033 C 
ATOM     13  C   UNL     1      -2.571  -1.063  23.509  0.00  0.00    +0.108 C 
ATOM     14  C   UNL     1      -0.672  -1.389  25.162  0.00  0.00    +0.219 C 
ENDROOT
BRANCH  14   7
ATOM      7  C   UNL     1       0.278  -1.328  24.005  0.00  0.00    +0.075 C 
ATOM     10  C   UNL     1       0.107  -0.005  23.260  0.00  0.00    +0.013 C 
ATOM     11  C   UNL     1       1.709  -1.504  24.518  0.00  0.00    +0.013 C 
ATOM     15  C   UNL     1       1.129   0.140  22.134  0.00  0.00    +0.001 C 
ATOM     16  C   UNL     1       2.729  -1.355  23.393  0.00  0.00    +0.001 C 
ATOM     17  C   UNL     1       2.556  -0.035  22.647  0.00  0.00    +0.000 C 
ENDBRANCH  14   7
BRANCH   8  18
ATOM      2  O   UNL     1      -3.538   1.548  24.971  0.00  0.00    -0.420 OA
ATOM      5  N   UNL     1      -5.697   1.354  25.522  0.00  0.00    -0.112 NA
ATOM      6  N   UNL     1      -5.391   2.701  25.458  0.00  0.00    -0.107 NA
ATOM     18  C   UNL     1      -4.586   0.719  25.231  0.00  0.00    +0.222 A 
ATOM     19  C   UNL     1      -4.121   2.766  25.133  0.00  0.00    +0.252 A 
BRANCH  19  20
ATOM     20  C   UNL     1      -3.271   3.902  24.926  0.00  0.00    +0.080 A 
ATOM     21  C   UNL     1      -1.996   3.953  25.490  0.00  0.00    +0.132 A 
ATOM     22  C   UNL     1      -3.735   4.966  24.153  0.00  0.00    +0.017 A 
ATOM     23  C   UNL     1      -1.184   5.068  25.279  0.00  0.00    +0.046 A 
ATOM     24  C   UNL     1      -2.923   6.081  23.942  0.00  0.00    +0.001 A 
ATOM     25  C   UNL     1      -1.648   6.132  24.505  0.00  0.00    +0.004 A 
BRANCH  21   3
ATOM      3  O   UNL     1      -1.517   2.929  26.252  0.00  0.00    -0.494 OA
ATOM     26  C   UNL     1      -0.168   2.527  26.022  0.00  0.00    +0.277 C 
ENDBRANCH  21   3
ENDBRANCH  19  20
ENDBRANCH   8  18
TORSDOF 4
ENDMDL
