MODEL 1
REMARK VINA RESULT:      -0.4      0.000      0.000
REMARK  Name = 45360893
REMARK  9 active torsions:
REMARK  status: ('A' for Active; 'I' for Inactive)
REMARK    1  A    between atoms: N_3  and  C_12
REMARK    2  A    between atoms: N_4  and  C_17
REMARK    3  A    between atoms: C_11  and  C_16
REMARK    4  A    between atoms: C_12  and  C_14
REMARK    5  A    between atoms: C_14  and  C_19
REMARK    6  A    between atoms: C_14  and  C_20
REMARK    7  A    between atoms: C_14  and  C_21
REMARK    8  A    between atoms: C_16  and  C_18
REMARK    9  A    between atoms: C_18  and  C_22
REMARK                            x       y       z     vdW  Elec       q    Type
REMARK                         _______ _______ _______ _____ _____    ______ ____
ROOT
ATOM      1  O   UNL     1       0.671   1.925  26.278  0.00  0.00    -0.274 OA
ATOM      3  N   UNL     1       1.396   1.141  23.797  0.00  0.00    -0.290 NA
ATOM      4  N   UNL     1      -2.033   2.395  23.546  0.00  0.00    -0.296 NA
ATOM      5  N   UNL     1      -0.501   3.760  25.574  0.00  0.00    -0.312 N 
ATOM      7  C   UNL     1      -0.696   2.076  22.997  0.00  0.00    +0.084 C 
ATOM      8  C   UNL     1       0.554   2.349  23.883  0.00  0.00    +0.160 C 
ATOM      9  C   UNL     1      -0.510   0.591  22.629  0.00  0.00    +0.036 C 
ATOM     10  C   UNL     1       0.995   0.424  22.593  0.00  0.00    +0.087 C 
ATOM     11  C   UNL     1      -2.254   3.840  23.826  0.00  0.00    +0.074 C 
ATOM     13  C   UNL     1       0.255   2.624  25.355  0.00  0.00    +0.232 C 
ATOM     15  C   UNL     1      -1.073   4.558  24.508  0.00  0.00    +0.123 C 
ATOM     17  C   UNL     1      -3.096   1.876  22.669  0.00  0.00    +0.105 C 
ATOM     31  H   UNL     1      -0.669   4.043  26.535  0.00  0.00    +0.149 HD
ENDROOT
BRANCH   3  12
ATOM     12  C   UNL     1       2.825   1.430  23.813  0.00  0.00    +0.091 C 
BRANCH  12  14
ATOM     14  C   UNL     1       3.696   0.347  23.125  0.00  0.00    -0.025 C 
ATOM     19  C   UNL     1       3.243  -1.063  23.542  0.00  0.00    +0.012 C 
ATOM     20  C   UNL     1       3.631   0.468  21.593  0.00  0.00    +0.012 C 
ATOM     21  C   UNL     1       5.157   0.548  23.572  0.00  0.00    +0.012 C 
ENDBRANCH  12  14
ENDBRANCH   3  12
BRANCH  11  16
ATOM     16  C   UNL     1      -3.495   4.031  24.725  0.00  0.00    +0.029 C 
BRANCH  16  18
ATOM     18  C   UNL     1      -3.607   2.943  25.775  0.00  0.00    +0.098 C 
BRANCH  18  22
ATOM      2  O   UNL     1      -5.230   1.651  24.627  0.00  0.00    -0.275 OA
ATOM      6  N   UNL     1      -3.279   0.567  25.309  0.00  0.00    -0.271 N 
ATOM     22  C   UNL     1      -4.127   1.658  25.176  0.00  0.00    +0.220 C 
ATOM     23  C   UNL     1      -1.956   0.577  25.968  0.00  0.00    +0.118 C 
ATOM     24  C   UNL     1      -3.531  -0.739  24.839  0.00  0.00    +0.039 A 
ATOM     25  C   UNL     1      -1.376  -0.838  25.873  0.00  0.00    +0.056 C 
ATOM     26  C   UNL     1      -2.454  -1.573  25.149  0.00  0.00    -0.024 A 
ATOM     27  C   UNL     1      -4.636  -1.234  24.163  0.00  0.00    +0.024 A 
ATOM     28  C   UNL     1      -2.456  -2.914  24.793  0.00  0.00    +0.005 A 
ATOM     29  C   UNL     1      -4.646  -2.585  23.801  0.00  0.00    +0.002 A 
ATOM     30  C   UNL     1      -3.564  -3.419  24.113  0.00  0.00    +0.000 A 
ENDBRANCH  18  22
ENDBRANCH  16  18
ENDBRANCH  11  16
TORSDOF 5
ENDMDL
MODEL 2
REMARK VINA RESULT:       0.8      1.606      4.484
REMARK  Name = 45360893
REMARK  9 active torsions:
REMARK  status: ('A' for Active; 'I' for Inactive)
REMARK    1  A    between atoms: N_3  and  C_12
REMARK    2  A    between atoms: N_4  and  C_17
REMARK    3  A    between atoms: C_11  and  C_16
REMARK    4  A    between atoms: C_12  and  C_14
REMARK    5  A    between atoms: C_14  and  C_19
REMARK    6  A    between atoms: C_14  and  C_20
REMARK    7  A    between atoms: C_14  and  C_21
REMARK    8  A    between atoms: C_16  and  C_18
REMARK    9  A    between atoms: C_18  and  C_22
REMARK                            x       y       z     vdW  Elec       q    Type
REMARK                         _______ _______ _______ _____ _____    ______ ____
ROOT
ATOM      1  O   UNL     1      -0.910   1.738  23.150  0.00  0.00    -0.274 OA
ATOM      3  N   UNL     1       0.434  -0.544  23.677  0.00  0.00    -0.290 NA
ATOM      4  N   UNL     1      -2.920  -0.947  25.086  0.00  0.00    -0.296 NA
ATOM      5  N   UNL     1      -2.905   0.702  22.719  0.00  0.00    -0.312 N 
ATOM      7  C   UNL     1      -1.648  -1.458  24.527  0.00  0.00    +0.084 C 
ATOM      8  C   UNL     1      -0.996  -0.688  23.343  0.00  0.00    +0.160 C 
ATOM      9  C   UNL     1      -0.495  -1.512  25.547  0.00  0.00    +0.036 C 
ATOM     10  C   UNL     1       0.743  -1.559  24.677  0.00  0.00    +0.087 C 
ATOM     11  C   UNL     1      -4.064  -0.970  24.132  0.00  0.00    +0.074 C 
ATOM     13  C   UNL     1      -1.572   0.703  23.081  0.00  0.00    +0.232 C 
ATOM     15  C   UNL     1      -3.730  -0.490  22.706  0.00  0.00    +0.123 C 
ATOM     17  C   UNL     1      -3.273  -1.663  26.324  0.00  0.00    +0.105 C 
ATOM     31  H   UNL     1      -3.328   1.587  22.455  0.00  0.00    +0.149 HD
ENDROOT
BRANCH   3  12
ATOM     12  C   UNL     1       1.310  -0.634  22.516  0.00  0.00    +0.091 C 
BRANCH  12  14
ATOM     14  C   UNL     1       2.690   0.046  22.712  0.00  0.00    -0.025 C 
ATOM     19  C   UNL     1       3.627  -0.850  23.540  0.00  0.00    +0.012 C 
ATOM     20  C   UNL     1       3.354   0.362  21.361  0.00  0.00    +0.012 C 
ATOM     21  C   UNL     1       2.473   1.368  23.473  0.00  0.00    +0.012 C 
ENDBRANCH  12  14
ENDBRANCH   3  12
BRANCH  11  16
ATOM     16  C   UNL     1      -5.220  -0.092  24.658  0.00  0.00    +0.029 C 
BRANCH  16  18
ATOM     18  C   UNL     1      -4.780   0.804  25.798  0.00  0.00    +0.098 C 
BRANCH  18  22
ATOM      2  O   UNL     1      -5.355   2.875  24.799  0.00  0.00    -0.275 OA
ATOM      6  N   UNL     1      -3.142   2.590  25.487  0.00  0.00    -0.271 N 
ATOM     22  C   UNL     1      -4.461   2.196  25.308  0.00  0.00    +0.220 C 
ATOM     23  C   UNL     1      -2.073   1.774  26.098  0.00  0.00    +0.118 C 
ATOM     24  C   UNL     1      -2.593   3.835  25.115  0.00  0.00    +0.039 A 
ATOM     25  C   UNL     1      -0.787   2.609  26.093  0.00  0.00    +0.056 C 
ATOM     26  C   UNL     1      -1.238   3.878  25.450  0.00  0.00    -0.024 A 
ATOM     27  C   UNL     1      -3.205   4.922  24.507  0.00  0.00    +0.024 A 
ATOM     28  C   UNL     1      -0.466   5.000  25.187  0.00  0.00    +0.005 A 
ATOM     29  C   UNL     1      -2.433   6.057  24.238  0.00  0.00    +0.002 A 
ATOM     30  C   UNL     1      -1.074   6.096  24.576  0.00  0.00    +0.000 A 
ENDBRANCH  18  22
ENDBRANCH  16  18
ENDBRANCH  11  16
TORSDOF 5
ENDMDL
MODEL 3
REMARK VINA RESULT:       2.3      2.141      4.651
REMARK  Name = 45360893
REMARK  9 active torsions:
REMARK  status: ('A' for Active; 'I' for Inactive)
REMARK    1  A    between atoms: N_3  and  C_12
REMARK    2  A    between atoms: N_4  and  C_17
REMARK    3  A    between atoms: C_11  and  C_16
REMARK    4  A    between atoms: C_12  and  C_14
REMARK    5  A    between atoms: C_14  and  C_19
REMARK    6  A    between atoms: C_14  and  C_20
REMARK    7  A    between atoms: C_14  and  C_21
REMARK    8  A    between atoms: C_16  and  C_18
REMARK    9  A    between atoms: C_18  and  C_22
REMARK                            x       y       z     vdW  Elec       q    Type
REMARK                         _______ _______ _______ _____ _____    ______ ____
ROOT
ATOM      1  O   UNL     1      -2.892   0.642  25.570  0.00  0.00    -0.274 OA
ATOM      3  N   UNL     1      -1.177  -0.766  24.031  0.00  0.00    -0.290 NA
ATOM      4  N   UNL     1       0.142   2.642  24.232  0.00  0.00    -0.296 NA
ATOM      5  N   UNL     1      -1.264   1.858  26.625  0.00  0.00    -0.312 N 
ATOM      7  C   UNL     1       0.273   1.181  24.038  0.00  0.00    +0.084 C 
ATOM      8  C   UNL     1      -0.577   0.234  24.934  0.00  0.00    +0.160 C 
ATOM      9  C   UNL     1      -0.101   0.702  22.622  0.00  0.00    +0.036 C 
ATOM     10  C   UNL     1      -0.378  -0.774  22.811  0.00  0.00    +0.087 C 
ATOM     11  C   UNL     1       0.582   3.128  25.569  0.00  0.00    +0.074 C 
ATOM     13  C   UNL     1      -1.701   0.918  25.711  0.00  0.00    +0.232 C 
ATOM     15  C   UNL     1       0.122   2.261  26.757  0.00  0.00    +0.123 C 
ATOM     17  C   UNL     1       0.845   3.377  23.166  0.00  0.00    +0.105 C 
ATOM     31  H   UNL     1      -1.955   2.292  27.229  0.00  0.00    +0.149 HD
ENDROOT
BRANCH   3  12
ATOM     12  C   UNL     1      -1.282  -2.092  24.627  0.00  0.00    +0.091 C 
BRANCH  12  14
ATOM     14  C   UNL     1      -2.715  -2.684  24.600  0.00  0.00    -0.025 C 
ATOM     19  C   UNL     1      -3.175  -3.067  26.018  0.00  0.00    +0.012 C 
ATOM     20  C   UNL     1      -3.719  -1.689  23.993  0.00  0.00    +0.012 C 
ATOM     21  C   UNL     1      -2.696  -3.954  23.728  0.00  0.00    +0.012 C 
ENDBRANCH  12  14
ENDBRANCH   3  12
BRANCH  11  16
ATOM     16  C   UNL     1       0.069   4.563  25.816  0.00  0.00    +0.029 C 
BRANCH  16  18
ATOM     18  C   UNL     1      -1.104   4.909  24.921  0.00  0.00    +0.098 C 
BRANCH  18  22
ATOM      2  O   UNL     1      -2.719   4.813  26.655  0.00  0.00    -0.275 OA
ATOM      6  N   UNL     1      -3.156   3.600  24.709  0.00  0.00    -0.271 N 
ATOM     22  C   UNL     1      -2.407   4.439  25.523  0.00  0.00    +0.220 C 
ATOM     23  C   UNL     1      -2.780   3.152  23.351  0.00  0.00    +0.118 C 
ATOM     24  C   UNL     1      -4.402   3.026  25.036  0.00  0.00    +0.039 A 
ATOM     25  C   UNL     1      -3.901   2.246  22.831  0.00  0.00    +0.056 C 
ATOM     26  C   UNL     1      -4.859   2.241  23.976  0.00  0.00    -0.024 A 
ATOM     27  C   UNL     1      -5.153   3.152  26.196  0.00  0.00    +0.024 A 
ATOM     28  C   UNL     1      -6.069   1.565  24.048  0.00  0.00    +0.005 A 
ATOM     29  C   UNL     1      -6.374   2.474  26.277  0.00  0.00    +0.002 A 
ATOM     30  C   UNL     1      -6.828   1.687  25.211  0.00  0.00    +0.000 A 
ENDBRANCH  18  22
ENDBRANCH  16  18
ENDBRANCH  11  16
TORSDOF 5
ENDMDL
MODEL 4
REMARK VINA RESULT:       2.4      1.954      6.634
REMARK  Name = 45360893
REMARK  9 active torsions:
REMARK  status: ('A' for Active; 'I' for Inactive)
REMARK    1  A    between atoms: N_3  and  C_12
REMARK    2  A    between atoms: N_4  and  C_17
REMARK    3  A    between atoms: C_11  and  C_16
REMARK    4  A    between atoms: C_12  and  C_14
REMARK    5  A    between atoms: C_14  and  C_19
REMARK    6  A    between atoms: C_14  and  C_20
REMARK    7  A    between atoms: C_14  and  C_21
REMARK    8  A    between atoms: C_16  and  C_18
REMARK    9  A    between atoms: C_18  and  C_22
REMARK                            x       y       z     vdW  Elec       q    Type
REMARK                         _______ _______ _______ _____ _____    ______ ____
ROOT
ATOM      1  O   UNL     1      -2.080   2.029  22.349  0.00  0.00    -0.274 OA
ATOM      3  N   UNL     1      -3.888   3.000  24.104  0.00  0.00    -0.290 NA
ATOM      4  N   UNL     1      -3.083  -0.401  25.192  0.00  0.00    -0.296 NA
ATOM      5  N   UNL     1      -0.850   0.913  23.923  0.00  0.00    -0.312 N 
ATOM      7  C   UNL     1      -3.548   0.986  25.416  0.00  0.00    +0.084 C 
ATOM      8  C   UNL     1      -2.827   2.142  24.663  0.00  0.00    +0.160 C 
ATOM      9  C   UNL     1      -5.021   1.222  25.030  0.00  0.00    +0.036 C 
ATOM     10  C   UNL     1      -5.104   2.724  24.860  0.00  0.00    +0.087 C 
ATOM     11  C   UNL     1      -1.687  -0.662  25.641  0.00  0.00    +0.074 C 
ATOM     13  C   UNL     1      -1.914   1.697  23.522  0.00  0.00    +0.232 C 
ATOM     15  C   UNL     1      -0.672   0.440  25.282  0.00  0.00    +0.123 C 
ATOM     17  C   UNL     1      -4.007  -1.369  25.807  0.00  0.00    +0.105 C 
ATOM     31  H   UNL     1      -0.162   0.650  23.224  0.00  0.00    +0.149 HD
ENDROOT
BRANCH   3  12
ATOM     12  C   UNL     1      -3.548   4.417  24.109  0.00  0.00    +0.091 C 
BRANCH  12  14
ATOM     14  C   UNL     1      -2.502   4.811  25.184  0.00  0.00    -0.025 C 
ATOM     19  C   UNL     1      -3.013   4.472  26.595  0.00  0.00    +0.012 C 
ATOM     20  C   UNL     1      -1.161   4.095  24.946  0.00  0.00    +0.012 C 
ATOM     21  C   UNL     1      -2.268   6.331  25.096  0.00  0.00    +0.012 C 
ENDBRANCH  12  14
ENDBRANCH   3  12
BRANCH  11  16
ATOM     16  C   UNL     1      -1.167  -1.986  25.041  0.00  0.00    +0.029 C 
BRANCH  16  18
ATOM     18  C   UNL     1      -0.310  -1.754  23.812  0.00  0.00    +0.098 C 
BRANCH  18  22
ATOM      2  O   UNL     1       1.551  -2.517  25.066  0.00  0.00    -0.275 OA
ATOM      6  N   UNL     1       1.956  -0.947  23.387  0.00  0.00    -0.271 N 
ATOM     22  C   UNL     1       1.160  -1.782  24.157  0.00  0.00    +0.220 C 
ATOM     23  C   UNL     1       1.484  -0.066  22.298  0.00  0.00    +0.118 C 
ATOM     24  C   UNL     1       3.352  -0.790  23.510  0.00  0.00    +0.039 A 
ATOM     25  C   UNL     1       2.703   0.665  21.726  0.00  0.00    +0.056 C 
ATOM     26  C   UNL     1       3.815   0.131  22.568  0.00  0.00    -0.024 A 
ATOM     27  C   UNL     1       4.234  -1.402  24.390  0.00  0.00    +0.024 A 
ATOM     28  C   UNL     1       5.159   0.463  22.483  0.00  0.00    +0.005 A 
ATOM     29  C   UNL     1       5.591  -1.074  24.310  0.00  0.00    +0.002 A 
ATOM     30  C   UNL     1       6.050  -0.149  23.364  0.00  0.00    +0.000 A 
ENDBRANCH  18  22
ENDBRANCH  16  18
ENDBRANCH  11  16
TORSDOF 5
ENDMDL
MODEL 5
REMARK VINA RESULT:       3.2      1.935      6.984
REMARK  Name = 45360893
REMARK  9 active torsions:
REMARK  status: ('A' for Active; 'I' for Inactive)
REMARK    1  A    between atoms: N_3  and  C_12
REMARK    2  A    between atoms: N_4  and  C_17
REMARK    3  A    between atoms: C_11  and  C_16
REMARK    4  A    between atoms: C_12  and  C_14
REMARK    5  A    between atoms: C_14  and  C_19
REMARK    6  A    between atoms: C_14  and  C_20
REMARK    7  A    between atoms: C_14  and  C_21
REMARK    8  A    between atoms: C_16  and  C_18
REMARK    9  A    between atoms: C_18  and  C_22
REMARK                            x       y       z     vdW  Elec       q    Type
REMARK                         _______ _______ _______ _____ _____    ______ ____
ROOT
ATOM      1  O   UNL     1      -1.985   2.362  24.324  0.00  0.00    -0.274 OA
ATOM      3  N   UNL     1      -4.487   1.600  25.000  0.00  0.00    -0.290 NA
ATOM      4  N   UNL     1      -2.504  -1.459  24.674  0.00  0.00    -0.296 NA
ATOM      5  N   UNL     1      -0.940   0.779  25.604  0.00  0.00    -0.312 N 
ATOM      7  C   UNL     1      -3.636  -0.665  25.202  0.00  0.00    +0.084 C 
ATOM      8  C   UNL     1      -3.382   0.821  25.590  0.00  0.00    +0.160 C 
ATOM      9  C   UNL     1      -4.822  -0.542  24.225  0.00  0.00    +0.036 C 
ATOM     10  C   UNL     1      -5.576   0.667  24.738  0.00  0.00    +0.087 C 
ATOM     11  C   UNL     1      -1.388  -1.657  25.640  0.00  0.00    +0.074 C 
ATOM     13  C   UNL     1      -2.061   1.402  25.090  0.00  0.00    +0.232 C 
ATOM     15  C   UNL     1      -0.995  -0.402  26.444  0.00  0.00    +0.123 C 
ATOM     17  C   UNL     1      -2.972  -2.758  24.161  0.00  0.00    +0.105 C 
ATOM     31  H   UNL     1      -0.031   1.167  25.373  0.00  0.00    +0.149 HD
ENDROOT
BRANCH   3  12
ATOM     12  C   UNL     1      -4.911   2.720  25.830  0.00  0.00    +0.091 C 
BRANCH  12  14
ATOM     14  C   UNL     1      -4.575   4.111  25.233  0.00  0.00    -0.025 C 
ATOM     19  C   UNL     1      -3.350   4.725  25.934  0.00  0.00    +0.012 C 
ATOM     20  C   UNL     1      -4.300   4.019  23.723  0.00  0.00    +0.012 C 
ATOM     21  C   UNL     1      -5.786   5.038  25.456  0.00  0.00    +0.012 C 
ENDBRANCH  12  14
ENDBRANCH   3  12
BRANCH  11  16
ATOM     16  C   UNL     1      -0.124  -2.154  24.908  0.00  0.00    +0.029 C 
BRANCH  16  18
ATOM     18  C   UNL     1      -0.120  -1.753  23.446  0.00  0.00    +0.098 C 
BRANCH  18  22
ATOM      2  O   UNL     1       0.425   0.458  22.786  0.00  0.00    -0.275 OA
ATOM      6  N   UNL     1       2.181  -0.930  23.450  0.00  0.00    -0.271 N 
ATOM     22  C   UNL     1       0.852  -0.625  23.192  0.00  0.00    +0.220 C 
ATOM     23  C   UNL     1       2.690  -2.229  23.937  0.00  0.00    +0.118 C 
ATOM     24  C   UNL     1       3.276  -0.055  23.292  0.00  0.00    +0.039 A 
ATOM     25  C   UNL     1       4.210  -2.109  24.086  0.00  0.00    +0.056 C 
ATOM     26  C   UNL     1       4.460  -0.704  23.650  0.00  0.00    -0.024 A 
ATOM     27  C   UNL     1       3.296   1.263  22.859  0.00  0.00    +0.024 A 
ATOM     28  C   UNL     1       5.685  -0.056  23.583  0.00  0.00    +0.005 A 
ATOM     29  C   UNL     1       4.527   1.923  22.789  0.00  0.00    +0.002 A 
ATOM     30  C   UNL     1       5.713   1.268  23.148  0.00  0.00    +0.000 A 
ENDBRANCH  18  22
ENDBRANCH  16  18
ENDBRANCH  11  16
TORSDOF 5
ENDMDL
MODEL 6
REMARK VINA RESULT:       3.6      2.018      5.607
REMARK  Name = 45360893
REMARK  9 active torsions:
REMARK  status: ('A' for Active; 'I' for Inactive)
REMARK    1  A    between atoms: N_3  and  C_12
REMARK    2  A    between atoms: N_4  and  C_17
REMARK    3  A    between atoms: C_11  and  C_16
REMARK    4  A    between atoms: C_12  and  C_14
REMARK    5  A    between atoms: C_14  and  C_19
REMARK    6  A    between atoms: C_14  and  C_20
REMARK    7  A    between atoms: C_14  and  C_21
REMARK    8  A    between atoms: C_16  and  C_18
REMARK    9  A    between atoms: C_18  and  C_22
REMARK                            x       y       z     vdW  Elec       q    Type
REMARK                         _______ _______ _______ _____ _____    ______ ____
ROOT
ATOM      1  O   UNL     1      -3.418   0.725  24.155  0.00  0.00    -0.274 OA
ATOM      3  N   UNL     1      -4.016   2.886  25.660  0.00  0.00    -0.290 NA
ATOM      4  N   UNL     1      -0.421   3.029  24.992  0.00  0.00    -0.296 NA
ATOM      5  N   UNL     1      -1.900   1.814  22.834  0.00  0.00    -0.312 N 
ATOM      7  C   UNL     1      -1.732   3.633  25.319  0.00  0.00    +0.084 C 
ATOM      8  C   UNL     1      -3.001   3.081  24.608  0.00  0.00    +0.160 C 
ATOM      9  C   UNL     1      -2.121   3.514  26.805  0.00  0.00    +0.036 C 
ATOM     10  C   UNL     1      -3.621   3.714  26.794  0.00  0.00    +0.087 C 
ATOM     11  C   UNL     1       0.005   3.213  23.576  0.00  0.00    +0.074 C 
ATOM     13  C   UNL     1      -2.806   1.755  23.875  0.00  0.00    +0.232 C 
ATOM     15  C   UNL     1      -1.105   2.988  22.531  0.00  0.00    +0.123 C 
ATOM     17  C   UNL     1       0.624   3.520  25.907  0.00  0.00    +0.105 C 
ATOM     31  H   UNL     1      -1.783   0.987  22.257  0.00  0.00    +0.149 HD
ENDROOT
BRANCH   3  12
ATOM     12  C   UNL     1      -5.373   3.177  25.215  0.00  0.00    +0.091 C 
BRANCH  12  14
ATOM     14  C   UNL     1      -6.361   1.994  25.384  0.00  0.00    -0.025 C 
ATOM     19  C   UNL     1      -7.061   2.058  26.753  0.00  0.00    +0.012 C 
ATOM     20  C   UNL     1      -7.423   1.990  24.271  0.00  0.00    +0.012 C 
ATOM     21  C   UNL     1      -5.560   0.681  25.302  0.00  0.00    +0.012 C 
ENDBRANCH  12  14
ENDBRANCH   3  12
BRANCH  11  16
ATOM     16  C   UNL     1       1.166   2.255  23.235  0.00  0.00    +0.029 C 
BRANCH  16  18
ATOM     18  C   UNL     1       1.261   1.105  24.217  0.00  0.00    +0.098 C 
BRANCH  18  22
ATOM      2  O   UNL     1       0.516  -0.539  22.680  0.00  0.00    -0.275 OA
ATOM      6  N   UNL     1      -0.545  -0.450  24.757  0.00  0.00    -0.271 N 
ATOM     22  C   UNL     1       0.375  -0.046  23.800  0.00  0.00    +0.220 C 
ATOM     23  C   UNL     1      -0.712   0.144  26.100  0.00  0.00    +0.118 C 
ATOM     24  C   UNL     1      -1.482  -1.495  24.614  0.00  0.00    +0.039 A 
ATOM     25  C   UNL     1      -1.835  -0.619  26.812  0.00  0.00    +0.056 C 
ATOM     26  C   UNL     1      -2.241  -1.618  25.780  0.00  0.00    -0.024 A 
ATOM     27  C   UNL     1      -1.705  -2.336  23.534  0.00  0.00    +0.024 A 
ATOM     28  C   UNL     1      -3.236  -2.578  25.894  0.00  0.00    +0.005 A 
ATOM     29  C   UNL     1      -2.706  -3.307  23.641  0.00  0.00    +0.002 A 
ATOM     30  C   UNL     1      -3.466  -3.427  24.812  0.00  0.00    +0.000 A 
ENDBRANCH  18  22
ENDBRANCH  16  18
ENDBRANCH  11  16
TORSDOF 5
ENDMDL
