MODEL 1
REMARK VINA RESULT:       5.7      0.000      0.000
REMARK  Name = 11912454
REMARK  9 active torsions:
REMARK  status: ('A' for Active; 'I' for Inactive)
REMARK    1  A    between atoms: O_4  and  C_29
REMARK    2  A    between atoms: O_4  and  C_30
REMARK    3  A    between atoms: N_7  and  C_20
REMARK    4  A    between atoms: C_10  and  C_15
REMARK    5  A    between atoms: C_11  and  C_16
REMARK    6  A    between atoms: C_15  and  C_17
REMARK    7  A    between atoms: C_16  and  C_19
REMARK    8  A    between atoms: C_24  and  C_29
REMARK    9  A    between atoms: C_30  and  C_31
REMARK                            x       y       z     vdW  Elec       q    Type
REMARK                         _______ _______ _______ _____ _____    ______ ____
ROOT
ATOM      2  O   UNL     1      -4.017 -10.781  14.617  0.00  0.00    -0.252 OA
ATOM      6  N   UNL     1      -3.063 -10.492  12.530  0.00  0.00    -0.285 N 
ATOM      7  N   UNL     1      -5.402 -10.346  12.809  0.00  0.00    -0.269 N 
ATOM     10  C   UNL     1      -0.774  -9.537  12.748  0.00  0.00    +0.010 C 
ATOM     11  C   UNL     1      -0.780  -9.252  11.227  0.00  0.00    +0.004 C 
ATOM     12  C   UNL     1      -2.210  -9.059  10.699  0.00  0.00    +0.023 C 
ATOM     13  C   UNL     1      -1.711 -10.717  13.053  0.00  0.00    +0.113 C 
ATOM     14  C   UNL     1      -3.124 -10.223  11.086  0.00  0.00    +0.109 C 
ATOM     18  C   UNL     1      -4.162 -10.548  13.415  0.00  0.00    +0.306 C 
ATOM     32  H   UNL     1      -5.506 -10.596  11.833  0.00  0.00    +0.156 HD
ENDROOT
BRANCH   7  20
ATOM     20  C   UNL     1      -6.588  -9.869  13.421  0.00  0.00    +0.036 A 
ATOM     22  C   UNL     1      -6.764 -10.011  14.794  0.00  0.00    +0.038 A 
ATOM     23  C   UNL     1      -7.571  -9.262  12.644  0.00  0.00    +0.023 A 
ATOM     24  C   UNL     1      -7.931  -9.542  15.396  0.00  0.00    +0.061 A 
ATOM     25  C   UNL     1      -8.738  -8.792  13.245  0.00  0.00    +0.003 A 
ATOM     26  C   UNL     1      -8.918  -8.932  14.622  0.00  0.00    +0.015 A 
BRANCH  24  29
ATOM      5  O   UNL     1      -9.223  -9.700  17.394  0.00  0.00    -0.245 OA
ATOM     29  C   UNL     1      -8.121  -9.688  16.830  0.00  0.00    +0.339 C 
BRANCH  29   4
ATOM      4  O   UNL     1      -6.925  -9.813  17.486  0.00  0.00    -0.461 OA
BRANCH   4  30
ATOM     30  C   UNL     1      -6.983 -10.085  18.890  0.00  0.00    +0.229 C 
ATOM     31  C   UNL     1      -5.706 -10.781  19.309  0.00  0.00    +0.048 C 
ENDBRANCH   4  30
ENDBRANCH  29   4
ENDBRANCH  24  29
ENDBRANCH   7  20
BRANCH  10  15
ATOM     15  C   UNL     1      -1.140  -8.326  13.615  0.00  0.00    +0.002 C 
ATOM     17  C   UNL     1      -0.858  -8.595  15.078  0.00  0.00    +0.004 C 
ENDBRANCH  10  15
BRANCH  11  16
ATOM     16  C   UNL     1       0.105  -8.069  10.835  0.00  0.00    +0.100 C 
BRANCH  16  19
ATOM      1  S   UNL     1       4.009  -5.822  12.837  0.00  0.00    -0.061 S 
ATOM      3  O   UNL     1       2.088  -9.409  10.567  0.00  0.00    -0.275 OA
ATOM      8  N   UNL     1       2.218  -7.338  11.669  0.00  0.00    -0.265 N 
ATOM      9  N   UNL     1       4.497  -8.119  11.755  0.00  0.00    -0.233 NA
ATOM     19  C   UNL     1       1.582  -8.377  10.993  0.00  0.00    +0.219 C 
ATOM     21  C   UNL     1       3.588  -7.244  12.012  0.00  0.00    +0.164 A 
ATOM     27  C   UNL     1       5.622  -6.405  12.883  0.00  0.00    +0.068 A 
ATOM     28  C   UNL     1       5.687  -7.634  12.261  0.00  0.00    +0.120 A 
ATOM     33  H   UNL     1       1.670  -6.533  11.961  0.00  0.00    +0.157 HD
ENDBRANCH  16  19
ENDBRANCH  11  16
TORSDOF 7
ENDMDL
MODEL 2
REMARK VINA RESULT:       6.5     13.779     17.013
REMARK  Name = 11912454
REMARK  9 active torsions:
REMARK  status: ('A' for Active; 'I' for Inactive)
REMARK    1  A    between atoms: O_4  and  C_29
REMARK    2  A    between atoms: O_4  and  C_30
REMARK    3  A    between atoms: N_7  and  C_20
REMARK    4  A    between atoms: C_10  and  C_15
REMARK    5  A    between atoms: C_11  and  C_16
REMARK    6  A    between atoms: C_15  and  C_17
REMARK    7  A    between atoms: C_16  and  C_19
REMARK    8  A    between atoms: C_24  and  C_29
REMARK    9  A    between atoms: C_30  and  C_31
REMARK                            x       y       z     vdW  Elec       q    Type
REMARK                         _______ _______ _______ _____ _____    ______ ____
ROOT
ATOM      2  O   UNL     1      -0.643  -2.405  23.128  0.00  0.00    -0.252 OA
ATOM      6  N   UNL     1      -1.726  -1.316  24.857  0.00  0.00    -0.285 N 
ATOM      7  N   UNL     1       0.550  -0.882  24.406  0.00  0.00    -0.269 N 
ATOM     10  C   UNL     1      -4.145  -1.049  24.332  0.00  0.00    +0.010 C 
ATOM     11  C   UNL     1      -4.262  -0.058  25.514  0.00  0.00    +0.004 C 
ATOM     12  C   UNL     1      -2.922   0.640  25.795  0.00  0.00    +0.023 C 
ATOM     13  C   UNL     1      -2.984  -2.022  24.591  0.00  0.00    +0.113 C 
ATOM     14  C   UNL     1      -1.782  -0.365  25.976  0.00  0.00    +0.109 C 
ATOM     18  C   UNL     1      -0.599  -1.588  24.051  0.00  0.00    +0.306 C 
ATOM     32  H   UNL     1       0.657  -0.595  25.372  0.00  0.00    +0.156 HD
ENDROOT
BRANCH   7  20
ATOM     20  C   UNL     1       1.646  -0.552  23.571  0.00  0.00    +0.036 A 
ATOM     22  C   UNL     1       2.942  -0.599  24.079  0.00  0.00    +0.038 A 
ATOM     23  C   UNL     1       1.421  -0.183  22.248  0.00  0.00    +0.023 A 
ATOM     24  C   UNL     1       4.021  -0.275  23.256  0.00  0.00    +0.061 A 
ATOM     25  C   UNL     1       2.499   0.141  21.425  0.00  0.00    +0.003 A 
ATOM     26  C   UNL     1       3.800   0.096  21.929  0.00  0.00    +0.015 A 
BRANCH  24  29
ATOM      5  O   UNL     1       5.667  -0.619  24.946  0.00  0.00    -0.245 OA
ATOM     29  C   UNL     1       5.376  -0.321  23.781  0.00  0.00    +0.339 C 
BRANCH  29   4
ATOM      4  O   UNL     1       6.297   0.006  22.823  0.00  0.00    -0.461 OA
BRANCH   4  30
ATOM     30  C   UNL     1       7.423  -0.867  22.683  0.00  0.00    +0.229 C 
ATOM     31  C   UNL     1       8.680  -0.115  23.063  0.00  0.00    +0.048 C 
ENDBRANCH   4  30
ENDBRANCH  29   4
ENDBRANCH  24  29
ENDBRANCH   7  20
BRANCH  10  15
ATOM     15  C   UNL     1      -3.984  -0.376  22.963  0.00  0.00    +0.002 C 
ATOM     17  C   UNL     1      -2.858   0.636  22.980  0.00  0.00    +0.004 C 
ENDBRANCH  10  15
BRANCH  11  16
ATOM     16  C   UNL     1      -5.377   0.971  25.327  0.00  0.00    +0.100 C 
BRANCH  16  19
ATOM      1  S   UNL     1      -1.152   3.387  24.541  0.00  0.00    -0.061 S 
ATOM      3  O   UNL     1      -5.599   3.292  25.930  0.00  0.00    -0.275 OA
ATOM      8  N   UNL     1      -3.553   2.492  25.096  0.00  0.00    -0.265 N 
ATOM      9  N   UNL     1      -3.084   4.826  25.482  0.00  0.00    -0.233 NA
ATOM     19  C   UNL     1      -4.883   2.395  25.497  0.00  0.00    +0.219 C 
ATOM     21  C   UNL     1      -2.733   3.646  25.100  0.00  0.00    +0.164 A 
ATOM     27  C   UNL     1      -0.849   5.051  24.825  0.00  0.00    +0.068 A 
ATOM     28  C   UNL     1      -1.987   5.650  25.324  0.00  0.00    +0.120 A 
ATOM     33  H   UNL     1      -3.078   1.658  24.761  0.00  0.00    +0.157 HD
ENDBRANCH  16  19
ENDBRANCH  11  16
TORSDOF 7
ENDMDL
MODEL 3
REMARK VINA RESULT:       7.1     14.201     17.564
REMARK  Name = 11912454
REMARK  9 active torsions:
REMARK  status: ('A' for Active; 'I' for Inactive)
REMARK    1  A    between atoms: O_4  and  C_29
REMARK    2  A    between atoms: O_4  and  C_30
REMARK    3  A    between atoms: N_7  and  C_20
REMARK    4  A    between atoms: C_10  and  C_15
REMARK    5  A    between atoms: C_11  and  C_16
REMARK    6  A    between atoms: C_15  and  C_17
REMARK    7  A    between atoms: C_16  and  C_19
REMARK    8  A    between atoms: C_24  and  C_29
REMARK    9  A    between atoms: C_30  and  C_31
REMARK                            x       y       z     vdW  Elec       q    Type
REMARK                         _______ _______ _______ _____ _____    ______ ____
ROOT
ATOM      2  O   UNL     1       1.010   3.209  25.151  0.00  0.00    -0.252 OA
ATOM      6  N   UNL     1      -1.020   3.548  24.096  0.00  0.00    -0.285 N 
ATOM      7  N   UNL     1       0.600   2.118  23.146  0.00  0.00    -0.269 N 
ATOM     10  C   UNL     1      -2.799   4.022  25.773  0.00  0.00    +0.010 C 
ATOM     11  C   UNL     1      -3.858   3.817  24.663  0.00  0.00    +0.004 C 
ATOM     12  C   UNL     1      -3.344   2.873  23.565  0.00  0.00    +0.023 C 
ATOM     13  C   UNL     1      -1.473   4.474  25.139  0.00  0.00    +0.113 C 
ATOM     14  C   UNL     1      -1.989   3.323  23.014  0.00  0.00    +0.109 C 
ATOM     18  C   UNL     1       0.260   2.962  24.203  0.00  0.00    +0.306 C 
ATOM     32  H   UNL     1       0.180   2.292  22.240  0.00  0.00    +0.156 HD
ENDROOT
BRANCH   7  20
ATOM     20  C   UNL     1       1.529   1.049  23.166  0.00  0.00    +0.036 A 
ATOM     22  C   UNL     1       2.882   1.312  23.361  0.00  0.00    +0.038 A 
ATOM     23  C   UNL     1       1.084  -0.258  22.992  0.00  0.00    +0.023 A 
ATOM     24  C   UNL     1       3.797   0.259  23.382  0.00  0.00    +0.061 A 
ATOM     25  C   UNL     1       1.997  -1.311  23.013  0.00  0.00    +0.003 A 
ATOM     26  C   UNL     1       3.354  -1.053  23.208  0.00  0.00    +0.015 A 
BRANCH  24  29
ATOM      5  O   UNL     1       5.675   1.171  24.534  0.00  0.00    -0.245 OA
ATOM     29  C   UNL     1       5.212   0.526  23.584  0.00  0.00    +0.339 C 
BRANCH  29   4
ATOM      4  O   UNL     1       5.974  -0.025  22.590  0.00  0.00    -0.461 OA
BRANCH   4  30
ATOM     30  C   UNL     1       6.999  -0.940  22.993  0.00  0.00    +0.229 C 
ATOM     31  C   UNL     1       8.323  -0.209  23.040  0.00  0.00    +0.048 C 
ENDBRANCH   4  30
ENDBRANCH  29   4
ENDBRANCH  24  29
ENDBRANCH   7  20
BRANCH  10  15
ATOM     15  C   UNL     1      -2.575   2.793  26.661  0.00  0.00    +0.002 C 
ATOM     17  C   UNL     1      -1.136   2.707  27.124  0.00  0.00    +0.004 C 
ENDBRANCH  10  15
BRANCH  11  16
ATOM     16  C   UNL     1      -5.205   3.336  25.201  0.00  0.00    +0.100 C 
BRANCH  16  19
ATOM      1  S   UNL     1      -2.461  -0.731  24.729  0.00  0.00    -0.061 S 
ATOM      3  O   UNL     1      -6.587   1.433  24.680  0.00  0.00    -0.275 OA
ATOM      8  N   UNL     1      -4.262   1.166  24.892  0.00  0.00    -0.265 N 
ATOM      9  N   UNL     1      -5.000  -1.071  24.380  0.00  0.00    -0.233 NA
ATOM     19  C   UNL     1      -5.461   1.873  24.892  0.00  0.00    +0.219 C 
ATOM     21  C   UNL     1      -4.075  -0.216  24.648  0.00  0.00    +0.164 A 
ATOM     27  C   UNL     1      -3.017  -2.313  24.364  0.00  0.00    +0.068 A 
ATOM     28  C   UNL     1      -4.388  -2.297  24.213  0.00  0.00    +0.120 A 
ATOM     33  H   UNL     1      -3.396   1.666  25.079  0.00  0.00    +0.157 HD
ENDBRANCH  16  19
ENDBRANCH  11  16
TORSDOF 7
ENDMDL
MODEL 4
REMARK VINA RESULT:       8.2      1.676      2.577
REMARK  Name = 11912454
REMARK  9 active torsions:
REMARK  status: ('A' for Active; 'I' for Inactive)
REMARK    1  A    between atoms: O_4  and  C_29
REMARK    2  A    between atoms: O_4  and  C_30
REMARK    3  A    between atoms: N_7  and  C_20
REMARK    4  A    between atoms: C_10  and  C_15
REMARK    5  A    between atoms: C_11  and  C_16
REMARK    6  A    between atoms: C_15  and  C_17
REMARK    7  A    between atoms: C_16  and  C_19
REMARK    8  A    between atoms: C_24  and  C_29
REMARK    9  A    between atoms: C_30  and  C_31
REMARK                            x       y       z     vdW  Elec       q    Type
REMARK                         _______ _______ _______ _____ _____    ______ ____
ROOT
ATOM      2  O   UNL     1      -3.159 -10.781  15.414  0.00  0.00    -0.252 OA
ATOM      6  N   UNL     1      -2.578 -10.659  13.178  0.00  0.00    -0.285 N 
ATOM      7  N   UNL     1      -4.847 -10.641  13.828  0.00  0.00    -0.269 N 
ATOM     10  C   UNL     1      -0.372  -9.531  12.918  0.00  0.00    +0.010 C 
ATOM     11  C   UNL     1      -0.644  -9.416  11.399  0.00  0.00    +0.004 C 
ATOM     12  C   UNL     1      -2.151  -9.379  11.101  0.00  0.00    +0.023 C 
ATOM     13  C   UNL     1      -1.146 -10.732  13.488  0.00  0.00    +0.113 C 
ATOM     14  C   UNL     1      -2.890 -10.553  11.746  0.00  0.00    +0.109 C 
ATOM     18  C   UNL     1      -3.514 -10.692  14.236  0.00  0.00    +0.306 C 
ATOM     32  H   UNL     1      -5.082 -11.003  12.912  0.00  0.00    +0.156 HD
ENDROOT
BRANCH   7  20
ATOM     20  C   UNL     1      -5.956 -10.183  14.581  0.00  0.00    +0.036 A 
ATOM     22  C   UNL     1      -7.208 -10.087  13.980  0.00  0.00    +0.038 A 
ATOM     23  C   UNL     1      -5.788  -9.831  15.917  0.00  0.00    +0.023 A 
ATOM     24  C   UNL     1      -8.300  -9.636  14.721  0.00  0.00    +0.061 A 
ATOM     25  C   UNL     1      -6.879  -9.380  16.659  0.00  0.00    +0.003 A 
ATOM     26  C   UNL     1      -8.136  -9.283  16.061  0.00  0.00    +0.015 A 
BRANCH  24  29
ATOM      5  O   UNL     1      -9.880  -9.940  12.961  0.00  0.00    -0.245 OA
ATOM     29  C   UNL     1      -9.610  -9.533  14.099  0.00  0.00    +0.339 C 
BRANCH  29   4
ATOM      4  O   UNL     1     -10.515  -8.928  14.929  0.00  0.00    -0.461 OA
BRANCH   4  30
ATOM     30  C   UNL     1     -10.471  -7.499  15.002  0.00  0.00    +0.229 C 
ATOM     31  C   UNL     1     -10.719  -7.071  16.432  0.00  0.00    +0.048 C 
ENDBRANCH   4  30
ENDBRANCH  29   4
ENDBRANCH  24  29
ENDBRANCH   7  20
BRANCH  10  15
ATOM     15  C   UNL     1      -0.697  -8.261  13.713  0.00  0.00    +0.002 C 
ATOM     17  C   UNL     1      -0.594  -8.506  15.203  0.00  0.00    +0.004 C 
ENDBRANCH  10  15
BRANCH  11  16
ATOM     16  C   UNL     1       0.064  -8.226  10.753  0.00  0.00    +0.100 C 
BRANCH  16  19
ATOM      1  S   UNL     1       4.929  -7.947  11.497  0.00  0.00    -0.061 S 
ATOM      3  O   UNL     1       0.559  -6.765  12.602  0.00  0.00    -0.275 OA
ATOM      8  N   UNL     1       2.311  -7.816  11.442  0.00  0.00    -0.265 N 
ATOM      9  N   UNL     1       3.485  -6.541  13.118  0.00  0.00    -0.233 NA
ATOM     19  C   UNL     1       0.983  -7.505  11.721  0.00  0.00    +0.219 C 
ATOM     21  C   UNL     1       3.466  -7.349  12.115  0.00  0.00    +0.164 A 
ATOM     27  C   UNL     1       5.736  -7.028  12.700  0.00  0.00    +0.068 A 
ATOM     28  C   UNL     1       4.808  -6.350  13.463  0.00  0.00    +0.120 A 
ATOM     33  H   UNL     1       2.517  -8.455  10.678  0.00  0.00    +0.157 HD
ENDBRANCH  16  19
ENDBRANCH  11  16
TORSDOF 7
ENDMDL
