MODEL 1
REMARK VINA RESULT:       1.7      0.000      0.000
REMARK  Name = 45783397
REMARK  10 active torsions:
REMARK  status: ('A' for Active; 'I' for Inactive)
REMARK    1  A    between atoms: O_2  and  C_30
REMARK    2  A    between atoms: O_2  and  C_32
REMARK    3  A    between atoms: N_4  and  C_14
REMARK    4  A    between atoms: N_7  and  C_23
REMARK    5  A    between atoms: N_8  and  C_27
REMARK    6  A    between atoms: C_10  and  C_15
REMARK    7  A    between atoms: C_14  and  C_16
REMARK    8  A    between atoms: C_19  and  C_22
REMARK    9  A    between atoms: C_27  and  C_30
REMARK   10  A    between atoms: C_29  and  C_31
REMARK                            x       y       z     vdW  Elec       q    Type
REMARK                         _______ _______ _______ _____ _____    ______ ____
ROOT
ATOM      4  N   UNL     1      -4.186   4.028  24.305  0.00  0.00    -0.287 NA
ATOM     10  C   UNL     1      -4.256   3.107  25.456  0.00  0.00    +0.146 C 
ATOM     11  C   UNL     1      -5.489   3.568  26.254  0.00  0.00    +0.030 C 
ATOM     12  C   UNL     1      -6.010   4.789  25.509  0.00  0.00    +0.017 C 
ATOM     13  C   UNL     1      -4.800   5.283  24.742  0.00  0.00    +0.085 C 
ENDROOT
BRANCH  10  15
ATOM      1  O   UNL     1      -5.578   1.186  24.723  0.00  0.00    -0.336 OA
ATOM      5  N   UNL     1      -3.388   0.764  24.928  0.00  0.00    -0.190 NA
ATOM      6  N   UNL     1      -5.407  -0.159  24.372  0.00  0.00    -0.056 NA
ATOM     15  C   UNL     1      -4.341   1.654  25.036  0.00  0.00    +0.245 A 
ATOM     19  C   UNL     1      -4.089  -0.333  24.518  0.00  0.00    +0.205 A 
BRANCH  19  22
ATOM      8  N   UNL     1      -1.262  -0.572  24.411  0.00  0.00    -0.326 N 
ATOM      9  N   UNL     1      -1.429  -2.890  23.965  0.00  0.00    -0.240 NA
ATOM     22  C   UNL     1      -3.443  -1.587  24.260  0.00  0.00    +0.062 A 
ATOM     24  C   UNL     1      -2.065  -1.721  24.205  0.00  0.00    +0.130 A 
ATOM     25  C   UNL     1      -4.218  -2.724  24.056  0.00  0.00    +0.016 A 
ATOM     26  C   UNL     1      -3.598  -3.944  23.806  0.00  0.00    +0.020 A 
ATOM     28  C   UNL     1      -2.214  -3.974  23.771  0.00  0.00    +0.113 A 
ATOM     34  H   UNL     1      -1.690   0.185  24.932  0.00  0.00    +0.148 HD
BRANCH   8  27
ATOM     27  C   UNL     1       0.164  -0.614  24.373  0.00  0.00    +0.131 C 
BRANCH  27  30
ATOM     30  C   UNL     1       0.658  -0.208  22.994  0.00  0.00    +0.178 C 
BRANCH  30   2
ATOM      2  O   UNL     1       1.794   0.636  23.128  0.00  0.00    -0.381 OA
ATOM     32  C   UNL     1       2.892   0.159  22.361  0.00  0.00    +0.194 C 
ENDBRANCH  30   2
ENDBRANCH  27  30
ENDBRANCH   8  27
ENDBRANCH  19  22
ENDBRANCH  10  15
BRANCH   4  14
ATOM     14  C   UNL     1      -2.831   4.225  23.807  0.00  0.00    +0.120 C 
BRANCH  14  16
ATOM     16  C   UNL     1      -1.797   3.735  24.785  0.00  0.00    -0.033 A 
ATOM     17  C   UNL     1      -1.998   3.906  26.156  0.00  0.00    +0.007 A 
ATOM     18  C   UNL     1      -0.639   3.110  24.323  0.00  0.00    +0.007 A 
ATOM     20  C   UNL     1      -1.039   3.453  27.062  0.00  0.00    +0.023 A 
ATOM     21  C   UNL     1       0.319   2.657  25.229  0.00  0.00    +0.023 A 
ATOM     23  C   UNL     1       0.118   2.828  26.600  0.00  0.00    +0.033 A 
BRANCH  23   7
ATOM      3  O   UNL     1       0.197   2.994  29.605  0.00  0.00    -0.276 OA
ATOM      7  N   UNL     1       1.076   2.375  27.506  0.00  0.00    -0.286 N 
ATOM     29  C   UNL     1       1.063   2.481  28.904  0.00  0.00    +0.214 C 
ATOM     31  C   UNL     1       2.291   1.862  29.523  0.00  0.00    +0.109 C 
ATOM     33  H   UNL     1       1.882   1.911  27.092  0.00  0.00    +0.155 HD
ENDBRANCH  23   7
ENDBRANCH  14  16
ENDBRANCH   4  14
TORSDOF 8
ENDMDL
MODEL 2
REMARK VINA RESULT:       2.0      1.734      3.069
REMARK  Name = 45783397
REMARK  10 active torsions:
REMARK  status: ('A' for Active; 'I' for Inactive)
REMARK    1  A    between atoms: O_2  and  C_30
REMARK    2  A    between atoms: O_2  and  C_32
REMARK    3  A    between atoms: N_4  and  C_14
REMARK    4  A    between atoms: N_7  and  C_23
REMARK    5  A    between atoms: N_8  and  C_27
REMARK    6  A    between atoms: C_10  and  C_15
REMARK    7  A    between atoms: C_14  and  C_16
REMARK    8  A    between atoms: C_19  and  C_22
REMARK    9  A    between atoms: C_27  and  C_30
REMARK   10  A    between atoms: C_29  and  C_31
REMARK                            x       y       z     vdW  Elec       q    Type
REMARK                         _______ _______ _______ _____ _____    ______ ____
ROOT
ATOM      4  N   UNL     1      -3.972   4.246  25.656  0.00  0.00    -0.287 NA
ATOM     10  C   UNL     1      -4.802   3.044  25.877  0.00  0.00    +0.146 C 
ATOM     11  C   UNL     1      -6.243   3.505  25.591  0.00  0.00    +0.030 C 
ATOM     12  C   UNL     1      -6.131   4.991  25.277  0.00  0.00    +0.017 C 
ATOM     13  C   UNL     1      -4.829   5.398  25.939  0.00  0.00    +0.085 C 
ENDROOT
BRANCH  10  15
ATOM      1  O   UNL     1      -3.949   2.177  23.756  0.00  0.00    -0.336 OA
ATOM      5  N   UNL     1      -4.366   0.598  25.289  0.00  0.00    -0.190 NA
ATOM      6  N   UNL     1      -3.619   0.955  23.156  0.00  0.00    -0.056 NA
ATOM     15  C   UNL     1      -4.378   1.877  25.010  0.00  0.00    +0.245 A 
ATOM     19  C   UNL     1      -3.892   0.072  24.122  0.00  0.00    +0.205 A 
BRANCH  19  22
ATOM      8  N   UNL     1      -1.370  -1.162  24.541  0.00  0.00    -0.326 N 
ATOM      9  N   UNL     1      -2.268  -3.285  24.004  0.00  0.00    -0.240 NA
ATOM     22  C   UNL     1      -3.702  -1.339  23.954  0.00  0.00    +0.062 A 
ATOM     24  C   UNL     1      -2.478  -1.958  24.155  0.00  0.00    +0.130 A 
ATOM     25  C   UNL     1      -4.779  -2.133  23.576  0.00  0.00    +0.016 A 
ATOM     26  C   UNL     1      -4.602  -3.503  23.412  0.00  0.00    +0.020 A 
ATOM     28  C   UNL     1      -3.338  -4.025  23.636  0.00  0.00    +0.113 A 
ATOM     34  H   UNL     1      -1.588  -0.282  24.993  0.00  0.00    +0.148 HD
BRANCH   8  27
ATOM     27  C   UNL     1      -0.073  -1.711  24.769  0.00  0.00    +0.131 C 
BRANCH  27  30
ATOM     30  C   UNL     1       0.119  -1.992  26.249  0.00  0.00    +0.178 C 
BRANCH  30   2
ATOM      2  O   UNL     1      -0.509  -0.969  27.011  0.00  0.00    -0.381 OA
ATOM     32  C   UNL     1      -1.896  -1.227  27.189  0.00  0.00    +0.194 C 
ENDBRANCH  30   2
ENDBRANCH  27  30
ENDBRANCH   8  27
ENDBRANCH  19  22
ENDBRANCH  10  15
BRANCH   4  14
ATOM     14  C   UNL     1      -2.754   4.259  26.455  0.00  0.00    +0.120 C 
BRANCH  14  16
ATOM     16  C   UNL     1      -1.616   3.566  25.754  0.00  0.00    -0.033 A 
ATOM     17  C   UNL     1      -0.902   2.562  26.409  0.00  0.00    +0.007 A 
ATOM     18  C   UNL     1      -1.275   3.929  24.452  0.00  0.00    +0.007 A 
ATOM     20  C   UNL     1       0.153   1.921  25.760  0.00  0.00    +0.023 A 
ATOM     21  C   UNL     1      -0.220   3.288  23.803  0.00  0.00    +0.023 A 
ATOM     23  C   UNL     1       0.494   2.283  24.457  0.00  0.00    +0.033 A 
BRANCH  23   7
ATOM      3  O   UNL     1       0.485  -0.012  22.509  0.00  0.00    -0.276 OA
ATOM      7  N   UNL     1       1.550   1.642  23.808  0.00  0.00    -0.286 N 
ATOM     29  C   UNL     1       1.488   0.571  22.906  0.00  0.00    +0.214 C 
ATOM     31  C   UNL     1       2.858   0.165  22.426  0.00  0.00    +0.109 C 
ATOM     33  H   UNL     1       2.476   2.004  24.023  0.00  0.00    +0.155 HD
ENDBRANCH  23   7
ENDBRANCH  14  16
ENDBRANCH   4  14
TORSDOF 8
ENDMDL
MODEL 3
REMARK VINA RESULT:       2.2      1.986      6.129
REMARK  Name = 45783397
REMARK  10 active torsions:
REMARK  status: ('A' for Active; 'I' for Inactive)
REMARK    1  A    between atoms: O_2  and  C_30
REMARK    2  A    between atoms: O_2  and  C_32
REMARK    3  A    between atoms: N_4  and  C_14
REMARK    4  A    between atoms: N_7  and  C_23
REMARK    5  A    between atoms: N_8  and  C_27
REMARK    6  A    between atoms: C_10  and  C_15
REMARK    7  A    between atoms: C_14  and  C_16
REMARK    8  A    between atoms: C_19  and  C_22
REMARK    9  A    between atoms: C_27  and  C_30
REMARK   10  A    between atoms: C_29  and  C_31
REMARK                            x       y       z     vdW  Elec       q    Type
REMARK                         _______ _______ _______ _____ _____    ______ ____
ROOT
ATOM      4  N   UNL     1      -2.076  -1.621  23.915  0.00  0.00    -0.287 NA
ATOM     10  C   UNL     1      -3.474  -1.149  23.956  0.00  0.00    +0.146 C 
ATOM     11  C   UNL     1      -4.163  -2.055  24.993  0.00  0.00    +0.030 C 
ATOM     12  C   UNL     1      -3.091  -3.042  25.434  0.00  0.00    +0.017 C 
ATOM     13  C   UNL     1      -2.107  -3.038  24.281  0.00  0.00    +0.085 C 
ENDROOT
BRANCH  10  15
ATOM      1  O   UNL     1      -4.787   0.748  24.764  0.00  0.00    -0.336 OA
ATOM      5  N   UNL     1      -2.677   1.262  24.218  0.00  0.00    -0.190 NA
ATOM      6  N   UNL     1      -4.645   2.119  25.009  0.00  0.00    -0.056 NA
ATOM     15  C   UNL     1      -3.583   0.321  24.302  0.00  0.00    +0.245 A 
ATOM     19  C   UNL     1      -3.374   2.348  24.663  0.00  0.00    +0.205 A 
BRANCH  19  22
ATOM      8  N   UNL     1      -0.765   2.723  25.718  0.00  0.00    -0.326 N 
ATOM      9  N   UNL     1      -0.906   5.058  25.360  0.00  0.00    -0.240 NA
ATOM     22  C   UNL     1      -2.771   3.646  24.752  0.00  0.00    +0.062 A 
ATOM     24  C   UNL     1      -1.500   3.847  25.264  0.00  0.00    +0.130 A 
ATOM     25  C   UNL     1      -3.479   4.758  24.310  0.00  0.00    +0.016 A 
ATOM     26  C   UNL     1      -2.901   6.021  24.393  0.00  0.00    +0.020 A 
ATOM     28  C   UNL     1      -1.624   6.116  24.921  0.00  0.00    +0.113 A 
ATOM     34  H   UNL     1      -1.033   1.826  25.329  0.00  0.00    +0.148 HD
BRANCH   8  27
ATOM     27  C   UNL     1       0.550   2.833  26.260  0.00  0.00    +0.131 C 
BRANCH  27  30
ATOM     30  C   UNL     1       0.548   2.403  27.718  0.00  0.00    +0.178 C 
BRANCH  30   2
ATOM      2  O   UNL     1       1.796   2.739  28.312  0.00  0.00    -0.381 OA
ATOM     32  C   UNL     1       1.829   2.388  29.689  0.00  0.00    +0.194 C 
ENDBRANCH  30   2
ENDBRANCH  27  30
ENDBRANCH   8  27
ENDBRANCH  19  22
ENDBRANCH  10  15
BRANCH   4  14
ATOM     14  C   UNL     1      -1.432  -1.402  22.626  0.00  0.00    +0.120 C 
BRANCH  14  16
ATOM     16  C   UNL     1      -0.047  -0.832  22.781  0.00  0.00    -0.033 A 
ATOM     17  C   UNL     1       0.841  -0.856  21.705  0.00  0.00    +0.007 A 
ATOM     18  C   UNL     1       0.348  -0.281  23.999  0.00  0.00    +0.007 A 
ATOM     20  C   UNL     1       2.124  -0.329  21.848  0.00  0.00    +0.023 A 
ATOM     21  C   UNL     1       1.632   0.245  24.142  0.00  0.00    +0.023 A 
ATOM     23  C   UNL     1       2.520   0.222  23.066  0.00  0.00    +0.033 A 
BRANCH  23   7
ATOM      3  O   UNL     1       5.068  -1.071  24.016  0.00  0.00    -0.276 OA
ATOM      7  N   UNL     1       3.803   0.748  23.210  0.00  0.00    -0.286 N 
ATOM     29  C   UNL     1       4.960   0.098  23.660  0.00  0.00    +0.214 C 
ATOM     31  C   UNL     1       6.153   1.020  23.670  0.00  0.00    +0.109 C 
ATOM     33  H   UNL     1       3.902   1.728  22.953  0.00  0.00    +0.155 HD
ENDBRANCH  23   7
ENDBRANCH  14  16
ENDBRANCH   4  14
TORSDOF 8
ENDMDL
MODEL 4
REMARK VINA RESULT:       2.2      2.077      5.595
REMARK  Name = 45783397
REMARK  10 active torsions:
REMARK  status: ('A' for Active; 'I' for Inactive)
REMARK    1  A    between atoms: O_2  and  C_30
REMARK    2  A    between atoms: O_2  and  C_32
REMARK    3  A    between atoms: N_4  and  C_14
REMARK    4  A    between atoms: N_7  and  C_23
REMARK    5  A    between atoms: N_8  and  C_27
REMARK    6  A    between atoms: C_10  and  C_15
REMARK    7  A    between atoms: C_14  and  C_16
REMARK    8  A    between atoms: C_19  and  C_22
REMARK    9  A    between atoms: C_27  and  C_30
REMARK   10  A    between atoms: C_29  and  C_31
REMARK                            x       y       z     vdW  Elec       q    Type
REMARK                         _______ _______ _______ _____ _____    ______ ____
ROOT
ATOM      4  N   UNL     1      -4.440  -1.861  23.732  0.00  0.00    -0.287 NA
ATOM     10  C   UNL     1      -3.534  -2.612  24.624  0.00  0.00    +0.146 C 
ATOM     11  C   UNL     1      -3.544  -4.049  24.071  0.00  0.00    +0.030 C 
ATOM     12  C   UNL     1      -4.527  -4.022  22.909  0.00  0.00    +0.017 C 
ATOM     13  C   UNL     1      -5.409  -2.828  23.217  0.00  0.00    +0.085 C 
ENDROOT
BRANCH  10  15
ATOM      1  O   UNL     1      -1.392  -2.330  25.766  0.00  0.00    -0.336 OA
ATOM      5  N   UNL     1      -1.545  -1.227  23.823  0.00  0.00    -0.190 NA
ATOM      6  N   UNL     1      -0.168  -1.671  25.595  0.00  0.00    -0.056 NA
ATOM     15  C   UNL     1      -2.143  -2.016  24.678  0.00  0.00    +0.245 A 
ATOM     19  C   UNL     1      -0.335  -1.043  24.427  0.00  0.00    +0.205 A 
BRANCH  19  22
ATOM      8  N   UNL     1       0.316   1.523  25.454  0.00  0.00    -0.326 N 
ATOM      9  N   UNL     1       1.973   1.819  23.790  0.00  0.00    -0.240 NA
ATOM     22  C   UNL     1       0.685  -0.227  23.837  0.00  0.00    +0.062 A 
ATOM     24  C   UNL     1       1.016   1.027  24.325  0.00  0.00    +0.130 A 
ATOM     25  C   UNL     1       1.382  -0.699  22.729  0.00  0.00    +0.016 A 
ATOM     26  C   UNL     1       2.373   0.087  22.152  0.00  0.00    +0.020 A 
ATOM     28  C   UNL     1       2.629   1.327  22.714  0.00  0.00    +0.113 A 
ATOM     34  H   UNL     1      -0.114   0.828  26.053  0.00  0.00    +0.148 HD
BRANCH   8  27
ATOM     27  C   UNL     1       0.587   2.801  26.025  0.00  0.00    +0.131 C 
BRANCH  27  30
ATOM     30  C   UNL     1       0.563   2.708  27.541  0.00  0.00    +0.178 C 
BRANCH  30   2
ATOM      2  O   UNL     1       1.892   2.787  28.042  0.00  0.00    -0.381 OA
ATOM     32  C   UNL     1       1.952   2.440  29.419  0.00  0.00    +0.194 C 
ENDBRANCH  30   2
ENDBRANCH  27  30
ENDBRANCH   8  27
ENDBRANCH  19  22
ENDBRANCH  10  15
BRANCH   4  14
ATOM     14  C   UNL     1      -5.088  -0.733  24.389  0.00  0.00    +0.120 C 
BRANCH  14  16
ATOM     16  C   UNL     1      -4.242   0.511  24.332  0.00  0.00    -0.033 A 
ATOM     17  C   UNL     1      -3.519   0.810  23.176  0.00  0.00    +0.007 A 
ATOM     18  C   UNL     1      -4.179   1.364  25.433  0.00  0.00    +0.007 A 
ATOM     20  C   UNL     1      -2.734   1.961  23.123  0.00  0.00    +0.023 A 
ATOM     21  C   UNL     1      -3.394   2.516  25.380  0.00  0.00    +0.023 A 
ATOM     23  C   UNL     1      -2.671   2.814  24.224  0.00  0.00    +0.033 A 
BRANCH  23   7
ATOM      3  O   UNL     1      -2.376   5.071  26.195  0.00  0.00    -0.276 OA
ATOM      7  N   UNL     1      -1.886   3.966  24.171  0.00  0.00    -0.286 N 
ATOM     29  C   UNL     1      -1.788   4.991  25.122  0.00  0.00    +0.214 C 
ATOM     31  C   UNL     1      -0.824   6.066  24.688  0.00  0.00    +0.109 C 
ATOM     33  H   UNL     1      -1.317   4.066  23.332  0.00  0.00    +0.155 HD
ENDBRANCH  23   7
ENDBRANCH  14  16
ENDBRANCH   4  14
TORSDOF 8
ENDMDL
MODEL 5
REMARK VINA RESULT:       2.6      2.132      6.137
REMARK  Name = 45783397
REMARK  10 active torsions:
REMARK  status: ('A' for Active; 'I' for Inactive)
REMARK    1  A    between atoms: O_2  and  C_30
REMARK    2  A    between atoms: O_2  and  C_32
REMARK    3  A    between atoms: N_4  and  C_14
REMARK    4  A    between atoms: N_7  and  C_23
REMARK    5  A    between atoms: N_8  and  C_27
REMARK    6  A    between atoms: C_10  and  C_15
REMARK    7  A    between atoms: C_14  and  C_16
REMARK    8  A    between atoms: C_19  and  C_22
REMARK    9  A    between atoms: C_27  and  C_30
REMARK   10  A    between atoms: C_29  and  C_31
REMARK                            x       y       z     vdW  Elec       q    Type
REMARK                         _______ _______ _______ _____ _____    ______ ____
ROOT
ATOM      4  N   UNL     1      -1.083  -0.592  24.066  0.00  0.00    -0.287 NA
ATOM     10  C   UNL     1      -2.452  -1.115  23.884  0.00  0.00    +0.146 C 
ATOM     11  C   UNL     1      -2.482  -2.424  24.695  0.00  0.00    +0.030 C 
ATOM     12  C   UNL     1      -1.071  -2.583  25.246  0.00  0.00    +0.017 C 
ATOM     13  C   UNL     1      -0.224  -1.753  24.302  0.00  0.00    +0.085 C 
ENDROOT
BRANCH  10  15
ATOM      1  O   UNL     1      -4.748  -0.644  24.577  0.00  0.00    -0.336 OA
ATOM      5  N   UNL     1      -3.427   1.164  24.494  0.00  0.00    -0.190 NA
ATOM      6  N   UNL     1      -5.548   0.441  24.958  0.00  0.00    -0.056 NA
ATOM     15  C   UNL     1      -3.515  -0.131  24.322  0.00  0.00    +0.245 A 
ATOM     19  C   UNL     1      -4.698   1.471  24.885  0.00  0.00    +0.205 A 
BRANCH  19  22
ATOM      8  N   UNL     1      -2.822   3.601  24.943  0.00  0.00    -0.326 N 
ATOM      9  N   UNL     1      -4.522   5.143  25.518  0.00  0.00    -0.240 NA
ATOM     22  C   UNL     1      -5.087   2.815  25.196  0.00  0.00    +0.062 A 
ATOM     24  C   UNL     1      -4.185   3.866  25.228  0.00  0.00    +0.130 A 
ATOM     25  C   UNL     1      -6.421   3.092  25.478  0.00  0.00    +0.016 A 
ATOM     26  C   UNL     1      -6.805   4.394  25.780  0.00  0.00    +0.020 A 
ATOM     28  C   UNL     1      -5.827   5.375  25.788  0.00  0.00    +0.113 A 
ATOM     34  H   UNL     1      -2.634   2.772  24.391  0.00  0.00    +0.148 HD
BRANCH   8  27
ATOM     27  C   UNL     1      -1.823   4.619  24.953  0.00  0.00    +0.131 C 
BRANCH  27  30
ATOM     30  C   UNL     1      -0.441   3.989  25.005  0.00  0.00    +0.178 C 
BRANCH  30   2
ATOM      2  O   UNL     1      -0.548   2.650  25.470  0.00  0.00    -0.381 OA
ATOM     32  C   UNL     1       0.191   2.453  26.668  0.00  0.00    +0.194 C 
ENDBRANCH  30   2
ENDBRANCH  27  30
ENDBRANCH   8  27
ENDBRANCH  19  22
ENDBRANCH  10  15
BRANCH   4  14
ATOM     14  C   UNL     1      -0.620   0.213  22.942  0.00  0.00    +0.120 C 
BRANCH  14  16
ATOM     16  C   UNL     1       0.883   0.254  22.864  0.00  0.00    -0.033 A 
ATOM     17  C   UNL     1       1.560  -0.603  21.996  0.00  0.00    +0.007 A 
ATOM     18  C   UNL     1       1.598   1.149  23.659  0.00  0.00    +0.007 A 
ATOM     20  C   UNL     1       2.952  -0.566  21.924  0.00  0.00    +0.023 A 
ATOM     21  C   UNL     1       2.990   1.187  23.587  0.00  0.00    +0.023 A 
ATOM     23  C   UNL     1       3.667   0.329  22.719  0.00  0.00    +0.033 A 
BRANCH  23   7
ATOM      3  O   UNL     1       5.751  -0.859  24.539  0.00  0.00    -0.276 OA
ATOM      7  N   UNL     1       5.060   0.367  22.647  0.00  0.00    -0.286 N 
ATOM     29  C   UNL     1       5.987  -0.206  23.528  0.00  0.00    +0.214 C 
ATOM     31  C   UNL     1       7.408   0.062  23.097  0.00  0.00    +0.109 C 
ATOM     33  H   UNL     1       5.440   0.876  21.852  0.00  0.00    +0.155 HD
ENDBRANCH  23   7
ENDBRANCH  14  16
ENDBRANCH   4  14
TORSDOF 8
ENDMDL
MODEL 6
REMARK VINA RESULT:       2.8      2.190      4.578
REMARK  Name = 45783397
REMARK  10 active torsions:
REMARK  status: ('A' for Active; 'I' for Inactive)
REMARK    1  A    between atoms: O_2  and  C_30
REMARK    2  A    between atoms: O_2  and  C_32
REMARK    3  A    between atoms: N_4  and  C_14
REMARK    4  A    between atoms: N_7  and  C_23
REMARK    5  A    between atoms: N_8  and  C_27
REMARK    6  A    between atoms: C_10  and  C_15
REMARK    7  A    between atoms: C_14  and  C_16
REMARK    8  A    between atoms: C_19  and  C_22
REMARK    9  A    between atoms: C_27  and  C_30
REMARK   10  A    between atoms: C_29  and  C_31
REMARK                            x       y       z     vdW  Elec       q    Type
REMARK                         _______ _______ _______ _____ _____    ______ ____
ROOT
ATOM      4  N   UNL     1      -2.969   4.941  24.512  0.00  0.00    -0.287 NA
ATOM     10  C   UNL     1      -1.587   4.565  24.152  0.00  0.00    +0.146 C 
ATOM     11  C   UNL     1      -0.730   5.772  24.574  0.00  0.00    +0.030 C 
ATOM     12  C   UNL     1      -1.722   6.798  25.104  0.00  0.00    +0.017 C 
ATOM     13  C   UNL     1      -3.029   6.402  24.448  0.00  0.00    +0.085 C 
ENDROOT
BRANCH  10  15
ATOM      1  O   UNL     1      -0.788   3.353  26.118  0.00  0.00    -0.336 OA
ATOM      5  N   UNL     1      -1.049   2.073  24.298  0.00  0.00    -0.190 NA
ATOM      6  N   UNL     1      -0.422   2.056  26.499  0.00  0.00    -0.056 NA
ATOM     15  C   UNL     1      -1.145   3.274  24.809  0.00  0.00    +0.245 A 
ATOM     19  C   UNL     1      -0.602   1.359  25.372  0.00  0.00    +0.205 A 
BRANCH  19  22
ATOM      8  N   UNL     1       1.102   0.259  23.386  0.00  0.00    -0.326 N 
ATOM      9  N   UNL     1       0.740  -1.926  24.220  0.00  0.00    -0.240 NA
ATOM     22  C   UNL     1      -0.348  -0.050  25.287  0.00  0.00    +0.062 A 
ATOM     24  C   UNL     1       0.481  -0.603  24.325  0.00  0.00    +0.130 A 
ATOM     25  C   UNL     1      -0.949  -0.908  26.201  0.00  0.00    +0.016 A 
ATOM     26  C   UNL     1      -0.706  -2.276  26.125  0.00  0.00    +0.020 A 
ATOM     28  C   UNL     1       0.138  -2.730  25.125  0.00  0.00    +0.113 A 
ATOM     34  H   UNL     1       1.208   1.226  23.669  0.00  0.00    +0.148 HD
BRANCH   8  27
ATOM     27  C   UNL     1       1.970  -0.220  22.360  0.00  0.00    +0.131 C 
BRANCH  27  30
ATOM     30  C   UNL     1       3.335   0.434  22.488  0.00  0.00    +0.178 C 
BRANCH  30   2
ATOM      2  O   UNL     1       4.194  -0.407  23.248  0.00  0.00    -0.381 OA
ATOM     32  C   UNL     1       5.370   0.279  23.656  0.00  0.00    +0.194 C 
ENDBRANCH  30   2
ENDBRANCH  27  30
ENDBRANCH   8  27
ENDBRANCH  19  22
ENDBRANCH  10  15
BRANCH   4  14
ATOM     14  C   UNL     1      -3.975   4.314  23.665  0.00  0.00    +0.120 C 
BRANCH  14  16
ATOM     16  C   UNL     1      -4.076   2.833  23.917  0.00  0.00    -0.033 A 
ATOM     17  C   UNL     1      -4.690   2.364  25.079  0.00  0.00    +0.007 A 
ATOM     18  C   UNL     1      -3.556   1.930  22.990  0.00  0.00    +0.007 A 
ATOM     20  C   UNL     1      -4.783   0.992  25.314  0.00  0.00    +0.023 A 
ATOM     21  C   UNL     1      -3.648   0.558  23.225  0.00  0.00    +0.023 A 
ATOM     23  C   UNL     1      -4.262   0.089  24.387  0.00  0.00    +0.033 A 
BRANCH  23   7
ATOM      3  O   UNL     1      -2.509  -2.175  23.458  0.00  0.00    -0.276 OA
ATOM      7  N   UNL     1      -4.355  -1.282  24.622  0.00  0.00    -0.286 N 
ATOM     29  C   UNL     1      -3.506  -2.298  24.160  0.00  0.00    +0.214 C 
ATOM     31  C   UNL     1      -3.951  -3.658  24.637  0.00  0.00    +0.109 C 
ATOM     33  H   UNL     1      -5.140  -1.572  25.201  0.00  0.00    +0.155 HD
ENDBRANCH  23   7
ENDBRANCH  14  16
ENDBRANCH   4  14
TORSDOF 8
ENDMDL
MODEL 7
REMARK VINA RESULT:       2.9      2.164      5.513
REMARK  Name = 45783397
REMARK  10 active torsions:
REMARK  status: ('A' for Active; 'I' for Inactive)
REMARK    1  A    between atoms: O_2  and  C_30
REMARK    2  A    between atoms: O_2  and  C_32
REMARK    3  A    between atoms: N_4  and  C_14
REMARK    4  A    between atoms: N_7  and  C_23
REMARK    5  A    between atoms: N_8  and  C_27
REMARK    6  A    between atoms: C_10  and  C_15
REMARK    7  A    between atoms: C_14  and  C_16
REMARK    8  A    between atoms: C_19  and  C_22
REMARK    9  A    between atoms: C_27  and  C_30
REMARK   10  A    between atoms: C_29  and  C_31
REMARK                            x       y       z     vdW  Elec       q    Type
REMARK                         _______ _______ _______ _____ _____    ______ ____
ROOT
ATOM      4  N   UNL     1      -4.610  -2.015  23.773  0.00  0.00    -0.287 NA
ATOM     10  C   UNL     1      -3.708  -2.597  24.786  0.00  0.00    +0.146 C 
ATOM     11  C   UNL     1      -3.446  -4.034  24.299  0.00  0.00    +0.030 C 
ATOM     12  C   UNL     1      -4.289  -4.187  23.040  0.00  0.00    +0.017 C 
ATOM     13  C   UNL     1      -5.364  -3.131  23.201  0.00  0.00    +0.085 C 
ENDROOT
BRANCH  10  15
ATOM      1  O   UNL     1      -1.328  -2.494  25.336  0.00  0.00    -0.336 OA
ATOM      5  N   UNL     1      -2.232  -0.514  24.805  0.00  0.00    -0.190 NA
ATOM      6  N   UNL     1      -0.293  -1.555  25.432  0.00  0.00    -0.056 NA
ATOM     15  C   UNL     1      -2.434  -1.798  24.960  0.00  0.00    +0.245 A 
ATOM     19  C   UNL     1      -0.904  -0.412  25.104  0.00  0.00    +0.205 A 
BRANCH  19  22
ATOM      8  N   UNL     1       1.179   0.104  23.245  0.00  0.00    -0.326 N 
ATOM      9  N   UNL     1       1.465   2.291  24.103  0.00  0.00    -0.240 NA
ATOM     22  C   UNL     1      -0.218   0.846  25.064  0.00  0.00    +0.062 A 
ATOM     24  C   UNL     1       0.800   1.115  24.164  0.00  0.00    +0.130 A 
ATOM     25  C   UNL     1      -0.578   1.848  25.959  0.00  0.00    +0.016 A 
ATOM     26  C   UNL     1       0.083   3.072  25.926  0.00  0.00    +0.020 A 
ATOM     28  C   UNL     1       1.088   3.241  24.988  0.00  0.00    +0.113 A 
ATOM     34  H   UNL     1       0.480  -0.601  23.044  0.00  0.00    +0.148 HD
BRANCH   8  27
ATOM     27  C   UNL     1       2.215   0.290  22.283  0.00  0.00    +0.131 C 
BRANCH  27  30
ATOM     30  C   UNL     1       3.505  -0.340  22.781  0.00  0.00    +0.178 C 
BRANCH  30   2
ATOM      2  O   UNL     1       4.462   0.681  23.037  0.00  0.00    -0.381 OA
ATOM     32  C   UNL     1       5.532   0.203  23.841  0.00  0.00    +0.194 C 
ENDBRANCH  30   2
ENDBRANCH  27  30
ENDBRANCH   8  27
ENDBRANCH  19  22
ENDBRANCH  10  15
BRANCH   4  14
ATOM     14  C   UNL     1      -5.484  -0.979  24.308  0.00  0.00    +0.120 C 
BRANCH  14  16
ATOM     16  C   UNL     1      -4.818   0.371  24.310  0.00  0.00    -0.033 A 
ATOM     17  C   UNL     1      -3.926   0.709  23.291  0.00  0.00    +0.007 A 
ATOM     18  C   UNL     1      -5.092   1.282  25.329  0.00  0.00    +0.007 A 
ATOM     20  C   UNL     1      -3.308   1.960  23.293  0.00  0.00    +0.023 A 
ATOM     21  C   UNL     1      -4.473   2.533  25.330  0.00  0.00    +0.023 A 
ATOM     23  C   UNL     1      -3.581   2.871  24.312  0.00  0.00    +0.033 A 
BRANCH  23   7
ATOM      3  O   UNL     1      -2.746   4.634  26.605  0.00  0.00    -0.276 OA
ATOM      7  N   UNL     1      -2.963   4.122  24.314  0.00  0.00    -0.286 N 
ATOM     29  C   UNL     1      -2.596   4.903  25.418  0.00  0.00    +0.214 C 
ATOM     31  C   UNL     1      -1.948   6.198  24.996  0.00  0.00    +0.109 C 
ATOM     33  H   UNL     1      -2.757   4.506  23.394  0.00  0.00    +0.155 HD
ENDBRANCH  23   7
ENDBRANCH  14  16
ENDBRANCH   4  14
TORSDOF 8
ENDMDL
MODEL 8
REMARK VINA RESULT:       3.2      2.351      5.476
REMARK  Name = 45783397
REMARK  10 active torsions:
REMARK  status: ('A' for Active; 'I' for Inactive)
REMARK    1  A    between atoms: O_2  and  C_30
REMARK    2  A    between atoms: O_2  and  C_32
REMARK    3  A    between atoms: N_4  and  C_14
REMARK    4  A    between atoms: N_7  and  C_23
REMARK    5  A    between atoms: N_8  and  C_27
REMARK    6  A    between atoms: C_10  and  C_15
REMARK    7  A    between atoms: C_14  and  C_16
REMARK    8  A    between atoms: C_19  and  C_22
REMARK    9  A    between atoms: C_27  and  C_30
REMARK   10  A    between atoms: C_29  and  C_31
REMARK                            x       y       z     vdW  Elec       q    Type
REMARK                         _______ _______ _______ _____ _____    ______ ____
ROOT
ATOM      4  N   UNL     1      -3.426   3.983  24.970  0.00  0.00    -0.287 NA
ATOM     10  C   UNL     1      -2.109   4.606  24.726  0.00  0.00    +0.146 C 
ATOM     11  C   UNL     1      -1.969   5.670  25.830  0.00  0.00    +0.030 C 
ATOM     12  C   UNL     1      -3.278   5.613  26.607  0.00  0.00    +0.017 C 
ATOM     13  C   UNL     1      -4.252   5.002  25.619  0.00  0.00    +0.085 C 
ENDROOT
BRANCH  10  15
ATOM      1  O   UNL     1      -0.499   3.240  25.957  0.00  0.00    -0.336 OA
ATOM      5  N   UNL     1      -0.377   3.016  23.731  0.00  0.00    -0.190 NA
ATOM      6  N   UNL     1       0.527   2.317  25.714  0.00  0.00    -0.056 NA
ATOM     15  C   UNL     1      -0.978   3.600  24.737  0.00  0.00    +0.245 A 
ATOM     19  C   UNL     1       0.537   2.238  24.379  0.00  0.00    +0.205 A 
BRANCH  19  22
ATOM      8  N   UNL     1      -0.062  -0.482  23.828  0.00  0.00    -0.326 N 
ATOM      9  N   UNL     1       2.008  -0.760  22.714  0.00  0.00    -0.240 NA
ATOM     22  C   UNL     1       1.447   1.391  23.664  0.00  0.00    +0.062 A 
ATOM     24  C   UNL     1       1.171   0.062  23.386  0.00  0.00    +0.130 A 
ATOM     25  C   UNL     1       2.660   1.910  23.223  0.00  0.00    +0.016 A 
ATOM     26  C   UNL     1       3.547   1.094  22.528  0.00  0.00    +0.020 A 
ATOM     28  C   UNL     1       3.177  -0.222  22.302  0.00  0.00    +0.113 A 
ATOM     34  H   UNL     1      -0.810   0.181  23.992  0.00  0.00    +0.148 HD
BRANCH   8  27
ATOM     27  C   UNL     1      -0.432  -1.839  23.589  0.00  0.00    +0.131 C 
BRANCH  27  30
ATOM     30  C   UNL     1      -0.681  -2.549  24.909  0.00  0.00    +0.178 C 
BRANCH  30   2
ATOM      2  O   UNL     1      -0.382  -1.669  25.984  0.00  0.00    -0.381 OA
ATOM     32  C   UNL     1      -1.401  -0.692  26.158  0.00  0.00    +0.194 C 
ENDBRANCH  30   2
ENDBRANCH  27  30
ENDBRANCH   8  27
ENDBRANCH  19  22
ENDBRANCH  10  15
BRANCH   4  14
ATOM     14  C   UNL     1      -4.048   3.462  23.760  0.00  0.00    +0.120 C 
BRANCH  14  16
ATOM     16  C   UNL     1      -4.048   1.956  23.734  0.00  0.00    -0.033 A 
ATOM     17  C   UNL     1      -3.252   1.275  22.813  0.00  0.00    +0.007 A 
ATOM     18  C   UNL     1      -4.844   1.243  24.629  0.00  0.00    +0.007 A 
ATOM     20  C   UNL     1      -3.252  -0.119  22.787  0.00  0.00    +0.023 A 
ATOM     21  C   UNL     1      -4.845  -0.152  24.604  0.00  0.00    +0.023 A 
ATOM     23  C   UNL     1      -4.049  -0.833  23.683  0.00  0.00    +0.033 A 
BRANCH  23   7
ATOM      3  O   UNL     1      -3.481  -2.827  25.865  0.00  0.00    -0.276 OA
ATOM      7  N   UNL     1      -4.049  -2.227  23.657  0.00  0.00    -0.286 N 
ATOM     29  C   UNL     1      -3.774  -3.112  24.709  0.00  0.00    +0.214 C 
ATOM     31  C   UNL     1      -3.881  -4.551  24.272  0.00  0.00    +0.109 C 
ATOM     33  H   UNL     1      -4.279  -2.646  22.758  0.00  0.00    +0.155 HD
ENDBRANCH  23   7
ENDBRANCH  14  16
ENDBRANCH   4  14
TORSDOF 8
ENDMDL
MODEL 9
REMARK VINA RESULT:       3.8      2.848      6.692
REMARK  Name = 45783397
REMARK  10 active torsions:
REMARK  status: ('A' for Active; 'I' for Inactive)
REMARK    1  A    between atoms: O_2  and  C_30
REMARK    2  A    between atoms: O_2  and  C_32
REMARK    3  A    between atoms: N_4  and  C_14
REMARK    4  A    between atoms: N_7  and  C_23
REMARK    5  A    between atoms: N_8  and  C_27
REMARK    6  A    between atoms: C_10  and  C_15
REMARK    7  A    between atoms: C_14  and  C_16
REMARK    8  A    between atoms: C_19  and  C_22
REMARK    9  A    between atoms: C_27  and  C_30
REMARK   10  A    between atoms: C_29  and  C_31
REMARK                            x       y       z     vdW  Elec       q    Type
REMARK                         _______ _______ _______ _____ _____    ______ ____
ROOT
ATOM      4  N   UNL     1       0.442  -0.897  24.031  0.00  0.00    -0.287 NA
ATOM     10  C   UNL     1      -0.958  -1.308  23.804  0.00  0.00    +0.146 C 
ATOM     11  C   UNL     1      -1.266  -2.296  24.944  0.00  0.00    +0.030 C 
ATOM     12  C   UNL     1       0.037  -2.423  25.723  0.00  0.00    +0.017 C 
ATOM     13  C   UNL     1       1.094  -2.012  24.719  0.00  0.00    +0.085 C 
ENDROOT
BRANCH  10  15
ATOM      1  O   UNL     1      -1.909   0.623  22.646  0.00  0.00    -0.336 OA
ATOM      5  N   UNL     1      -2.756   0.273  24.690  0.00  0.00    -0.190 NA
ATOM      6  N   UNL     1      -2.857   1.633  22.852  0.00  0.00    -0.056 NA
ATOM     15  C   UNL     1      -1.913  -0.134  23.775  0.00  0.00    +0.245 A 
ATOM     19  C   UNL     1      -3.313   1.359  24.079  0.00  0.00    +0.205 A 
BRANCH  19  22
ATOM      8  N   UNL     1      -2.807   4.004  24.979  0.00  0.00    -0.326 N 
ATOM      9  N   UNL     1      -5.028   4.208  25.772  0.00  0.00    -0.240 NA
ATOM     22  C   UNL     1      -4.324   2.148  24.720  0.00  0.00    +0.062 A 
ATOM     24  C   UNL     1      -4.095   3.440  25.164  0.00  0.00    +0.130 A 
ATOM     25  C   UNL     1      -5.592   1.609  24.909  0.00  0.00    +0.016 A 
ATOM     26  C   UNL     1      -6.579   2.370  25.529  0.00  0.00    +0.020 A 
ATOM     28  C   UNL     1      -6.249   3.651  25.939  0.00  0.00    +0.113 A 
ATOM     34  H   UNL     1      -2.247   3.602  24.236  0.00  0.00    +0.148 HD
BRANCH   8  27
ATOM     27  C   UNL     1      -2.478   5.325  25.404  0.00  0.00    +0.131 C 
BRANCH  27  30
ATOM     30  C   UNL     1      -1.040   5.647  25.034  0.00  0.00    +0.178 C 
BRANCH  30   2
ATOM      2  O   UNL     1      -0.430   4.497  24.461  0.00  0.00    -0.381 OA
ATOM     32  C   UNL     1      -0.234   3.474  25.428  0.00  0.00    +0.194 C 
ENDBRANCH  30   2
ENDBRANCH  27  30
ENDBRANCH   8  27
ENDBRANCH  19  22
ENDBRANCH  10  15
BRANCH   4  14
ATOM     14  C   UNL     1       1.138  -0.525  22.806  0.00  0.00    +0.120 C 
BRANCH  14  16
ATOM     16  C   UNL     1       2.612  -0.322  23.039  0.00  0.00    -0.033 A 
ATOM     17  C   UNL     1       3.217   0.879  22.666  0.00  0.00    +0.007 A 
ATOM     18  C   UNL     1       3.371  -1.333  23.626  0.00  0.00    +0.007 A 
ATOM     20  C   UNL     1       4.583   1.067  22.880  0.00  0.00    +0.023 A 
ATOM     21  C   UNL     1       4.737  -1.145  23.841  0.00  0.00    +0.023 A 
ATOM     23  C   UNL     1       5.342   0.056  23.468  0.00  0.00    +0.033 A 
BRANCH  23   7
ATOM      3  O   UNL     1       7.723  -1.182  22.103  0.00  0.00    -0.276 OA
ATOM      7  N   UNL     1       6.708   0.244  23.682  0.00  0.00    -0.286 N 
ATOM     29  C   UNL     1       7.780  -0.364  23.014  0.00  0.00    +0.214 C 
ATOM     31  C   UNL     1       9.110   0.110  23.545  0.00  0.00    +0.109 C 
ATOM     33  H   UNL     1       6.945   0.907  24.417  0.00  0.00    +0.155 HD
ENDBRANCH  23   7
ENDBRANCH  14  16
ENDBRANCH   4  14
TORSDOF 8
ENDMDL
MODEL 10
REMARK VINA RESULT:       3.8      2.164      5.830
REMARK  Name = 45783397
REMARK  10 active torsions:
REMARK  status: ('A' for Active; 'I' for Inactive)
REMARK    1  A    between atoms: O_2  and  C_30
REMARK    2  A    between atoms: O_2  and  C_32
REMARK    3  A    between atoms: N_4  and  C_14
REMARK    4  A    between atoms: N_7  and  C_23
REMARK    5  A    between atoms: N_8  and  C_27
REMARK    6  A    between atoms: C_10  and  C_15
REMARK    7  A    between atoms: C_14  and  C_16
REMARK    8  A    between atoms: C_19  and  C_22
REMARK    9  A    between atoms: C_27  and  C_30
REMARK   10  A    between atoms: C_29  and  C_31
REMARK                            x       y       z     vdW  Elec       q    Type
REMARK                         _______ _______ _______ _____ _____    ______ ____
ROOT
ATOM      4  N   UNL     1       2.765   1.085  23.449  0.00  0.00    -0.287 NA
ATOM     10  C   UNL     1       2.338  -0.169  22.797  0.00  0.00    +0.146 C 
ATOM     11  C   UNL     1       3.587  -1.069  22.823  0.00  0.00    +0.030 C 
ATOM     12  C   UNL     1       4.679  -0.215  23.453  0.00  0.00    +0.017 C 
ATOM     13  C   UNL     1       4.204   1.204  23.214  0.00  0.00    +0.085 C 
ENDROOT
BRANCH  10  15
ATOM      1  O   UNL     1       1.384  -1.420  24.668  0.00  0.00    -0.336 OA
ATOM      5  N   UNL     1      -0.104  -0.854  23.092  0.00  0.00    -0.190 NA
ATOM      6  N   UNL     1       0.150  -1.924  25.098  0.00  0.00    -0.056 NA
ATOM     15  C   UNL     1       1.145  -0.804  23.480  0.00  0.00    +0.245 A 
ATOM     19  C   UNL     1      -0.677  -1.550  24.117  0.00  0.00    +0.205 A 
BRANCH  19  22
ATOM      8  N   UNL     1      -2.655   0.473  23.877  0.00  0.00    -0.326 N 
ATOM      9  N   UNL     1      -4.384  -1.136  24.024  0.00  0.00    -0.240 NA
ATOM     22  C   UNL     1      -2.078  -1.854  24.131  0.00  0.00    +0.062 A 
ATOM     24  C   UNL     1      -3.056  -0.880  24.014  0.00  0.00    +0.130 A 
ATOM     25  C   UNL     1      -2.488  -3.176  24.264  0.00  0.00    +0.016 A 
ATOM     26  C   UNL     1      -3.846  -3.479  24.278  0.00  0.00    +0.020 A 
ATOM     28  C   UNL     1      -4.745  -2.432  24.156  0.00  0.00    +0.113 A 
ATOM     34  H   UNL     1      -1.721   0.627  23.513  0.00  0.00    +0.148 HD
BRANCH   8  27
ATOM     27  C   UNL     1      -3.590   1.543  23.751  0.00  0.00    +0.131 C 
BRANCH  27  30
ATOM     30  C   UNL     1      -4.467   1.614  24.990  0.00  0.00    +0.178 C 
BRANCH  30   2
ATOM      2  O   UNL     1      -5.789   1.979  24.614  0.00  0.00    -0.381 OA
ATOM     32  C   UNL     1      -6.610   2.211  25.751  0.00  0.00    +0.194 C 
ENDBRANCH  30   2
ENDBRANCH  27  30
ENDBRANCH   8  27
ENDBRANCH  19  22
ENDBRANCH  10  15
BRANCH   4  14
ATOM     14  C   UNL     1       2.034   2.255  22.979  0.00  0.00    +0.120 C 
BRANCH  14  16
ATOM     16  C   UNL     1       0.920   2.635  23.918  0.00  0.00    -0.033 A 
ATOM     17  C   UNL     1       0.186   3.800  23.694  0.00  0.00    +0.007 A 
ATOM     18  C   UNL     1       0.623   1.823  25.012  0.00  0.00    +0.007 A 
ATOM     20  C   UNL     1      -0.845   4.152  24.564  0.00  0.00    +0.023 A 
ATOM     21  C   UNL     1      -0.408   2.176  25.883  0.00  0.00    +0.023 A 
ATOM     23  C   UNL     1      -1.142   3.341  25.659  0.00  0.00    +0.033 A 
BRANCH  23   7
ATOM      3  O   UNL     1      -3.812   4.621  25.110  0.00  0.00    -0.276 OA
ATOM      7  N   UNL     1      -2.174   3.693  26.529  0.00  0.00    -0.286 N 
ATOM     29  C   UNL     1      -3.402   4.292  26.218  0.00  0.00    +0.214 C 
ATOM     31  C   UNL     1      -4.245   4.512  27.449  0.00  0.00    +0.109 C 
ATOM     33  H   UNL     1      -2.003   3.487  27.511  0.00  0.00    +0.155 HD
ENDBRANCH  23   7
ENDBRANCH  14  16
ENDBRANCH   4  14
TORSDOF 8
ENDMDL
