MODEL 1
REMARK VINA RESULT:      -3.9      0.000      0.000
REMARK  Name = 75537145
REMARK  6 active torsions:
REMARK  status: ('A' for Active; 'I' for Inactive)
REMARK    1  A    between atoms: O_3  and  C_16
REMARK    2  A    between atoms: O_3  and  C_20
REMARK    3  A    between atoms: N_5  and  C_15
REMARK    4  A    between atoms: N_6  and  C_14
REMARK    5  A    between atoms: C_14  and  C_16
REMARK    6  A    between atoms: C_15  and  C_17
REMARK                            x       y       z     vdW  Elec       q    Type
REMARK                         _______ _______ _______ _____ _____    ______ ____
ROOT
ATOM      2  O   UNL     1      -2.425   3.667  25.348  0.00  0.00    -0.252 OA
ATOM      4  N   UNL     1      -1.223   1.754  24.704  0.00  0.00    -0.278 N 
ATOM      5  N   UNL     1       0.820   0.202  23.552  0.00  0.00    -0.293 NA
ATOM      6  N   UNL     1      -3.451   1.757  24.419  0.00  0.00    -0.281 N 
ATOM      8  C   UNL     1      -1.534   0.417  24.243  0.00  0.00    +0.109 C 
ATOM      9  C   UNL     1      -0.580   0.007  23.121  0.00  0.00    +0.109 C 
ATOM     10  C   UNL     1      -3.003   0.504  23.838  0.00  0.00    +0.133 C 
ATOM     11  C   UNL     1       0.149   2.097  25.013  0.00  0.00    +0.125 C 
ATOM     12  C   UNL     1       1.073   1.616  23.892  0.00  0.00    +0.104 C 
ATOM     13  C   UNL     1      -2.373   2.535  24.887  0.00  0.00    +0.305 C 
ENDROOT
BRANCH   6  14
ATOM     14  C   UNL     1      -4.835   2.178  24.363  0.00  0.00    +0.137 C 
BRANCH  14  16
ATOM     16  C   UNL     1      -5.590   1.775  25.616  0.00  0.00    +0.178 C 
BRANCH  16   3
ATOM      3  O   UNL     1      -5.826   2.926  26.416  0.00  0.00    -0.381 OA
ATOM     20  C   UNL     1      -5.776   4.118  25.642  0.00  0.00    +0.194 C 
ENDBRANCH  16   3
ENDBRANCH  14  16
ENDBRANCH   6  14
BRANCH   5  15
ATOM     15  C   UNL     1       1.740  -0.245  22.507  0.00  0.00    +0.147 C 
BRANCH  15  17
ATOM      1  S   UNL     1       4.221   1.001  22.667  0.00  0.00    -0.079 S 
ATOM      7  N   UNL     1       3.667  -1.311  23.683  0.00  0.00    -0.251 NA
ATOM     17  C   UNL     1       3.161  -0.308  23.001  0.00  0.00    +0.092 A 
ATOM     18  C   UNL     1       5.468   0.173  23.502  0.00  0.00    +0.066 A 
ATOM     19  C   UNL     1       4.990  -1.034  23.970  0.00  0.00    +0.119 A 
ENDBRANCH  15  17
ENDBRANCH   5  15
TORSDOF 5
ENDMDL
MODEL 2
REMARK VINA RESULT:      -2.7      3.300      7.701
REMARK  Name = 75537145
REMARK  6 active torsions:
REMARK  status: ('A' for Active; 'I' for Inactive)
REMARK    1  A    between atoms: O_3  and  C_16
REMARK    2  A    between atoms: O_3  and  C_20
REMARK    3  A    between atoms: N_5  and  C_15
REMARK    4  A    between atoms: N_6  and  C_14
REMARK    5  A    between atoms: C_14  and  C_16
REMARK    6  A    between atoms: C_15  and  C_17
REMARK                            x       y       z     vdW  Elec       q    Type
REMARK                         _______ _______ _______ _____ _____    ______ ____
ROOT
ATOM      2  O   UNL     1       0.169  -1.511  23.779  0.00  0.00    -0.252 OA
ATOM      4  N   UNL     1      -0.326   0.579  24.729  0.00  0.00    -0.278 N 
ATOM      5  N   UNL     1      -1.866   2.735  25.674  0.00  0.00    -0.293 NA
ATOM      6  N   UNL     1       1.329   0.464  23.215  0.00  0.00    -0.281 N 
ATOM      8  C   UNL     1       0.244   1.911  24.711  0.00  0.00    +0.109 C 
ATOM      9  C   UNL     1      -0.862   2.961  24.615  0.00  0.00    +0.109 C 
ATOM     10  C   UNL     1       1.204   1.878  23.524  0.00  0.00    +0.133 C 
ATOM     11  C   UNL     1      -1.422   0.290  25.630  0.00  0.00    +0.125 C 
ATOM     12  C   UNL     1      -2.476   1.396  25.544  0.00  0.00    +0.104 C 
ATOM     13  C   UNL     1       0.368  -0.309  23.897  0.00  0.00    +0.305 C 
ENDROOT
BRANCH   6  14
ATOM     14  C   UNL     1       2.245  -0.023  22.207  0.00  0.00    +0.137 C 
BRANCH  14  16
ATOM     16  C   UNL     1       3.658   0.473  22.453  0.00  0.00    +0.178 C 
BRANCH  16   3
ATOM      3  O   UNL     1       4.330  -0.429  23.322  0.00  0.00    -0.381 OA
ATOM     20  C   UNL     1       5.554   0.118  23.796  0.00  0.00    +0.194 C 
ENDBRANCH  16   3
ENDBRANCH  14  16
ENDBRANCH   6  14
BRANCH   5  15
ATOM     15  C   UNL     1      -2.897   3.771  25.628  0.00  0.00    +0.147 C 
BRANCH  15  17
ATOM      1  S   UNL     1      -4.711   2.335  24.088  0.00  0.00    -0.079 S 
ATOM      7  N   UNL     1      -5.203   3.273  26.446  0.00  0.00    -0.251 NA
ATOM     17  C   UNL     1      -4.279   3.184  25.515  0.00  0.00    +0.092 A 
ATOM     18  C   UNL     1      -6.265   2.052  24.755  0.00  0.00    +0.066 A 
ATOM     19  C   UNL     1      -6.341   2.624  26.009  0.00  0.00    +0.119 A 
ENDBRANCH  15  17
ENDBRANCH   5  15
TORSDOF 5
ENDMDL
MODEL 3
REMARK VINA RESULT:      -2.5     18.182     19.619
REMARK  Name = 75537145
REMARK  6 active torsions:
REMARK  status: ('A' for Active; 'I' for Inactive)
REMARK    1  A    between atoms: O_3  and  C_16
REMARK    2  A    between atoms: O_3  and  C_20
REMARK    3  A    between atoms: N_5  and  C_15
REMARK    4  A    between atoms: N_6  and  C_14
REMARK    5  A    between atoms: C_14  and  C_16
REMARK    6  A    between atoms: C_15  and  C_17
REMARK                            x       y       z     vdW  Elec       q    Type
REMARK                         _______ _______ _______ _____ _____    ______ ____
ROOT
ATOM      2  O   UNL     1      17.405  -6.978  23.448  0.00  0.00    -0.252 OA
ATOM      4  N   UNL     1      17.304  -6.878  25.793  0.00  0.00    -0.278 N 
ATOM      5  N   UNL     1      16.474  -7.478  28.413  0.00  0.00    -0.293 NA
ATOM      6  N   UNL     1      17.390  -4.947  24.648  0.00  0.00    -0.281 N 
ATOM      8  C   UNL     1      17.404  -5.854  26.813  0.00  0.00    +0.109 C 
ATOM      9  C   UNL     1      16.366  -6.094  27.909  0.00  0.00    +0.109 C 
ATOM     10  C   UNL     1      17.229  -4.551  26.036  0.00  0.00    +0.133 C 
ATOM     11  C   UNL     1      17.251  -8.270  26.189  0.00  0.00    +0.125 C 
ATOM     12  C   UNL     1      16.245  -8.452  27.327  0.00  0.00    +0.104 C 
ATOM     13  C   UNL     1      17.375  -6.349  24.498  0.00  0.00    +0.305 C 
ENDROOT
BRANCH   6  14
ATOM     14  C   UNL     1      17.405  -3.981  23.571  0.00  0.00    +0.137 C 
BRANCH  14  16
ATOM     16  C   UNL     1      16.376  -2.888  23.790  0.00  0.00    +0.178 C 
BRANCH  16   3
ATOM      3  O   UNL     1      16.929  -1.636  23.403  0.00  0.00    -0.381 OA
ATOM     20  C   UNL     1      17.019  -0.742  24.505  0.00  0.00    +0.194 C 
ENDBRANCH  16   3
ENDBRANCH  14  16
ENDBRANCH   6  14
BRANCH   5  15
ATOM     15  C   UNL     1      15.525  -7.698  29.504  0.00  0.00    +0.147 C 
BRANCH  15  17
ATOM      1  S   UNL     1      16.989  -6.391  31.473  0.00  0.00    -0.079 S 
ATOM      7  N   UNL     1      14.594  -5.743  30.746  0.00  0.00    -0.251 NA
ATOM     17  C   UNL     1      15.574  -6.590  30.521  0.00  0.00    +0.092 A 
ATOM     18  C   UNL     1      16.246  -5.059  32.257  0.00  0.00    +0.066 A 
ATOM     19  C   UNL     1      14.981  -4.866  31.741  0.00  0.00    +0.119 A 
ENDBRANCH  15  17
ENDBRANCH   5  15
TORSDOF 5
ENDMDL
MODEL 4
REMARK VINA RESULT:      -2.5     17.100     19.379
REMARK  Name = 75537145
REMARK  6 active torsions:
REMARK  status: ('A' for Active; 'I' for Inactive)
REMARK    1  A    between atoms: O_3  and  C_16
REMARK    2  A    between atoms: O_3  and  C_20
REMARK    3  A    between atoms: N_5  and  C_15
REMARK    4  A    between atoms: N_6  and  C_14
REMARK    5  A    between atoms: C_14  and  C_16
REMARK    6  A    between atoms: C_15  and  C_17
REMARK                            x       y       z     vdW  Elec       q    Type
REMARK                         _______ _______ _______ _____ _____    ______ ____
ROOT
ATOM      2  O   UNL     1      16.087  -7.757  25.307  0.00  0.00    -0.252 OA
ATOM      4  N   UNL     1      16.621  -7.295  27.547  0.00  0.00    -0.278 N 
ATOM      5  N   UNL     1      16.326  -7.156  30.341  0.00  0.00    -0.293 NA
ATOM      6  N   UNL     1      17.066  -5.726  26.003  0.00  0.00    -0.281 N 
ATOM      8  C   UNL     1      17.317  -6.254  28.275  0.00  0.00    +0.109 C 
ATOM      9  C   UNL     1      16.571  -5.922  29.568  0.00  0.00    +0.109 C 
ATOM     10  C   UNL     1      17.405  -5.107  27.272  0.00  0.00    +0.133 C 
ATOM     11  C   UNL     1      16.200  -8.490  28.248  0.00  0.00    +0.125 C 
ATOM     12  C   UNL     1      15.514  -8.112  29.562  0.00  0.00    +0.104 C 
ATOM     13  C   UNL     1      16.539  -7.022  26.175  0.00  0.00    +0.305 C 
ENDROOT
BRANCH   6  14
ATOM     14  C   UNL     1      17.136  -5.002  24.752  0.00  0.00    +0.137 C 
BRANCH  14  16
ATOM     16  C   UNL     1      17.015  -3.505  24.969  0.00  0.00    +0.178 C 
BRANCH  16   3
ATOM      3  O   UNL     1      15.936  -3.002  24.191  0.00  0.00    -0.381 OA
ATOM     20  C   UNL     1      16.400  -2.190  23.120  0.00  0.00    +0.194 C 
ENDBRANCH  16   3
ENDBRANCH  14  16
ENDBRANCH   6  14
BRANCH   5  15
ATOM     15  C   UNL     1      15.667  -6.841  31.608  0.00  0.00    +0.147 C 
BRANCH  15  17
ATOM      1  S   UNL     1      13.267  -8.098  32.231  0.00  0.00    -0.079 S 
ATOM      7  N   UNL     1      13.476  -5.946  30.812  0.00  0.00    -0.251 NA
ATOM     17  C   UNL     1      14.168  -6.846  31.477  0.00  0.00    +0.092 A 
ATOM     18  C   UNL     1      11.826  -7.390  31.630  0.00  0.00    +0.066 A 
ATOM     19  C   UNL     1      12.134  -6.259  30.901  0.00  0.00    +0.119 A 
ENDBRANCH  15  17
ENDBRANCH   5  15
TORSDOF 5
ENDMDL
MODEL 5
REMARK VINA RESULT:      -2.4     15.167     17.189
REMARK  Name = 75537145
REMARK  6 active torsions:
REMARK  status: ('A' for Active; 'I' for Inactive)
REMARK    1  A    between atoms: O_3  and  C_16
REMARK    2  A    between atoms: O_3  and  C_20
REMARK    3  A    between atoms: N_5  and  C_15
REMARK    4  A    between atoms: N_6  and  C_14
REMARK    5  A    between atoms: C_14  and  C_16
REMARK    6  A    between atoms: C_15  and  C_17
REMARK                            x       y       z     vdW  Elec       q    Type
REMARK                         _______ _______ _______ _____ _____    ______ ____
ROOT
ATOM      2  O   UNL     1       8.818  -7.183  32.873  0.00  0.00    -0.252 OA
ATOM      4  N   UNL     1      10.997  -7.840  32.293  0.00  0.00    -0.278 N 
ATOM      5  N   UNL     1      13.484  -7.815  30.980  0.00  0.00    -0.293 NA
ATOM      6  N   UNL     1       9.428  -9.432  32.511  0.00  0.00    -0.281 N 
ATOM      8  C   UNL     1      11.718  -9.086  32.132  0.00  0.00    +0.109 C 
ATOM      9  C   UNL     1      12.629  -9.017  30.906  0.00  0.00    +0.109 C 
ATOM     10  C   UNL     1      10.613 -10.136  32.053  0.00  0.00    +0.133 C 
ATOM     11  C   UNL     1      11.722  -6.588  32.232  0.00  0.00    +0.125 C 
ATOM     12  C   UNL     1      12.664  -6.588  31.026  0.00  0.00    +0.104 C 
ATOM     13  C   UNL     1       9.645  -8.042  32.599  0.00  0.00    +0.305 C 
ENDROOT
BRANCH   6  14
ATOM     14  C   UNL     1       8.160 -10.103  32.696  0.00  0.00    +0.137 C 
BRANCH  14  16
ATOM     16  C   UNL     1       7.518 -10.455  31.367  0.00  0.00    +0.178 C 
BRANCH  16   3
ATOM      3  O   UNL     1       7.337  -9.270  30.602  0.00  0.00    -0.381 OA
ATOM     20  C   UNL     1       6.220  -8.519  31.059  0.00  0.00    +0.194 C 
ENDBRANCH  16   3
ENDBRANCH  14  16
ENDBRANCH   6  14
BRANCH   5  15
ATOM     15  C   UNL     1      14.402  -7.773  29.842  0.00  0.00    +0.147 C 
BRANCH  15  17
ATOM      1  S   UNL     1      16.123  -6.518  31.628  0.00  0.00    -0.079 S 
ATOM      7  N   UNL     1      16.039  -6.045  29.087  0.00  0.00    -0.251 NA
ATOM     17  C   UNL     1      15.503  -6.767  30.046  0.00  0.00    +0.092 A 
ATOM     18  C   UNL     1      17.205  -5.349  30.993  0.00  0.00    +0.066 A 
ATOM     19  C   UNL     1      17.015  -5.233  29.631  0.00  0.00    +0.119 A 
ENDBRANCH  15  17
ENDBRANCH   5  15
TORSDOF 5
ENDMDL
MODEL 6
REMARK VINA RESULT:      -2.3      3.395      7.440
REMARK  Name = 75537145
REMARK  6 active torsions:
REMARK  status: ('A' for Active; 'I' for Inactive)
REMARK    1  A    between atoms: O_3  and  C_16
REMARK    2  A    between atoms: O_3  and  C_20
REMARK    3  A    between atoms: N_5  and  C_15
REMARK    4  A    between atoms: N_6  and  C_14
REMARK    5  A    between atoms: C_14  and  C_16
REMARK    6  A    between atoms: C_15  and  C_17
REMARK                            x       y       z     vdW  Elec       q    Type
REMARK                         _______ _______ _______ _____ _____    ______ ____
ROOT
ATOM      2  O   UNL     1       1.180  -0.985  22.421  0.00  0.00    -0.252 OA
ATOM      4  N   UNL     1      -0.434  -0.434  24.036  0.00  0.00    -0.278 N 
ATOM      5  N   UNL     1      -2.969  -0.126  25.216  0.00  0.00    -0.293 NA
ATOM      6  N   UNL     1       1.236   1.020  23.662  0.00  0.00    -0.281 N 
ATOM      8  C   UNL     1      -0.625   0.604  25.029  0.00  0.00    +0.109 C 
ATOM      9  C   UNL     1      -2.087   1.048  25.058  0.00  0.00    +0.109 C 
ATOM     10  C   UNL     1       0.369   1.688  24.617  0.00  0.00    +0.133 C 
ATOM     11  C   UNL     1      -1.340  -1.563  24.008  0.00  0.00    +0.125 C 
ATOM     12  C   UNL     1      -2.787  -1.074  24.098  0.00  0.00    +0.104 C 
ATOM     13  C   UNL     1       0.721  -0.232  23.270  0.00  0.00    +0.305 C 
ENDROOT
BRANCH   6  14
ATOM     14  C   UNL     1       2.400   1.670  23.099  0.00  0.00    +0.137 C 
BRANCH  14  16
ATOM     16  C   UNL     1       3.473   0.664  22.727  0.00  0.00    +0.178 C 
BRANCH  16   3
ATOM      3  O   UNL     1       4.675   0.978  23.420  0.00  0.00    -0.381 OA
ATOM     20  C   UNL     1       5.423  -0.192  23.722  0.00  0.00    +0.194 C 
ENDBRANCH  16   3
ENDBRANCH  14  16
ENDBRANCH   6  14
BRANCH   5  15
ATOM     15  C   UNL     1      -4.367   0.295  25.305  0.00  0.00    +0.147 C 
BRANCH  15  17
ATOM      1  S   UNL     1      -3.845   2.510  23.708  0.00  0.00    -0.079 S 
ATOM      7  N   UNL     1      -5.140   2.582  25.945  0.00  0.00    -0.251 NA
ATOM     17  C   UNL     1      -4.518   1.780  25.108  0.00  0.00    +0.092 A 
ATOM     18  C   UNL     1      -4.427   4.029  24.249  0.00  0.00    +0.066 A 
ATOM     19  C   UNL     1      -5.086   3.871  25.451  0.00  0.00    +0.119 A 
ENDBRANCH  15  17
ENDBRANCH   5  15
TORSDOF 5
ENDMDL
MODEL 7
REMARK VINA RESULT:      -2.1      2.986      4.765
REMARK  Name = 75537145
REMARK  6 active torsions:
REMARK  status: ('A' for Active; 'I' for Inactive)
REMARK    1  A    between atoms: O_3  and  C_16
REMARK    2  A    between atoms: O_3  and  C_20
REMARK    3  A    between atoms: N_5  and  C_15
REMARK    4  A    between atoms: N_6  and  C_14
REMARK    5  A    between atoms: C_14  and  C_16
REMARK    6  A    between atoms: C_15  and  C_17
REMARK                            x       y       z     vdW  Elec       q    Type
REMARK                         _______ _______ _______ _____ _____    ______ ____
ROOT
ATOM      2  O   UNL     1       0.027   3.950  23.224  0.00  0.00    -0.252 OA
ATOM      4  N   UNL     1      -0.003   1.950  24.457  0.00  0.00    -0.278 N 
ATOM      5  N   UNL     1      -0.201  -0.806  24.985  0.00  0.00    -0.293 NA
ATOM      6  N   UNL     1      -1.117   3.721  25.274  0.00  0.00    -0.281 N 
ATOM      8  C   UNL     1      -0.473   1.517  25.756  0.00  0.00    +0.109 C 
ATOM      9  C   UNL     1      -1.122   0.136  25.653  0.00  0.00    +0.109 C 
ATOM     10  C   UNL     1      -1.414   2.637  26.195  0.00  0.00    +0.133 C 
ATOM     11  C   UNL     1       0.787   1.044  23.650  0.00  0.00    +0.125 C 
ATOM     12  C   UNL     1       0.132  -0.339  23.624  0.00  0.00    +0.104 C 
ATOM     13  C   UNL     1      -0.316   3.291  24.197  0.00  0.00    +0.305 C 
ENDROOT
BRANCH   6  14
ATOM     14  C   UNL     1      -1.720   5.029  25.410  0.00  0.00    +0.137 C 
BRANCH  14  16
ATOM     16  C   UNL     1      -3.180   4.930  25.813  0.00  0.00    +0.178 C 
BRANCH  16   3
ATOM      3  O   UNL     1      -3.891   4.189  24.830  0.00  0.00    -0.381 OA
ATOM     20  C   UNL     1      -4.957   3.445  25.407  0.00  0.00    +0.194 C 
ENDBRANCH  16   3
ENDBRANCH  14  16
ENDBRANCH   6  14
BRANCH   5  15
ATOM     15  C   UNL     1      -0.789  -2.144  24.935  0.00  0.00    +0.147 C 
BRANCH  15  17
ATOM      1  S   UNL     1      -3.032  -0.585  24.417  0.00  0.00    -0.079 S 
ATOM      7  N   UNL     1      -2.972  -3.166  24.283  0.00  0.00    -0.251 NA
ATOM     17  C   UNL     1      -2.242  -2.104  24.542  0.00  0.00    +0.092 A 
ATOM     18  C   UNL     1      -4.475  -1.399  23.976  0.00  0.00    +0.066 A 
ATOM     19  C   UNL     1      -4.252  -2.760  23.959  0.00  0.00    +0.119 A 
ENDBRANCH  15  17
ENDBRANCH   5  15
TORSDOF 5
ENDMDL
MODEL 8
REMARK VINA RESULT:      -1.9     16.128     18.176
REMARK  Name = 75537145
REMARK  6 active torsions:
REMARK  status: ('A' for Active; 'I' for Inactive)
REMARK    1  A    between atoms: O_3  and  C_16
REMARK    2  A    between atoms: O_3  and  C_20
REMARK    3  A    between atoms: N_5  and  C_15
REMARK    4  A    between atoms: N_6  and  C_14
REMARK    5  A    between atoms: C_14  and  C_16
REMARK    6  A    between atoms: C_15  and  C_17
REMARK                            x       y       z     vdW  Elec       q    Type
REMARK                         _______ _______ _______ _____ _____    ______ ____
ROOT
ATOM      2  O   UNL     1      11.780  -5.890  30.713  0.00  0.00    -0.252 OA
ATOM      4  N   UNL     1      13.708  -7.231  30.768  0.00  0.00    -0.278 N 
ATOM      5  N   UNL     1      15.889  -8.733  29.818  0.00  0.00    -0.293 NA
ATOM      6  N   UNL     1      12.014  -7.748  32.148  0.00  0.00    -0.281 N 
ATOM      8  C   UNL     1      14.218  -8.318  31.578  0.00  0.00    +0.109 C 
ATOM      9  C   UNL     1      14.886  -9.371  30.694  0.00  0.00    +0.109 C 
ATOM     10  C   UNL     1      12.990  -8.806  32.344  0.00  0.00    +0.133 C 
ATOM     11  C   UNL     1      14.566  -6.629  29.769  0.00  0.00    +0.125 C 
ATOM     12  C   UNL     1      15.258  -7.719  28.948  0.00  0.00    +0.104 C 
ATOM     13  C   UNL     1      12.422  -6.833  31.156  0.00  0.00    +0.305 C 
ENDROOT
BRANCH   6  14
ATOM     14  C   UNL     1      10.726  -7.762  32.807  0.00  0.00    +0.137 C 
BRANCH  14  16
ATOM     16  C   UNL     1       9.762  -8.715  32.124  0.00  0.00    +0.178 C 
BRANCH  16   3
ATOM      3  O   UNL     1       8.433  -8.234  32.281  0.00  0.00    -0.381 OA
ATOM     20  C   UNL     1       7.495  -9.064  31.608  0.00  0.00    +0.194 C 
ENDBRANCH  16   3
ENDBRANCH  14  16
ENDBRANCH   6  14
BRANCH   5  15
ATOM     15  C   UNL     1      16.576  -9.741  29.012  0.00  0.00    +0.147 C 
BRANCH  15  17
ATOM      1  S   UNL     1      16.441  -9.257  26.278  0.00  0.00    -0.079 S 
ATOM      7  N   UNL     1      14.803 -10.771  27.586  0.00  0.00    -0.251 NA
ATOM     17  C   UNL     1      15.862 -10.001  27.712  0.00  0.00    +0.092 A 
ATOM     18  C   UNL     1      15.181 -10.021  25.402  0.00  0.00    +0.066 A 
ATOM     19  C   UNL     1      14.414 -10.781  26.261  0.00  0.00    +0.119 A 
ENDBRANCH  15  17
ENDBRANCH   5  15
TORSDOF 5
ENDMDL
MODEL 9
REMARK VINA RESULT:      -1.9      3.596      5.103
REMARK  Name = 75537145
REMARK  6 active torsions:
REMARK  status: ('A' for Active; 'I' for Inactive)
REMARK    1  A    between atoms: O_3  and  C_16
REMARK    2  A    between atoms: O_3  and  C_20
REMARK    3  A    between atoms: N_5  and  C_15
REMARK    4  A    between atoms: N_6  and  C_14
REMARK    5  A    between atoms: C_14  and  C_16
REMARK    6  A    between atoms: C_15  and  C_17
REMARK                            x       y       z     vdW  Elec       q    Type
REMARK                         _______ _______ _______ _____ _____    ______ ____
ROOT
ATOM      2  O   UNL     1      -4.435   4.362  26.258  0.00  0.00    -0.252 OA
ATOM      4  N   UNL     1      -4.430   2.475  24.858  0.00  0.00    -0.278 N 
ATOM      5  N   UNL     1      -4.558  -0.230  24.098  0.00  0.00    -0.293 NA
ATOM      6  N   UNL     1      -2.879   4.062  24.510  0.00  0.00    -0.281 N 
ATOM      8  C   UNL     1      -3.734   2.049  23.661  0.00  0.00    +0.109 C 
ATOM      9  C   UNL     1      -3.363   0.569  23.762  0.00  0.00    +0.109 C 
ATOM     10  C   UNL     1      -2.547   3.005  23.571  0.00  0.00    +0.133 C 
ATOM     11  C   UNL     1      -5.528   1.678  25.361  0.00  0.00    +0.125 C 
ATOM     12  C   UNL     1      -5.132   0.200  25.389  0.00  0.00    +0.104 C 
ATOM     13  C   UNL     1      -3.977   3.716  25.324  0.00  0.00    +0.305 C 
ENDROOT
BRANCH   6  14
ATOM     14  C   UNL     1      -2.057   5.244  24.656  0.00  0.00    +0.137 C 
BRANCH  14  16
ATOM     16  C   UNL     1      -0.611   4.884  24.941  0.00  0.00    +0.178 C 
BRANCH  16   3
ATOM      3  O   UNL     1      -0.565   3.842  25.907  0.00  0.00    -0.381 OA
ATOM     20  C   UNL     1       0.202   2.737  25.446  0.00  0.00    +0.194 C 
ENDBRANCH  16   3
ENDBRANCH  14  16
ENDBRANCH   6  14
BRANCH   5  15
ATOM     15  C   UNL     1      -4.225  -1.653  24.136  0.00  0.00    +0.147 C 
BRANCH  15  17
ATOM      1  S   UNL     1      -2.077  -0.883  25.723  0.00  0.00    -0.079 S 
ATOM      7  N   UNL     1      -2.016  -2.808  23.999  0.00  0.00    -0.251 NA
ATOM     17  C   UNL     1      -2.788  -1.882  24.522  0.00  0.00    +0.092 A 
ATOM     18  C   UNL     1      -0.609  -1.751  25.542  0.00  0.00    +0.066 A 
ATOM     19  C   UNL     1      -0.767  -2.732  24.584  0.00  0.00    +0.119 A 
ENDBRANCH  15  17
ENDBRANCH   5  15
TORSDOF 5
ENDMDL
MODEL 10
REMARK VINA RESULT:      -1.6     17.218     18.662
REMARK  Name = 75537145
REMARK  6 active torsions:
REMARK  status: ('A' for Active; 'I' for Inactive)
REMARK    1  A    between atoms: O_3  and  C_16
REMARK    2  A    between atoms: O_3  and  C_20
REMARK    3  A    between atoms: N_5  and  C_15
REMARK    4  A    between atoms: N_6  and  C_14
REMARK    5  A    between atoms: C_14  and  C_16
REMARK    6  A    between atoms: C_15  and  C_17
REMARK                            x       y       z     vdW  Elec       q    Type
REMARK                         _______ _______ _______ _____ _____    ______ ____
ROOT
ATOM      2  O   UNL     1      13.811  -4.597  32.151  0.00  0.00    -0.252 OA
ATOM      4  N   UNL     1      15.213  -5.991  30.883  0.00  0.00    -0.278 N 
ATOM      5  N   UNL     1      16.825  -6.845  28.741  0.00  0.00    -0.293 NA
ATOM      6  N   UNL     1      13.412  -6.904  31.865  0.00  0.00    -0.281 N 
ATOM      8  C   UNL     1      15.333  -7.410  30.617  0.00  0.00    +0.109 C 
ATOM      9  C   UNL     1      15.652  -7.648  29.141  0.00  0.00    +0.109 C 
ATOM     10  C   UNL     1      13.997  -7.981  31.086  0.00  0.00    +0.133 C 
ATOM     11  C   UNL     1      16.239  -5.090  30.402  0.00  0.00    +0.125 C 
ATOM     12  C   UNL     1      16.568  -5.404  28.941  0.00  0.00    +0.104 C 
ATOM     13  C   UNL     1      14.111  -5.692  31.695  0.00  0.00    +0.305 C 
ENDROOT
BRANCH   6  14
ATOM     14  C   UNL     1      12.172  -7.070  32.592  0.00  0.00    +0.137 C 
BRANCH  14  16
ATOM     16  C   UNL     1      11.023  -7.411  31.661  0.00  0.00    +0.178 C 
BRANCH  16   3
ATOM      3  O   UNL     1      10.169  -8.357  32.293  0.00  0.00    -0.381 OA
ATOM     20  C   UNL     1      10.635  -9.687  32.106  0.00  0.00    +0.194 C 
ENDBRANCH  16   3
ENDBRANCH  14  16
ENDBRANCH   6  14
BRANCH   5  15
ATOM     15  C   UNL     1      17.175  -7.112  27.347  0.00  0.00    +0.147 C 
BRANCH  15  17
ATOM      1  S   UNL     1      17.405  -9.882  27.291  0.00  0.00    -0.079 S 
ATOM      7  N   UNL     1      15.524  -8.539  26.132  0.00  0.00    -0.251 NA
ATOM     17  C   UNL     1      16.607  -8.422  26.868  0.00  0.00    +0.092 A 
ATOM     18  C   UNL     1      16.211 -10.757  26.426  0.00  0.00    +0.066 A 
ATOM     19  C   UNL     1      15.298  -9.878  25.880  0.00  0.00    +0.119 A 
ENDBRANCH  15  17
ENDBRANCH   5  15
TORSDOF 5
ENDMDL
