MODEL 1
REMARK VINA RESULT:      -0.7      0.000      0.000
REMARK  Name = 25313080
REMARK  9 active torsions:
REMARK  status: ('A' for Active; 'I' for Inactive)
REMARK    1  A    between atoms: O_2  and  C_20
REMARK    2  A    between atoms: N_5  and  C_13
REMARK    3  A    between atoms: N_6  and  C_22
REMARK    4  A    between atoms: C_7  and  C_11
REMARK    5  A    between atoms: C_8  and  C_14
REMARK    6  A    between atoms: C_11  and  C_13
REMARK    7  A    between atoms: C_14  and  C_20
REMARK    8  A    between atoms: C_17  and  C_21
REMARK    9  A    between atoms: C_21  and  C_23
REMARK                            x       y       z     vdW  Elec       q    Type
REMARK                         _______ _______ _______ _____ _____    ______ ____
ROOT
ATOM      1  O   UNL     1      -6.574   1.214  26.416  0.00  0.00    -0.275 OA
ATOM      4  N   UNL     1      -5.164   2.542  25.134  0.00  0.00    -0.301 N 
ATOM      7  C   UNL     1      -2.919   3.108  24.232  0.00  0.00    +0.011 C 
ATOM      8  C   UNL     1      -2.836   4.261  25.264  0.00  0.00    +0.006 C 
ATOM      9  C   UNL     1      -4.392   2.799  23.911  0.00  0.00    +0.111 C 
ATOM     10  C   UNL     1      -3.698   3.973  26.504  0.00  0.00    +0.023 C 
ATOM     12  C   UNL     1      -5.133   3.626  26.115  0.00  0.00    +0.108 C 
ATOM     17  C   UNL     1      -5.913   1.393  25.391  0.00  0.00    +0.220 C 
ENDROOT
BRANCH   7  11
ATOM     11  C   UNL     1      -2.189   1.831  24.665  0.00  0.00    +0.020 C 
BRANCH  11  13
ATOM     13  C   UNL     1      -1.998   0.888  23.485  0.00  0.00    +0.085 C 
BRANCH  13   5
ATOM      5  N   UNL     1      -0.585   0.842  23.110  0.00  0.00    -0.299 NA
ATOM      6  N   UNL     1       2.167   0.133  23.397  0.00  0.00    -0.327 N 
ATOM     15  C   UNL     1      -0.150  -0.546  22.911  0.00  0.00    +0.103 C 
ATOM     16  C   UNL     1       0.242   1.482  24.139  0.00  0.00    +0.103 C 
ATOM     18  C   UNL     1       1.312  -0.606  22.463  0.00  0.00    +0.120 C 
ATOM     19  C   UNL     1       1.717   1.491  23.731  0.00  0.00    +0.120 C 
BRANCH   6  22
ATOM     22  C   UNL     1       3.540  -0.133  23.441  0.00  0.00    +0.030 A 
ATOM     24  C   UNL     1       3.993  -1.389  23.843  0.00  0.00    +0.023 A 
ATOM     25  C   UNL     1       4.455   0.858  23.085  0.00  0.00    +0.023 A 
ATOM     28  C   UNL     1       5.362  -1.655  23.888  0.00  0.00    +0.002 A 
ATOM     29  C   UNL     1       5.824   0.592  23.131  0.00  0.00    +0.002 A 
ATOM     30  C   UNL     1       6.277  -0.664  23.532  0.00  0.00    +0.000 A 
ENDBRANCH   6  22
ENDBRANCH  13   5
ENDBRANCH  11  13
ENDBRANCH   7  11
BRANCH   8  14
ATOM     14  C   UNL     1      -1.403   4.602  25.670  0.00  0.00    +0.124 C 
BRANCH  14  20
ATOM      3  O   UNL     1       0.116   4.695  23.767  0.00  0.00    -0.251 OA
ATOM     20  C   UNL     1      -0.645   5.250  24.545  0.00  0.00    +0.305 C 
BRANCH  20   2
ATOM      2  O   UNL     1      -0.928   6.577  24.507  0.00  0.00    -0.481 OA
ATOM     34  H   UNL     1      -1.738   6.792  25.015  0.00  0.00    +0.295 HD
ENDBRANCH  20   2
ENDBRANCH  14  20
ENDBRANCH   8  14
BRANCH  17  21
ATOM     21  C   UNL     1      -5.891   0.322  24.331  0.00  0.00    +0.131 C 
BRANCH  21  23
ATOM     23  C   UNL     1      -4.810  -0.675  24.611  0.00  0.00    -0.039 A 
ATOM     26  C   UNL     1      -4.570  -1.714  23.712  0.00  0.00    +0.004 A 
ATOM     27  C   UNL     1      -4.043  -0.566  25.771  0.00  0.00    +0.004 A 
ATOM     31  C   UNL     1      -3.563  -2.644  23.973  0.00  0.00    +0.000 A 
ATOM     32  C   UNL     1      -3.036  -1.495  26.032  0.00  0.00    +0.000 A 
ATOM     33  C   UNL     1      -2.796  -2.534  25.133  0.00  0.00    +0.000 A 
ENDBRANCH  21  23
ENDBRANCH  17  21
TORSDOF 9
ENDMDL
MODEL 2
REMARK VINA RESULT:       2.1     14.419     17.390
REMARK  Name = 25313080
REMARK  9 active torsions:
REMARK  status: ('A' for Active; 'I' for Inactive)
REMARK    1  A    between atoms: O_2  and  C_20
REMARK    2  A    between atoms: N_5  and  C_13
REMARK    3  A    between atoms: N_6  and  C_22
REMARK    4  A    between atoms: C_7  and  C_11
REMARK    5  A    between atoms: C_8  and  C_14
REMARK    6  A    between atoms: C_11  and  C_13
REMARK    7  A    between atoms: C_14  and  C_20
REMARK    8  A    between atoms: C_17  and  C_21
REMARK    9  A    between atoms: C_21  and  C_23
REMARK                            x       y       z     vdW  Elec       q    Type
REMARK                         _______ _______ _______ _____ _____    ______ ____
ROOT
ATOM      1  O   UNL     1      -6.706  -7.703  10.337  0.00  0.00    -0.275 OA
ATOM      4  N   UNL     1      -4.610  -8.567   9.828  0.00  0.00    -0.301 N 
ATOM      7  C   UNL     1      -2.648  -9.996  10.362  0.00  0.00    +0.011 C 
ATOM      8  C   UNL     1      -1.870  -8.715  10.756  0.00  0.00    +0.006 C 
ATOM      9  C   UNL     1      -3.744  -9.647   9.338  0.00  0.00    +0.111 C 
ATOM     10  C   UNL     1      -2.819  -7.595  11.215  0.00  0.00    +0.023 C 
ATOM     12  C   UNL     1      -3.909  -7.332  10.179  0.00  0.00    +0.108 C 
ATOM     17  C   UNL     1      -5.999  -8.635   9.947  0.00  0.00    +0.220 C 
ENDROOT
BRANCH   7  11
ATOM     11  C   UNL     1      -3.253 -10.749  11.553  0.00  0.00    +0.020 C 
BRANCH  11  13
ATOM     13  C   UNL     1      -2.585 -10.332  12.855  0.00  0.00    +0.085 C 
BRANCH  13   5
ATOM      5  N   UNL     1      -3.398 -10.765  13.991  0.00  0.00    -0.299 NA
ATOM      6  N   UNL     1      -5.047 -10.422  16.298  0.00  0.00    -0.327 N 
ATOM     15  C   UNL     1      -4.775 -10.275  13.854  0.00  0.00    +0.103 C 
ATOM     16  C   UNL     1      -2.819 -10.284  15.251  0.00  0.00    +0.103 C 
ATOM     18  C   UNL     1      -5.652 -10.767  15.009  0.00  0.00    +0.120 C 
ATOM     19  C   UNL     1      -3.630 -10.778  16.452  0.00  0.00    +0.120 C 
BRANCH   6  22
ATOM     22  C   UNL     1      -5.842 -10.379  17.449  0.00  0.00    +0.030 A 
ATOM     24  C   UNL     1      -5.313 -10.777  18.676  0.00  0.00    +0.023 A 
ATOM     25  C   UNL     1      -7.163  -9.939  17.369  0.00  0.00    +0.023 A 
ATOM     28  C   UNL     1      -6.105 -10.736  19.824  0.00  0.00    +0.002 A 
ATOM     29  C   UNL     1      -7.955  -9.897  18.516  0.00  0.00    +0.002 A 
ATOM     30  C   UNL     1      -7.427 -10.295  19.743  0.00  0.00    +0.000 A 
ENDBRANCH   6  22
ENDBRANCH  13   5
ENDBRANCH  11  13
ENDBRANCH   7  11
BRANCH   8  14
ATOM     14  C   UNL     1      -0.788  -8.969  11.806  0.00  0.00    +0.124 C 
BRANCH  14  20
ATOM      3  O   UNL     1       0.942  -7.269  12.050  0.00  0.00    -0.251 OA
ATOM     20  C   UNL     1       0.488  -8.246  11.474  0.00  0.00    +0.305 C 
BRANCH  20   2
ATOM      2  O   UNL     1       1.091  -8.845  10.415  0.00  0.00    -0.481 OA
ATOM     34  H   UNL     1       0.607  -9.647  10.124  0.00  0.00    +0.295 HD
ENDBRANCH  20   2
ENDBRANCH  14  20
ENDBRANCH   8  14
BRANCH  17  21
ATOM     21  C   UNL     1      -6.645  -9.943   9.568  0.00  0.00    +0.131 C 
BRANCH  21  23
ATOM     23  C   UNL     1      -8.064  -9.987  10.043  0.00  0.00    -0.039 A 
ATOM     26  C   UNL     1      -9.102  -9.665   9.168  0.00  0.00    +0.004 A 
ATOM     27  C   UNL     1      -8.349 -10.350  11.359  0.00  0.00    +0.004 A 
ATOM     31  C   UNL     1     -10.425  -9.706   9.610  0.00  0.00    +0.000 A 
ATOM     32  C   UNL     1      -9.672 -10.390  11.801  0.00  0.00    +0.000 A 
ATOM     33  C   UNL     1     -10.709 -10.069  10.926  0.00  0.00    +0.000 A 
ENDBRANCH  21  23
ENDBRANCH  17  21
TORSDOF 9
ENDMDL
MODEL 3
REMARK VINA RESULT:       2.8     15.029     18.097
REMARK  Name = 25313080
REMARK  9 active torsions:
REMARK  status: ('A' for Active; 'I' for Inactive)
REMARK    1  A    between atoms: O_2  and  C_20
REMARK    2  A    between atoms: N_5  and  C_13
REMARK    3  A    between atoms: N_6  and  C_22
REMARK    4  A    between atoms: C_7  and  C_11
REMARK    5  A    between atoms: C_8  and  C_14
REMARK    6  A    between atoms: C_11  and  C_13
REMARK    7  A    between atoms: C_14  and  C_20
REMARK    8  A    between atoms: C_17  and  C_21
REMARK    9  A    between atoms: C_21  and  C_23
REMARK                            x       y       z     vdW  Elec       q    Type
REMARK                         _______ _______ _______ _____ _____    ______ ____
ROOT
ATOM      1  O   UNL     1      -7.044  -7.584   9.948  0.00  0.00    -0.275 OA
ATOM      4  N   UNL     1      -4.874  -8.276   9.490  0.00  0.00    -0.301 N 
ATOM      7  C   UNL     1      -2.922  -9.759   9.900  0.00  0.00    +0.011 C 
ATOM      8  C   UNL     1      -2.241  -8.591  10.656  0.00  0.00    +0.006 C 
ATOM      9  C   UNL     1      -3.919  -9.202   8.867  0.00  0.00    +0.111 C 
ATOM     10  C   UNL     1      -3.276  -7.620  11.248  0.00  0.00    +0.023 C 
ATOM     12  C   UNL     1      -4.262  -7.144  10.185  0.00  0.00    +0.108 C 
ATOM     17  C   UNL     1      -6.263  -8.391   9.438  0.00  0.00    +0.220 C 
ENDROOT
BRANCH   7  11
ATOM     11  C   UNL     1      -3.617 -10.774  10.816  0.00  0.00    +0.020 C 
BRANCH  11  13
ATOM     13  C   UNL     1      -3.268 -10.515  12.275  0.00  0.00    +0.085 C 
BRANCH  13   5
ATOM      5  N   UNL     1      -4.444 -10.747  13.115  0.00  0.00    -0.299 NA
ATOM      6  N   UNL     1      -6.600 -10.018  14.840  0.00  0.00    -0.327 N 
ATOM     15  C   UNL     1      -5.605 -10.020  12.587  0.00  0.00    +0.103 C 
ATOM     16  C   UNL     1      -4.179 -10.329  14.497  0.00  0.00    +0.103 C 
ATOM     18  C   UNL     1      -6.856 -10.299  13.424  0.00  0.00    +0.120 C 
ATOM     19  C   UNL     1      -5.382 -10.620  15.398  0.00  0.00    +0.120 C 
BRANCH   6  22
ATOM     22  C   UNL     1      -7.674  -9.785  15.707  0.00  0.00    +0.030 A 
ATOM     24  C   UNL     1      -8.754 -10.667  15.730  0.00  0.00    +0.023 A 
ATOM     25  C   UNL     1      -7.664  -8.671  16.547  0.00  0.00    +0.023 A 
ATOM     28  C   UNL     1      -9.825 -10.435  16.593  0.00  0.00    +0.002 A 
ATOM     29  C   UNL     1      -8.735  -8.439  17.409  0.00  0.00    +0.002 A 
ATOM     30  C   UNL     1      -9.816  -9.321  17.433  0.00  0.00    +0.000 A 
ENDBRANCH   6  22
ENDBRANCH  13   5
ENDBRANCH  11  13
ENDBRANCH   7  11
BRANCH   8  14
ATOM     14  C   UNL     1      -1.264  -9.061  11.734  0.00  0.00    +0.124 C 
BRANCH  14  20
ATOM      3  O   UNL     1       0.793  -8.705  10.476  0.00  0.00    -0.251 OA
ATOM     20  C   UNL     1       0.127  -8.545  11.487  0.00  0.00    +0.305 C 
BRANCH  20   2
ATOM      2  O   UNL     1       0.557  -7.854  12.573  0.00  0.00    -0.481 OA
ATOM     34  H   UNL     1       0.626  -6.892  12.391  0.00  0.00    +0.295 HD
ENDBRANCH  20   2
ENDBRANCH  14  20
ENDBRANCH   8  14
BRANCH  17  21
ATOM     21  C   UNL     1      -6.815  -9.588   8.705  0.00  0.00    +0.131 C 
BRANCH  21  23
ATOM     23  C   UNL     1      -8.176  -9.939   9.219  0.00  0.00    -0.039 A 
ATOM     26  C   UNL     1      -8.455  -9.834  10.582  0.00  0.00    +0.004 A 
ATOM     27  C   UNL     1      -9.165 -10.372   8.336  0.00  0.00    +0.004 A 
ATOM     31  C   UNL     1      -9.723 -10.161  11.062  0.00  0.00    +0.000 A 
ATOM     32  C   UNL     1     -10.434 -10.699   8.816  0.00  0.00    +0.000 A 
ATOM     33  C   UNL     1     -10.713 -10.594  10.178  0.00  0.00    +0.000 A 
ENDBRANCH  21  23
ENDBRANCH  17  21
TORSDOF 9
ENDMDL
MODEL 4
REMARK VINA RESULT:       2.9      1.766      4.528
REMARK  Name = 25313080
REMARK  9 active torsions:
REMARK  status: ('A' for Active; 'I' for Inactive)
REMARK    1  A    between atoms: O_2  and  C_20
REMARK    2  A    between atoms: N_5  and  C_13
REMARK    3  A    between atoms: N_6  and  C_22
REMARK    4  A    between atoms: C_7  and  C_11
REMARK    5  A    between atoms: C_8  and  C_14
REMARK    6  A    between atoms: C_11  and  C_13
REMARK    7  A    between atoms: C_14  and  C_20
REMARK    8  A    between atoms: C_17  and  C_21
REMARK    9  A    between atoms: C_21  and  C_23
REMARK                            x       y       z     vdW  Elec       q    Type
REMARK                         _______ _______ _______ _____ _____    ______ ____
ROOT
ATOM      1  O   UNL     1      -5.849   4.436  25.336  0.00  0.00    -0.275 OA
ATOM      4  N   UNL     1      -5.163   2.260  25.770  0.00  0.00    -0.301 N 
ATOM      7  C   UNL     1      -3.579   0.368  25.472  0.00  0.00    +0.011 C 
ATOM      8  C   UNL     1      -4.607  -0.295  24.521  0.00  0.00    +0.006 C 
ATOM      9  C   UNL     1      -4.306   1.291  26.467  0.00  0.00    +0.111 C 
ATOM     10  C   UNL     1      -5.516   0.751  23.853  0.00  0.00    +0.023 C 
ATOM     12  C   UNL     1      -6.167   1.664  24.889  0.00  0.00    +0.108 C 
ATOM     17  C   UNL     1      -5.099   3.646  25.913  0.00  0.00    +0.220 C 
ENDROOT
BRANCH   7  11
ATOM     11  C   UNL     1      -2.466   1.136  24.748  0.00  0.00    +0.020 C 
BRANCH  11  13
ATOM     13  C   UNL     1      -2.208   0.547  23.369  0.00  0.00    +0.085 C 
BRANCH  13   5
ATOM      5  N   UNL     1      -0.784   0.646  23.046  0.00  0.00    -0.299 NA
ATOM      6  N   UNL     1       1.999   0.071  23.326  0.00  0.00    -0.327 N 
ATOM     15  C   UNL     1      -0.253  -0.665  22.653  0.00  0.00    +0.103 C 
ATOM     16  C   UNL     1      -0.031   1.168  24.192  0.00  0.00    +0.103 C 
ATOM     18  C   UNL     1       1.222  -0.565  22.258  0.00  0.00    +0.120 C 
ATOM     19  C   UNL     1       1.451   1.330  23.847  0.00  0.00    +0.120 C 
BRANCH   6  22
ATOM     22  C   UNL     1       3.385  -0.116  23.382  0.00  0.00    +0.030 A 
ATOM     24  C   UNL     1       3.908  -1.335  23.810  0.00  0.00    +0.023 A 
ATOM     25  C   UNL     1       4.244   0.919  23.009  0.00  0.00    +0.023 A 
ATOM     28  C   UNL     1       5.289  -1.521  23.867  0.00  0.00    +0.002 A 
ATOM     29  C   UNL     1       5.625   0.734  23.066  0.00  0.00    +0.002 A 
ATOM     30  C   UNL     1       6.148  -0.486  23.495  0.00  0.00    +0.000 A 
ENDBRANCH   6  22
ENDBRANCH  13   5
ENDBRANCH  11  13
ENDBRANCH   7  11
BRANCH   8  14
ATOM     14  C   UNL     1      -3.961  -1.197  23.471  0.00  0.00    +0.124 C 
BRANCH  14  20
ATOM      3  O   UNL     1      -2.317  -2.604  24.593  0.00  0.00    -0.251 OA
ATOM     20  C   UNL     1      -3.417  -2.459  24.081  0.00  0.00    +0.305 C 
BRANCH  20   2
ATOM      2  O   UNL     1      -4.341  -3.449  23.984  0.00  0.00    -0.481 OA
ATOM     34  H   UNL     1      -5.122  -3.277  24.552  0.00  0.00    +0.295 HD
ENDBRANCH  20   2
ENDBRANCH  14  20
ENDBRANCH   8  14
BRANCH  17  21
ATOM     21  C   UNL     1      -4.034   4.180  26.838  0.00  0.00    +0.131 C 
BRANCH  21  23
ATOM     23  C   UNL     1      -2.748   4.382  26.100  0.00  0.00    -0.039 A 
ATOM     26  C   UNL     1      -2.641   5.397  25.149  0.00  0.00    +0.004 A 
ATOM     27  C   UNL     1      -1.655   3.556  26.363  0.00  0.00    +0.004 A 
ATOM     31  C   UNL     1      -1.442   5.586  24.461  0.00  0.00    +0.000 A 
ATOM     32  C   UNL     1      -0.456   3.745  25.675  0.00  0.00    +0.000 A 
ATOM     33  C   UNL     1      -0.350   4.760  24.724  0.00  0.00    +0.000 A 
ENDBRANCH  21  23
ENDBRANCH  17  21
TORSDOF 9
ENDMDL
MODEL 5
REMARK VINA RESULT:       3.1      1.967      4.285
REMARK  Name = 25313080
REMARK  9 active torsions:
REMARK  status: ('A' for Active; 'I' for Inactive)
REMARK    1  A    between atoms: O_2  and  C_20
REMARK    2  A    between atoms: N_5  and  C_13
REMARK    3  A    between atoms: N_6  and  C_22
REMARK    4  A    between atoms: C_7  and  C_11
REMARK    5  A    between atoms: C_8  and  C_14
REMARK    6  A    between atoms: C_11  and  C_13
REMARK    7  A    between atoms: C_14  and  C_20
REMARK    8  A    between atoms: C_17  and  C_21
REMARK    9  A    between atoms: C_21  and  C_23
REMARK                            x       y       z     vdW  Elec       q    Type
REMARK                         _______ _______ _______ _____ _____    ______ ____
ROOT
ATOM      1  O   UNL     1      -6.781   1.960  24.065  0.00  0.00    -0.275 OA
ATOM      4  N   UNL     1      -5.281   0.567  25.162  0.00  0.00    -0.301 N 
ATOM      7  C   UNL     1      -2.966  -0.159  25.700  0.00  0.00    +0.011 C 
ATOM      8  C   UNL     1      -3.157  -1.356  24.736  0.00  0.00    +0.006 C 
ATOM      9  C   UNL     1      -4.331   0.294  26.249  0.00  0.00    +0.111 C 
ATOM     10  C   UNL     1      -4.196  -1.045  23.645  0.00  0.00    +0.023 C 
ATOM     12  C   UNL     1      -5.509  -0.555  24.253  0.00  0.00    +0.108 C 
ATOM     17  C   UNL     1      -5.968   1.766  24.972  0.00  0.00    +0.220 C 
ENDROOT
BRANCH   7  11
ATOM     11  C   UNL     1      -2.222   1.030  25.077  0.00  0.00    +0.020 C 
BRANCH  11  13
ATOM     13  C   UNL     1      -2.075   0.850  23.573  0.00  0.00    +0.085 C 
BRANCH  13   5
ATOM      5  N   UNL     1      -0.660   0.910  23.202  0.00  0.00    -0.299 NA
ATOM      6  N   UNL     1       2.105   0.210  23.347  0.00  0.00    -0.327 N 
ATOM     15  C   UNL     1      -0.199  -0.397  22.721  0.00  0.00    +0.103 C 
ATOM     16  C   UNL     1       0.153   1.337  24.346  0.00  0.00    +0.103 C 
ATOM     18  C   UNL     1       1.265  -0.334  22.276  0.00  0.00    +0.120 C 
ATOM     19  C   UNL     1       1.628   1.459  23.955  0.00  0.00    +0.120 C 
BRANCH   6  22
ATOM     22  C   UNL     1       3.483  -0.034  23.340  0.00  0.00    +0.030 A 
ATOM     24  C   UNL     1       3.978  -1.246  23.821  0.00  0.00    +0.023 A 
ATOM     25  C   UNL     1       4.361   0.936  22.855  0.00  0.00    +0.023 A 
ATOM     28  C   UNL     1       5.352  -1.489  23.816  0.00  0.00    +0.002 A 
ATOM     29  C   UNL     1       5.734   0.693  22.850  0.00  0.00    +0.002 A 
ATOM     30  C   UNL     1       6.230  -0.519  23.330  0.00  0.00    +0.000 A 
ENDBRANCH   6  22
ENDBRANCH  13   5
ENDBRANCH  11  13
ENDBRANCH   7  11
BRANCH   8  14
ATOM     14  C   UNL     1      -1.849  -1.840  24.111  0.00  0.00    +0.124 C 
BRANCH  14  20
ATOM      3  O   UNL     1      -0.816  -3.574  25.479  0.00  0.00    -0.251 OA
ATOM     20  C   UNL     1      -0.913  -2.402  25.146  0.00  0.00    +0.305 C 
BRANCH  20   2
ATOM      2  O   UNL     1      -0.165  -1.402  25.677  0.00  0.00    -0.481 OA
ATOM     34  H   UNL     1       0.550  -1.117  25.069  0.00  0.00    +0.295 HD
ENDBRANCH  20   2
ENDBRANCH  14  20
ENDBRANCH   8  14
BRANCH  17  21
ATOM     21  C   UNL     1      -5.676   2.875  25.950  0.00  0.00    +0.131 C 
BRANCH  21  23
ATOM     23  C   UNL     1      -4.373   3.537  25.623  0.00  0.00    -0.039 A 
ATOM     26  C   UNL     1      -3.476   3.852  26.644  0.00  0.00    +0.004 A 
ATOM     27  C   UNL     1      -4.056   3.838  24.298  0.00  0.00    +0.004 A 
ATOM     31  C   UNL     1      -2.262   4.468  26.340  0.00  0.00    +0.000 A 
ATOM     32  C   UNL     1      -2.842   4.454  23.994  0.00  0.00    +0.000 A 
ATOM     33  C   UNL     1      -1.945   4.769  25.015  0.00  0.00    +0.000 A 
ENDBRANCH  21  23
ENDBRANCH  17  21
TORSDOF 9
ENDMDL
