MODEL 1
REMARK VINA RESULT:      -3.5      0.000      0.000
REMARK  Name = 51137794
REMARK  5 active torsions:
REMARK  status: ('A' for Active; 'I' for Inactive)
REMARK    1  A    between atoms: O_5  and  C_27
REMARK    2  A    between atoms: O_5  and  C_29
REMARK    3  A    between atoms: N_8  and  C_17
REMARK    4  A    between atoms: C_10  and  C_14
REMARK    5  A    between atoms: C_16  and  C_18
REMARK                            x       y       z     vdW  Elec       q    Type
REMARK                         _______ _______ _______ _____ _____    ______ ____
ROOT
ATOM      4  O   UNL     1      -8.653  -8.085  15.606  0.00  0.00    -0.252 OA
ATOM      6  N   UNL     1      -9.514  -9.481  14.002  0.00  0.00    -0.285 N 
ATOM      8  N   UNL     1      -8.544 -10.394  15.925  0.00  0.00    -0.267 N 
ATOM     10  C   UNL     1     -10.234  -9.063  11.773  0.00  0.00    +0.096 C 
ATOM     11  C   UNL     1     -10.712 -10.456  12.210  0.00  0.00    +0.033 C 
ATOM     12  C   UNL     1      -9.929  -8.396  13.120  0.00  0.00    +0.122 C 
ATOM     13  C   UNL     1      -9.847 -10.781  13.422  0.00  0.00    +0.110 C 
ATOM     15  C   UNL     1      -8.880  -9.234  15.225  0.00  0.00    +0.307 C 
ATOM     30  H   UNL     1      -8.758 -11.288  15.496  0.00  0.00    +0.156 HD
ENDROOT
BRANCH   8  17
ATOM      1  F   UNL     1      -5.766 -10.437  16.141  0.00  0.00    -0.203 F 
ATOM      2  F   UNL     1      -6.028 -10.781  20.852  0.00  0.00    -0.205 F 
ATOM     17  C   UNL     1      -7.900 -10.493  17.183  0.00  0.00    +0.070 A 
ATOM     19  C   UNL     1      -6.507 -10.511  17.256  0.00  0.00    +0.147 A 
ATOM     20  C   UNL     1      -8.660 -10.572  18.350  0.00  0.00    +0.029 A 
ATOM     25  C   UNL     1      -5.874 -10.608  18.496  0.00  0.00    +0.078 A 
ATOM     26  C   UNL     1      -8.028 -10.669  19.589  0.00  0.00    +0.040 A 
ATOM     28  C   UNL     1      -6.635 -10.687  19.662  0.00  0.00    +0.126 A 
ENDBRANCH   8  17
BRANCH  10  14
ATOM      3  O   UNL     1      -7.834  -9.287  11.301  0.00  0.00    -0.420 OA
ATOM      7  N   UNL     1      -9.109  -9.122   9.470  0.00  0.00    -0.112 NA
ATOM      9  N   UNL     1      -7.792  -9.242   9.065  0.00  0.00    -0.107 NA
ATOM     14  C   UNL     1      -9.085  -9.154  10.782  0.00  0.00    +0.222 A 
ATOM     16  C   UNL     1      -7.084  -9.335  10.166  0.00  0.00    +0.248 A 
BRANCH  16  18
ATOM     18  C   UNL     1      -5.670  -9.478  10.354  0.00  0.00    +0.039 A 
ATOM     21  C   UNL     1      -5.180 -10.186  11.452  0.00  0.00    +0.017 A 
ATOM     22  C   UNL     1      -4.783  -8.911   9.438  0.00  0.00    +0.017 A 
ATOM     23  C   UNL     1      -3.803 -10.326  11.633  0.00  0.00    +0.046 A 
ATOM     24  C   UNL     1      -3.408  -9.051   9.619  0.00  0.00    +0.046 A 
ATOM     27  C   UNL     1      -2.918  -9.759  10.717  0.00  0.00    +0.120 A 
BRANCH  27   5
ATOM      5  O   UNL     1      -1.575  -9.898  10.893  0.00  0.00    -0.495 OA
ATOM     29  C   UNL     1      -0.857  -8.749  11.341  0.00  0.00    +0.277 C 
ENDBRANCH  27   5
ENDBRANCH  16  18
ENDBRANCH  10  14
TORSDOF 4
ENDMDL
