MODEL 1
REMARK VINA RESULT:      -4.6      0.000      0.000
REMARK  Name = 75367034
REMARK  10 active torsions:
REMARK  status: ('A' for Active; 'I' for Inactive)
REMARK    1  A    between atoms: O_2  and  C_10
REMARK    2  A    between atoms: O_4  and  C_26
REMARK    3  A    between atoms: N_5  and  C_21
REMARK    4  A    between atoms: N_6  and  C_14
REMARK    5  A    between atoms: N_6  and  C_24
REMARK    6  A    between atoms: C_8  and  C_13
REMARK    7  A    between atoms: C_9  and  C_14
REMARK    8  A    between atoms: C_13  and  C_20
REMARK    9  A    between atoms: C_21  and  C_22
REMARK   10  A    between atoms: C_24  and  C_25
REMARK                            x       y       z     vdW  Elec       q    Type
REMARK                         _______ _______ _______ _____ _____    ______ ____
ROOT
ATOM      1  O   UNL     1      -2.578  -0.102  24.335  0.00  0.00    -0.369 OA
ATOM      8  C   UNL     1      -2.425  -0.138  25.756  0.00  0.00    +0.125 C 
ATOM      9  C   UNL     1      -3.645  -0.908  23.815  0.00  0.00    +0.161 C 
ATOM     10  C   UNL     1      -3.509  -2.369  24.263  0.00  0.00    +0.145 C 
ATOM     11  C   UNL     1      -2.171  -1.567  26.235  0.00  0.00    +0.034 C 
ATOM     12  C   UNL     1      -3.285  -2.498  25.767  0.00  0.00    +0.036 C 
ENDROOT
BRANCH  10   2
ATOM      2  O   UNL     1      -2.383  -2.951  23.603  0.00  0.00    -0.389 OA
ATOM     32  H   UNL     1      -1.880  -3.454  24.267  0.00  0.00    +0.210 HD
ENDBRANCH  10   2
BRANCH   8  13
ATOM     13  C   UNL     1      -1.256   0.771  26.114  0.00  0.00    +0.090 C 
BRANCH  13  20
ATOM      3  O   UNL     1       1.304   1.664  23.740  0.00  0.00    -0.358 OA
ATOM      7  N   UNL     1       0.475   1.946  24.819  0.00  0.00    -0.083 NA
ATOM     20  C   UNL     1      -0.238   0.831  25.007  0.00  0.00    +0.086 A 
ATOM     22  C   UNL     1       1.068   0.397  23.313  0.00  0.00    +0.151 A 
ATOM     23  C   UNL     1       0.094  -0.177  24.086  0.00  0.00    +0.072 A 
BRANCH  22  21
ATOM     21  C   UNL     1       1.864  -0.069  22.171  0.00  0.00    +0.161 C 
BRANCH  21   5
ATOM      5  N   UNL     1       3.261  -0.338  22.513  0.00  0.00    -0.295 NA
ATOM     15  C   UNL     1       3.954   0.910  22.862  0.00  0.00    +0.085 C 
ATOM     16  C   UNL     1       3.343  -1.315  23.608  0.00  0.00    +0.085 C 
ATOM     17  C   UNL     1       5.429   0.653  23.175  0.00  0.00    +0.015 C 
ATOM     18  C   UNL     1       4.797  -1.645  23.946  0.00  0.00    +0.015 C 
ATOM     19  C   UNL     1       5.588  -0.385  24.281  0.00  0.00    +0.002 C 
ENDBRANCH  21   5
ENDBRANCH  22  21
ENDBRANCH  13  20
ENDBRANCH   8  13
BRANCH   9  14
ATOM     14  C   UNL     1      -5.005  -0.303  24.154  0.00  0.00    +0.115 C 
BRANCH  14   6
ATOM      6  N   UNL     1      -4.878   0.718  25.182  0.00  0.00    -0.309 NA
ATOM     31  H   UNL     1      -5.530   0.514  25.940  0.00  0.00    +0.122 HD
BRANCH   6  24
ATOM     24  C   UNL     1      -5.150   2.042  24.640  0.00  0.00    +0.120 C 
BRANCH  24  25
ATOM     25  C   UNL     1      -3.994   2.983  24.855  0.00  0.00    +0.008 A 
ATOM     26  C   UNL     1      -2.982   3.098  23.903  0.00  0.00    +0.121 A 
ATOM     27  C   UNL     1      -3.944   3.746  26.022  0.00  0.00    +0.008 A 
ATOM     28  C   UNL     1      -1.918   3.975  24.117  0.00  0.00    +0.046 A 
ATOM     29  C   UNL     1      -2.880   4.623  26.237  0.00  0.00    +0.001 A 
ATOM     30  C   UNL     1      -1.867   4.737  25.284  0.00  0.00    +0.004 A 
BRANCH  26   4
ATOM      4  O   UNL     1      -3.014   2.360  22.758  0.00  0.00    -0.506 OA
ATOM     33  H   UNL     1      -2.518   1.536  22.896  0.00  0.00    +0.292 HD
ENDBRANCH  26   4
ENDBRANCH  24  25
ENDBRANCH   6  24
ENDBRANCH  14   6
ENDBRANCH   9  14
TORSDOF 10
ENDMDL
MODEL 2
REMARK VINA RESULT:      -4.3      1.710      6.698
REMARK  Name = 75367034
REMARK  10 active torsions:
REMARK  status: ('A' for Active; 'I' for Inactive)
REMARK    1  A    between atoms: O_2  and  C_10
REMARK    2  A    between atoms: O_4  and  C_26
REMARK    3  A    between atoms: N_5  and  C_21
REMARK    4  A    between atoms: N_6  and  C_14
REMARK    5  A    between atoms: N_6  and  C_24
REMARK    6  A    between atoms: C_8  and  C_13
REMARK    7  A    between atoms: C_9  and  C_14
REMARK    8  A    between atoms: C_13  and  C_20
REMARK    9  A    between atoms: C_21  and  C_22
REMARK   10  A    between atoms: C_24  and  C_25
REMARK                            x       y       z     vdW  Elec       q    Type
REMARK                         _______ _______ _______ _____ _____    ______ ____
ROOT
ATOM      1  O   UNL     1      -2.321   0.019  24.431  0.00  0.00    -0.369 OA
ATOM      8  C   UNL     1      -3.077  -1.098  23.954  0.00  0.00    +0.125 C 
ATOM      9  C   UNL     1      -0.906  -0.197  24.524  0.00  0.00    +0.161 C 
ATOM     10  C   UNL     1      -0.586  -1.419  25.394  0.00  0.00    +0.145 C 
ATOM     11  C   UNL     1      -2.876  -2.310  24.863  0.00  0.00    +0.034 C 
ATOM     12  C   UNL     1      -1.395  -2.649  24.990  0.00  0.00    +0.036 C 
ENDROOT
BRANCH  10   2
ATOM      2  O   UNL     1      -0.906  -1.115  26.754  0.00  0.00    -0.389 OA
ATOM     32  H   UNL     1      -1.873  -1.036  26.818  0.00  0.00    +0.210 HD
ENDBRANCH  10   2
BRANCH   8  13
ATOM     13  C   UNL     1      -4.542  -0.680  23.922  0.00  0.00    +0.090 C 
BRANCH  13  20
ATOM      3  O   UNL     1      -5.761   2.116  25.842  0.00  0.00    -0.358 OA
ATOM      7  N   UNL     1      -5.880   0.829  25.332  0.00  0.00    -0.083 NA
ATOM     20  C   UNL     1      -4.762   0.632  24.627  0.00  0.00    +0.086 A 
ATOM     22  C   UNL     1      -4.583   2.653  25.434  0.00  0.00    +0.151 A 
ATOM     23  C   UNL     1      -3.908   1.749  24.656  0.00  0.00    +0.072 A 
BRANCH  22  21
ATOM     21  C   UNL     1      -4.293   4.019  25.886  0.00  0.00    +0.161 C 
BRANCH  21   5
ATOM      5  N   UNL     1      -2.862   4.327  25.911  0.00  0.00    -0.295 NA
ATOM     15  C   UNL     1      -2.074   3.092  26.024  0.00  0.00    +0.085 C 
ATOM     16  C   UNL     1      -2.480   5.093  24.717  0.00  0.00    +0.085 C 
ATOM     17  C   UNL     1      -0.577   3.399  26.102  0.00  0.00    +0.015 C 
ATOM     18  C   UNL     1      -0.998   5.466  24.751  0.00  0.00    +0.015 C 
ATOM     19  C   UNL     1      -0.119   4.229  24.908  0.00  0.00    +0.002 C 
ENDBRANCH  21   5
ENDBRANCH  22  21
ENDBRANCH  13  20
ENDBRANCH   8  13
BRANCH   9  14
ATOM     14  C   UNL     1      -0.267  -0.265  23.140  0.00  0.00    +0.115 C 
BRANCH  14   6
ATOM      6  N   UNL     1       1.001   0.449  23.118  0.00  0.00    -0.309 NA
ATOM     31  H   UNL     1       0.848   1.393  22.763  0.00  0.00    +0.122 HD
BRANCH   6  24
ATOM     24  C   UNL     1       1.975  -0.242  22.283  0.00  0.00    +0.120 C 
BRANCH  24  25
ATOM     25  C   UNL     1       3.329  -0.307  22.939  0.00  0.00    +0.008 A 
ATOM     26  C   UNL     1       4.139   0.825  23.016  0.00  0.00    +0.121 A 
ATOM     27  C   UNL     1       3.770  -1.517  23.474  0.00  0.00    +0.008 A 
ATOM     28  C   UNL     1       5.390   0.748  23.628  0.00  0.00    +0.046 A 
ATOM     29  C   UNL     1       5.022  -1.595  24.085  0.00  0.00    +0.001 A 
ATOM     30  C   UNL     1       5.832  -0.462  24.162  0.00  0.00    +0.004 A 
BRANCH  26   4
ATOM      4  O   UNL     1       3.724   2.016  22.499  0.00  0.00    -0.506 OA
ATOM     33  H   UNL     1       4.374   2.704  22.724  0.00  0.00    +0.292 HD
ENDBRANCH  26   4
ENDBRANCH  24  25
ENDBRANCH   6  24
ENDBRANCH  14   6
ENDBRANCH   9  14
TORSDOF 10
ENDMDL
MODEL 3
REMARK VINA RESULT:      -4.0      1.548      4.393
REMARK  Name = 75367034
REMARK  10 active torsions:
REMARK  status: ('A' for Active; 'I' for Inactive)
REMARK    1  A    between atoms: O_2  and  C_10
REMARK    2  A    between atoms: O_4  and  C_26
REMARK    3  A    between atoms: N_5  and  C_21
REMARK    4  A    between atoms: N_6  and  C_14
REMARK    5  A    between atoms: N_6  and  C_24
REMARK    6  A    between atoms: C_8  and  C_13
REMARK    7  A    between atoms: C_9  and  C_14
REMARK    8  A    between atoms: C_13  and  C_20
REMARK    9  A    between atoms: C_21  and  C_22
REMARK   10  A    between atoms: C_24  and  C_25
REMARK                            x       y       z     vdW  Elec       q    Type
REMARK                         _______ _______ _______ _____ _____    ______ ____
ROOT
ATOM      1  O   UNL     1      -2.415   2.694  25.681  0.00  0.00    -0.369 OA
ATOM      8  C   UNL     1      -1.335   3.324  24.987  0.00  0.00    +0.125 C 
ATOM      9  C   UNL     1      -3.713   3.241  25.414  0.00  0.00    +0.161 C 
ATOM     10  C   UNL     1      -3.753   4.748  25.700  0.00  0.00    +0.145 C 
ATOM     11  C   UNL     1      -1.266   4.810  25.335  0.00  0.00    +0.034 C 
ATOM     12  C   UNL     1      -2.597   5.495  25.041  0.00  0.00    +0.036 C 
ENDROOT
BRANCH  10   2
ATOM      2  O   UNL     1      -3.655   4.953  27.111  0.00  0.00    -0.389 OA
ATOM     32  H   UNL     1      -3.373   4.112  27.512  0.00  0.00    +0.210 HD
ENDBRANCH  10   2
BRANCH   8  13
ATOM     13  C   UNL     1      -0.051   2.611  25.392  0.00  0.00    +0.090 C 
BRANCH  13  20
ATOM      3  O   UNL     1       0.244  -0.063  22.995  0.00  0.00    -0.358 OA
ATOM      7  N   UNL     1      -0.464   0.669  23.939  0.00  0.00    -0.083 NA
ATOM     20  C   UNL     1       0.385   1.614  24.352  0.00  0.00    +0.086 A 
ATOM     22  C   UNL     1       1.491   0.458  22.866  0.00  0.00    +0.151 A 
ATOM     23  C   UNL     1       1.633   1.529  23.709  0.00  0.00    +0.072 A 
BRANCH  22  21
ATOM     21  C   UNL     1       2.381  -0.199  21.902  0.00  0.00    +0.161 C 
BRANCH  21   5
ATOM      5  N   UNL     1       3.718  -0.459  22.435  0.00  0.00    -0.295 NA
ATOM     15  C   UNL     1       4.354   0.796  22.861  0.00  0.00    +0.085 C 
ATOM     16  C   UNL     1       3.652  -1.423  23.543  0.00  0.00    +0.085 C 
ATOM     17  C   UNL     1       5.773   0.548  23.376  0.00  0.00    +0.015 C 
ATOM     18  C   UNL     1       5.046  -1.743  24.081  0.00  0.00    +0.015 C 
ATOM     19  C   UNL     1       5.781  -0.477  24.505  0.00  0.00    +0.002 C 
ENDBRANCH  21   5
ENDBRANCH  22  21
ENDBRANCH  13  20
ENDBRANCH   8  13
BRANCH   9  14
ATOM     14  C   UNL     1      -4.180   2.888  24.005  0.00  0.00    +0.115 C 
BRANCH  14   6
ATOM      6  N   UNL     1      -3.859   1.506  23.682  0.00  0.00    -0.309 NA
ATOM     31  H   UNL     1      -4.130   1.315  22.718  0.00  0.00    +0.122 HD
BRANCH   6  24
ATOM     24  C   UNL     1      -4.545   0.587  24.580  0.00  0.00    +0.120 C 
BRANCH  24  25
ATOM     25  C   UNL     1      -3.918  -0.782  24.567  0.00  0.00    +0.008 A 
ATOM     26  C   UNL     1      -2.759  -1.042  25.297  0.00  0.00    +0.121 A 
ATOM     27  C   UNL     1      -4.509  -1.796  23.813  0.00  0.00    +0.008 A 
ATOM     28  C   UNL     1      -2.190  -2.316  25.275  0.00  0.00    +0.046 A 
ATOM     29  C   UNL     1      -3.941  -3.070  23.790  0.00  0.00    +0.001 A 
ATOM     30  C   UNL     1      -2.781  -3.330  24.521  0.00  0.00    +0.004 A 
BRANCH  26   4
ATOM      4  O   UNL     1      -2.167  -0.064  26.039  0.00  0.00    -0.506 OA
ATOM     33  H   UNL     1      -1.657  -0.473  26.758  0.00  0.00    +0.292 HD
ENDBRANCH  26   4
ENDBRANCH  24  25
ENDBRANCH   6  24
ENDBRANCH  14   6
ENDBRANCH   9  14
TORSDOF 10
ENDMDL
MODEL 4
REMARK VINA RESULT:      -3.8      1.702      4.176
REMARK  Name = 75367034
REMARK  10 active torsions:
REMARK  status: ('A' for Active; 'I' for Inactive)
REMARK    1  A    between atoms: O_2  and  C_10
REMARK    2  A    between atoms: O_4  and  C_26
REMARK    3  A    between atoms: N_5  and  C_21
REMARK    4  A    between atoms: N_6  and  C_14
REMARK    5  A    between atoms: N_6  and  C_24
REMARK    6  A    between atoms: C_8  and  C_13
REMARK    7  A    between atoms: C_9  and  C_14
REMARK    8  A    between atoms: C_13  and  C_20
REMARK    9  A    between atoms: C_21  and  C_22
REMARK   10  A    between atoms: C_24  and  C_25
REMARK                            x       y       z     vdW  Elec       q    Type
REMARK                         _______ _______ _______ _____ _____    ______ ____
ROOT
ATOM      1  O   UNL     1      -3.495   2.171  25.705  0.00  0.00    -0.369 OA
ATOM      8  C   UNL     1      -3.235   3.417  25.054  0.00  0.00    +0.125 C 
ATOM      9  C   UNL     1      -4.754   1.565  25.380  0.00  0.00    +0.161 C 
ATOM     10  C   UNL     1      -5.921   2.522  25.656  0.00  0.00    +0.145 C 
ATOM     11  C   UNL     1      -4.317   4.440  25.398  0.00  0.00    +0.034 C 
ATOM     12  C   UNL     1      -5.699   3.902  25.044  0.00  0.00    +0.036 C 
ENDROOT
BRANCH  10   2
ATOM      2  O   UNL     1      -6.056   2.689  27.070  0.00  0.00    -0.389 OA
ATOM     32  H   UNL     1      -6.719   2.049  27.380  0.00  0.00    +0.210 HD
ENDBRANCH  10   2
BRANCH   8  13
ATOM     13  C   UNL     1      -1.865   3.899  25.518  0.00  0.00    +0.090 C 
BRANCH  13  20
ATOM      3  O   UNL     1       1.072   1.843  25.156  0.00  0.00    -0.358 OA
ATOM      7  N   UNL     1       0.262   2.713  25.874  0.00  0.00    -0.083 NA
ATOM     20  C   UNL     1      -0.767   2.976  25.063  0.00  0.00    +0.086 A 
ATOM     22  C   UNL     1       0.513   1.607  23.942  0.00  0.00    +0.151 A 
ATOM     23  C   UNL     1      -0.660   2.306  23.831  0.00  0.00    +0.072 A 
BRANCH  22  21
ATOM     21  C   UNL     1       1.244   0.702  23.048  0.00  0.00    +0.161 C 
BRANCH  21   5
ATOM      5  N   UNL     1       2.601   0.405  23.511  0.00  0.00    -0.295 NA
ATOM     15  C   UNL     1       2.897  -1.025  23.349  0.00  0.00    +0.085 C 
ATOM     16  C   UNL     1       3.581   1.235  22.795  0.00  0.00    +0.085 C 
ATOM     17  C   UNL     1       4.294  -1.361  23.873  0.00  0.00    +0.015 C 
ATOM     18  C   UNL     1       4.999   0.973  23.301  0.00  0.00    +0.015 C 
ATOM     19  C   UNL     1       5.360  -0.505  23.199  0.00  0.00    +0.002 C 
ENDBRANCH  21   5
ENDBRANCH  22  21
ENDBRANCH  13  20
ENDBRANCH   8  13
BRANCH   9  14
ATOM     14  C   UNL     1      -4.752   1.022  23.953  0.00  0.00    +0.115 C 
BRANCH  14   6
ATOM      6  N   UNL     1      -4.714  -0.432  23.951  0.00  0.00    -0.309 NA
ATOM     31  H   UNL     1      -5.644  -0.792  23.734  0.00  0.00    +0.122 HD
BRANCH   6  24
ATOM     24  C   UNL     1      -4.275  -0.945  25.242  0.00  0.00    +0.120 C 
BRANCH  24  25
ATOM     25  C   UNL     1      -2.826  -1.355  25.219  0.00  0.00    +0.008 A 
ATOM     26  C   UNL     1      -2.409  -2.458  24.474  0.00  0.00    +0.121 A 
ATOM     27  C   UNL     1      -1.897  -0.618  25.953  0.00  0.00    +0.008 A 
ATOM     28  C   UNL     1      -1.063  -2.824  24.463  0.00  0.00    +0.046 A 
ATOM     29  C   UNL     1      -0.551  -0.984  25.942  0.00  0.00    +0.001 A 
ATOM     30  C   UNL     1      -0.134  -2.088  25.197  0.00  0.00    +0.004 A 
BRANCH  26   4
ATOM      4  O   UNL     1      -3.303  -3.190  23.751  0.00  0.00    -0.506 OA
ATOM     33  H   UNL     1      -3.836  -3.730  24.359  0.00  0.00    +0.292 HD
ENDBRANCH  26   4
ENDBRANCH  24  25
ENDBRANCH   6  24
ENDBRANCH  14   6
ENDBRANCH   9  14
TORSDOF 10
ENDMDL
MODEL 5
REMARK VINA RESULT:      -3.8      1.283      1.574
REMARK  Name = 75367034
REMARK  10 active torsions:
REMARK  status: ('A' for Active; 'I' for Inactive)
REMARK    1  A    between atoms: O_2  and  C_10
REMARK    2  A    between atoms: O_4  and  C_26
REMARK    3  A    between atoms: N_5  and  C_21
REMARK    4  A    between atoms: N_6  and  C_14
REMARK    5  A    between atoms: N_6  and  C_24
REMARK    6  A    between atoms: C_8  and  C_13
REMARK    7  A    between atoms: C_9  and  C_14
REMARK    8  A    between atoms: C_13  and  C_20
REMARK    9  A    between atoms: C_21  and  C_22
REMARK   10  A    between atoms: C_24  and  C_25
REMARK                            x       y       z     vdW  Elec       q    Type
REMARK                         _______ _______ _______ _____ _____    ______ ____
ROOT
ATOM      1  O   UNL     1      -2.977   0.273  24.881  0.00  0.00    -0.369 OA
ATOM      8  C   UNL     1      -2.651  -0.668  25.907  0.00  0.00    +0.125 C 
ATOM      9  C   UNL     1      -4.308   0.168  24.358  0.00  0.00    +0.161 C 
ATOM     10  C   UNL     1      -4.595  -1.248  23.842  0.00  0.00    +0.145 C 
ATOM     11  C   UNL     1      -2.811  -2.099  25.396  0.00  0.00    +0.034 C 
ATOM     12  C   UNL     1      -4.221  -2.324  24.858  0.00  0.00    +0.036 C 
ENDROOT
BRANCH  10   2
ATOM      2  O   UNL     1      -3.820  -1.475  22.662  0.00  0.00    -0.389 OA
ATOM     32  H   UNL     1      -3.676  -2.434  22.584  0.00  0.00    +0.210 HD
ENDBRANCH  10   2
BRANCH   8  13
ATOM     13  C   UNL     1      -1.212  -0.401  26.333  0.00  0.00    +0.090 C 
BRANCH  13  20
ATOM      3  O   UNL     1       0.704   1.348  23.832  0.00  0.00    -0.358 OA
ATOM      7  N   UNL     1      -0.099   1.315  24.965  0.00  0.00    -0.083 NA
ATOM     20  C   UNL     1      -0.356   0.020  25.168  0.00  0.00    +0.086 A 
ATOM     22  C   UNL     1       0.907   0.081  23.389  0.00  0.00    +0.151 A 
ATOM     23  C   UNL     1       0.253  -0.803  24.205  0.00  0.00    +0.072 A 
BRANCH  22  21
ATOM     21  C   UNL     1       1.741  -0.069  22.191  0.00  0.00    +0.161 C 
BRANCH  21   5
ATOM      5  N   UNL     1       3.157  -0.277  22.496  0.00  0.00    -0.295 NA
ATOM     15  C   UNL     1       3.788   0.989  22.895  0.00  0.00    +0.085 C 
ATOM     16  C   UNL     1       3.313  -1.300  23.539  0.00  0.00    +0.085 C 
ATOM     17  C   UNL     1       5.280   0.800  23.171  0.00  0.00    +0.015 C 
ATOM     18  C   UNL     1       4.790  -1.565  23.836  0.00  0.00    +0.015 C 
ATOM     19  C   UNL     1       5.517  -0.281  24.220  0.00  0.00    +0.002 C 
ENDBRANCH  21   5
ENDBRANCH  22  21
ENDBRANCH  13  20
ENDBRANCH   8  13
BRANCH   9  14
ATOM     14  C   UNL     1      -5.339   0.653  25.375  0.00  0.00    +0.115 C 
BRANCH  14   6
ATOM      6  N   UNL     1      -5.965   1.889  24.931  0.00  0.00    -0.309 NA
ATOM     31  H   UNL     1      -5.761   2.031  23.942  0.00  0.00    +0.122 HD
BRANCH   6  24
ATOM     24  C   UNL     1      -5.482   3.026  25.703  0.00  0.00    +0.120 C 
BRANCH  24  25
ATOM     25  C   UNL     1      -4.109   3.459  25.263  0.00  0.00    +0.008 A 
ATOM     26  C   UNL     1      -3.196   3.977  26.182  0.00  0.00    +0.121 A 
ATOM     27  C   UNL     1      -3.753   3.339  23.920  0.00  0.00    +0.008 A 
ATOM     28  C   UNL     1      -1.928   4.374  25.758  0.00  0.00    +0.046 A 
ATOM     29  C   UNL     1      -2.485   3.737  23.495  0.00  0.00    +0.001 A 
ATOM     30  C   UNL     1      -1.572   4.254  24.415  0.00  0.00    +0.004 A 
BRANCH  26   4
ATOM      4  O   UNL     1      -3.526   4.103  27.498  0.00  0.00    -0.506 OA
ATOM     33  H   UNL     1      -2.945   4.764  27.910  0.00  0.00    +0.292 HD
ENDBRANCH  26   4
ENDBRANCH  24  25
ENDBRANCH   6  24
ENDBRANCH  14   6
ENDBRANCH   9  14
TORSDOF 10
ENDMDL
MODEL 6
REMARK VINA RESULT:      -2.5      1.219      1.570
REMARK  Name = 75367034
REMARK  10 active torsions:
REMARK  status: ('A' for Active; 'I' for Inactive)
REMARK    1  A    between atoms: O_2  and  C_10
REMARK    2  A    between atoms: O_4  and  C_26
REMARK    3  A    between atoms: N_5  and  C_21
REMARK    4  A    between atoms: N_6  and  C_14
REMARK    5  A    between atoms: N_6  and  C_24
REMARK    6  A    between atoms: C_8  and  C_13
REMARK    7  A    between atoms: C_9  and  C_14
REMARK    8  A    between atoms: C_13  and  C_20
REMARK    9  A    between atoms: C_21  and  C_22
REMARK   10  A    between atoms: C_24  and  C_25
REMARK                            x       y       z     vdW  Elec       q    Type
REMARK                         _______ _______ _______ _____ _____    ______ ____
ROOT
ATOM      1  O   UNL     1      -3.326   0.805  24.376  0.00  0.00    -0.369 OA
ATOM      8  C   UNL     1      -2.590   0.649  25.593  0.00  0.00    +0.125 C 
ATOM      9  C   UNL     1      -4.580   0.111  24.330  0.00  0.00    +0.161 C 
ATOM     10  C   UNL     1      -4.399  -1.386  24.612  0.00  0.00    +0.145 C 
ATOM     11  C   UNL     1      -2.286  -0.825  25.853  0.00  0.00    +0.034 C 
ATOM     12  C   UNL     1      -3.572  -1.645  25.868  0.00  0.00    +0.036 C 
ENDROOT
BRANCH  10   2
ATOM      2  O   UNL     1      -3.715  -1.985  23.509  0.00  0.00    -0.389 OA
ATOM     32  H   UNL     1      -3.101  -2.648  23.868  0.00  0.00    +0.210 HD
ENDBRANCH  10   2
BRANCH   8  13
ATOM     13  C   UNL     1      -1.302   1.453  25.455  0.00  0.00    +0.090 C 
BRANCH  13  20
ATOM      3  O   UNL     1       0.305  -0.496  22.885  0.00  0.00    -0.358 OA
ATOM      7  N   UNL     1      -0.784  -0.178  23.686  0.00  0.00    -0.083 NA
ATOM     20  C   UNL     1      -0.367   0.837  24.448  0.00  0.00    +0.086 A 
ATOM     22  C   UNL     1       1.339   0.331  23.184  0.00  0.00    +0.151 A 
ATOM     23  C   UNL     1       0.964   1.199  24.174  0.00  0.00    +0.072 A 
BRANCH  22  21
ATOM     21  C   UNL     1       2.579   0.132  22.424  0.00  0.00    +0.161 C 
BRANCH  21   5
ATOM      5  N   UNL     1       3.762  -0.003  23.275  0.00  0.00    -0.295 NA
ATOM     15  C   UNL     1       4.196  -1.405  23.333  0.00  0.00    +0.085 C 
ATOM     16  C   UNL     1       4.843   0.869  22.794  0.00  0.00    +0.085 C 
ATOM     17  C   UNL     1       5.403  -1.571  24.258  0.00  0.00    +0.015 C 
ATOM     18  C   UNL     1       6.070   0.778  23.701  0.00  0.00    +0.015 C 
ATOM     19  C   UNL     1       6.553  -0.662  23.838  0.00  0.00    +0.002 C 
ENDBRANCH  21   5
ENDBRANCH  22  21
ENDBRANCH  13  20
ENDBRANCH   8  13
BRANCH   9  14
ATOM     14  C   UNL     1      -5.609   0.771  25.244  0.00  0.00    +0.115 C 
BRANCH  14   6
ATOM      6  N   UNL     1      -6.072   2.029  24.680  0.00  0.00    -0.309 NA
ATOM     31  H   UNL     1      -5.587   2.202  23.800  0.00  0.00    +0.122 HD
BRANCH   6  24
ATOM     24  C   UNL     1      -5.835   3.134  25.601  0.00  0.00    +0.120 C 
BRANCH  24  25
ATOM     25  C   UNL     1      -4.437   3.678  25.474  0.00  0.00    +0.008 A 
ATOM     26  C   UNL     1      -3.841   3.829  24.223  0.00  0.00    +0.121 A 
ATOM     27  C   UNL     1      -3.737   4.033  26.627  0.00  0.00    +0.008 A 
ATOM     28  C   UNL     1      -2.545   4.335  24.123  0.00  0.00    +0.046 A 
ATOM     29  C   UNL     1      -2.440   4.539  26.528  0.00  0.00    +0.001 A 
ATOM     30  C   UNL     1      -1.845   4.690  25.276  0.00  0.00    +0.004 A 
BRANCH  26   4
ATOM      4  O   UNL     1      -4.509   3.485  23.086  0.00  0.00    -0.506 OA
ATOM     33  H   UNL     1      -5.452   3.696  23.195  0.00  0.00    +0.292 HD
ENDBRANCH  26   4
ENDBRANCH  24  25
ENDBRANCH   6  24
ENDBRANCH  14   6
ENDBRANCH   9  14
TORSDOF 10
ENDMDL
MODEL 7
REMARK VINA RESULT:      -2.3      1.702      3.910
REMARK  Name = 75367034
REMARK  10 active torsions:
REMARK  status: ('A' for Active; 'I' for Inactive)
REMARK    1  A    between atoms: O_2  and  C_10
REMARK    2  A    between atoms: O_4  and  C_26
REMARK    3  A    between atoms: N_5  and  C_21
REMARK    4  A    between atoms: N_6  and  C_14
REMARK    5  A    between atoms: N_6  and  C_24
REMARK    6  A    between atoms: C_8  and  C_13
REMARK    7  A    between atoms: C_9  and  C_14
REMARK    8  A    between atoms: C_13  and  C_20
REMARK    9  A    between atoms: C_21  and  C_22
REMARK   10  A    between atoms: C_24  and  C_25
REMARK                            x       y       z     vdW  Elec       q    Type
REMARK                         _______ _______ _______ _____ _____    ______ ____
ROOT
ATOM      1  O   UNL     1      -1.900   3.480  26.310  0.00  0.00    -0.369 OA
ATOM      8  C   UNL     1      -1.671   2.541  25.256  0.00  0.00    +0.125 C 
ATOM      9  C   UNL     1      -2.559   4.691  25.916  0.00  0.00    +0.161 C 
ATOM     10  C   UNL     1      -1.801   5.394  24.782  0.00  0.00    +0.145 C 
ATOM     11  C   UNL     1      -0.817   3.167  24.154  0.00  0.00    +0.034 C 
ATOM     12  C   UNL     1      -1.463   4.447  23.634  0.00  0.00    +0.036 C 
ENDROOT
BRANCH  10   2
ATOM      2  O   UNL     1      -0.571   5.908  25.298  0.00  0.00    -0.389 OA
ATOM     32  H   UNL     1      -0.774   6.389  26.119  0.00  0.00    +0.210 HD
ENDBRANCH  10   2
BRANCH   8  13
ATOM     13  C   UNL     1      -0.971   1.331  25.864  0.00  0.00    +0.090 C 
BRANCH  13  20
ATOM      3  O   UNL     1       0.352  -1.204  23.672  0.00  0.00    -0.358 OA
ATOM      7  N   UNL     1      -0.466  -0.784  24.713  0.00  0.00    -0.083 NA
ATOM     20  C   UNL     1      -0.241   0.529  24.821  0.00  0.00    +0.086 A 
ATOM     22  C   UNL     1       1.042  -0.141  23.186  0.00  0.00    +0.151 A 
ATOM     23  C   UNL     1       0.701   0.988  23.884  0.00  0.00    +0.072 A 
BRANCH  22  21
ATOM     21  C   UNL     1       1.961  -0.408  22.074  0.00  0.00    +0.161 C 
BRANCH  21   5
ATOM      5  N   UNL     1       3.368  -0.418  22.477  0.00  0.00    -0.295 NA
ATOM     15  C   UNL     1       3.796   0.929  22.879  0.00  0.00    +0.085 C 
ATOM     16  C   UNL     1       3.585  -1.389  23.559  0.00  0.00    +0.085 C 
ATOM     17  C   UNL     1       5.278   0.946  23.257  0.00  0.00    +0.015 C 
ATOM     18  C   UNL     1       5.059  -1.448  23.960  0.00  0.00    +0.015 C 
ATOM     19  C   UNL     1       5.582  -0.071  24.352  0.00  0.00    +0.002 C 
ENDBRANCH  21   5
ENDBRANCH  22  21
ENDBRANCH  13  20
ENDBRANCH   8  13
BRANCH   9  14
ATOM     14  C   UNL     1      -4.027   4.437  25.584  0.00  0.00    +0.115 C 
BRANCH  14   6
ATOM      6  N   UNL     1      -4.562   3.354  26.396  0.00  0.00    -0.309 NA
ATOM     31  H   UNL     1      -3.792   2.783  26.744  0.00  0.00    +0.122 HD
BRANCH   6  24
ATOM     24  C   UNL     1      -5.480   2.527  25.623  0.00  0.00    +0.120 C 
BRANCH  24  25
ATOM     25  C   UNL     1      -4.774   1.373  24.962  0.00  0.00    +0.008 A 
ATOM     26  C   UNL     1      -4.152   1.533  23.724  0.00  0.00    +0.121 A 
ATOM     27  C   UNL     1      -4.745   0.134  25.601  0.00  0.00    +0.008 A 
ATOM     28  C   UNL     1      -3.502   0.454  23.124  0.00  0.00    +0.046 A 
ATOM     29  C   UNL     1      -4.095  -0.946  25.002  0.00  0.00    +0.001 A 
ATOM     30  C   UNL     1      -3.474  -0.785  23.763  0.00  0.00    +0.004 A 
BRANCH  26   4
ATOM      4  O   UNL     1      -4.171   2.736  23.084  0.00  0.00    -0.506 OA
ATOM     33  H   UNL     1      -4.772   2.682  22.322  0.00  0.00    +0.292 HD
ENDBRANCH  26   4
ENDBRANCH  24  25
ENDBRANCH   6  24
ENDBRANCH  14   6
ENDBRANCH   9  14
TORSDOF 10
ENDMDL
MODEL 8
REMARK VINA RESULT:      -0.8      1.980      6.805
REMARK  Name = 75367034
REMARK  10 active torsions:
REMARK  status: ('A' for Active; 'I' for Inactive)
REMARK    1  A    between atoms: O_2  and  C_10
REMARK    2  A    between atoms: O_4  and  C_26
REMARK    3  A    between atoms: N_5  and  C_21
REMARK    4  A    between atoms: N_6  and  C_14
REMARK    5  A    between atoms: N_6  and  C_24
REMARK    6  A    between atoms: C_8  and  C_13
REMARK    7  A    between atoms: C_9  and  C_14
REMARK    8  A    between atoms: C_13  and  C_20
REMARK    9  A    between atoms: C_21  and  C_22
REMARK   10  A    between atoms: C_24  and  C_25
REMARK                            x       y       z     vdW  Elec       q    Type
REMARK                         _______ _______ _______ _____ _____    ______ ____
ROOT
ATOM      1  O   UNL     1      -2.095   3.375  24.389  0.00  0.00    -0.369 OA
ATOM      8  C   UNL     1      -2.497   4.370  25.334  0.00  0.00    +0.125 C 
ATOM      9  C   UNL     1      -0.687   3.102  24.352  0.00  0.00    +0.161 C 
ATOM     10  C   UNL     1       0.122   4.381  24.101  0.00  0.00    +0.145 C 
ATOM     11  C   UNL     1      -1.798   5.699  25.047  0.00  0.00    +0.034 C 
ATOM     12  C   UNL     1      -0.284   5.519  25.034  0.00  0.00    +0.036 C 
ENDROOT
BRANCH  10   2
ATOM      2  O   UNL     1      -0.106   4.815  22.759  0.00  0.00    -0.389 OA
ATOM     32  H   UNL     1       0.199   4.108  22.164  0.00  0.00    +0.210 HD
ENDBRANCH  10   2
BRANCH   8  13
ATOM     13  C   UNL     1      -4.010   4.518  25.228  0.00  0.00    +0.090 C 
BRANCH  13  20
ATOM      3  O   UNL     1      -6.173   1.676  25.706  0.00  0.00    -0.358 OA
ATOM      7  N   UNL     1      -5.801   2.992  25.948  0.00  0.00    -0.083 NA
ATOM     20  C   UNL     1      -4.700   3.180  25.214  0.00  0.00    +0.086 A 
ATOM     22  C   UNL     1      -5.293   1.113  24.839  0.00  0.00    +0.151 A 
ATOM     23  C   UNL     1      -4.335   2.029  24.495  0.00  0.00    +0.072 A 
BRANCH  22  21
ATOM     21  C   UNL     1      -5.539  -0.286  24.470  0.00  0.00    +0.161 C 
BRANCH  21   5
ATOM      5  N   UNL     1      -4.454  -1.186  24.865  0.00  0.00    -0.295 NA
ATOM     15  C   UNL     1      -4.118  -2.099  23.764  0.00  0.00    +0.085 C 
ATOM     16  C   UNL     1      -3.278  -0.415  25.294  0.00  0.00    +0.085 C 
ATOM     17  C   UNL     1      -3.018  -3.079  24.176  0.00  0.00    +0.015 C 
ATOM     18  C   UNL     1      -2.151  -1.339  25.756  0.00  0.00    +0.015 C 
ATOM     19  C   UNL     1      -1.778  -2.343  24.671  0.00  0.00    +0.002 C 
ENDBRANCH  21   5
ENDBRANCH  22  21
ENDBRANCH  13  20
ENDBRANCH   8  13
BRANCH   9  14
ATOM     14  C   UNL     1      -0.240   2.348  25.602  0.00  0.00    +0.115 C 
BRANCH  14   6
ATOM      6  N   UNL     1       0.242   1.018  25.261  0.00  0.00    -0.309 NA
ATOM     31  H   UNL     1       1.222   0.937  25.531  0.00  0.00    +0.122 HD
BRANCH   6  24
ATOM     24  C   UNL     1       0.099   0.760  23.835  0.00  0.00    +0.120 C 
BRANCH  24  25
ATOM     25  C   UNL     1       1.434   0.619  23.154  0.00  0.00    +0.008 A 
ATOM     26  C   UNL     1       1.561  -0.120  21.979  0.00  0.00    +0.121 A 
ATOM     27  C   UNL     1       2.553   1.238  23.713  0.00  0.00    +0.008 A 
ATOM     28  C   UNL     1       2.806  -0.240  21.360  0.00  0.00    +0.046 A 
ATOM     29  C   UNL     1       3.799   1.117  23.095  0.00  0.00    +0.001 A 
ATOM     30  C   UNL     1       3.924   0.378  21.919  0.00  0.00    +0.004 A 
BRANCH  26   4
ATOM      4  O   UNL     1       0.480  -0.732  21.419  0.00  0.00    -0.506 OA
ATOM     33  H   UNL     1       0.759  -1.197  20.613  0.00  0.00    +0.292 HD
ENDBRANCH  26   4
ENDBRANCH  24  25
ENDBRANCH   6  24
ENDBRANCH  14   6
ENDBRANCH   9  14
TORSDOF 10
ENDMDL
