MODEL 1
REMARK VINA RESULT:       4.7      0.000      0.000
REMARK  Name = 7144094
REMARK  4 active torsions:
REMARK  status: ('A' for Active; 'I' for Inactive)
REMARK    1  A    between atoms: O_4  and  C_26
REMARK    2  A    between atoms: O_4  and  C_29
REMARK    3  A    between atoms: C_14  and  C_19
REMARK    4  A    between atoms: C_16  and  C_20
REMARK                            x       y       z     vdW  Elec       q    Type
REMARK                         _______ _______ _______ _____ _____    ______ ____
ROOT
ATOM      2  O   UNL     1      -3.172   4.180  27.647  0.00  0.00    -0.268 OA
ATOM      3  O   UNL     1      -5.866   0.611  25.248  0.00  0.00    -0.269 OA
ATOM      5  N   UNL     1      -2.678   3.446  25.478  0.00  0.00    -0.311 N 
ATOM      6  N   UNL     1      -4.319   1.423  23.694  0.00  0.00    -0.296 N 
ATOM      7  C   UNL     1      -4.268   3.898  23.515  0.00  0.00    +0.027 C 
ATOM      8  C   UNL     1      -2.203   2.610  23.156  0.00  0.00    +0.054 C 
ATOM      9  C   UNL     1      -3.008   3.813  22.666  0.00  0.00    +0.018 C 
ATOM     10  C   UNL     1      -3.858   4.159  24.966  0.00  0.00    +0.130 C 
ATOM     11  C   UNL     1      -5.104   2.614  23.375  0.00  0.00    +0.113 C 
ATOM     12  C   UNL     1      -3.037   1.324  22.981  0.00  0.00    +0.117 C 
ATOM     13  C   UNL     1      -1.788   2.769  24.622  0.00  0.00    +0.034 A 
ATOM     14  C   UNL     1      -0.629   2.258  25.114  0.00  0.00    +0.002 A 
ATOM     15  C   UNL     1      -2.437   3.588  26.857  0.00  0.00    +0.252 A 
ATOM     16  C   UNL     1      -4.792   0.525  24.653  0.00  0.00    +0.253 C 
ATOM     17  C   UNL     1      -0.348   2.382  26.532  0.00  0.00    +0.015 A 
ATOM     18  C   UNL     1      -1.186   2.987  27.373  0.00  0.00    +0.071 A 
ENDROOT
BRANCH  14  19
ATOM     19  C   UNL     1       0.346   1.562  24.247  0.00  0.00    -0.016 A 
ATOM     21  C   UNL     1       1.535   2.194  23.899  0.00  0.00    +0.012 A 
ATOM     22  C   UNL     1       0.067   0.278  23.787  0.00  0.00    +0.012 A 
ATOM     24  C   UNL     1       2.455   1.536  23.081  0.00  0.00    +0.046 A 
ATOM     25  C   UNL     1       0.987  -0.380  22.969  0.00  0.00    +0.046 A 
ATOM     26  C   UNL     1       2.181   0.250  22.616  0.00  0.00    +0.120 A 
BRANCH  26   4
ATOM      4  O   UNL     1       3.078  -0.390  21.819  0.00  0.00    -0.495 OA
ATOM     29  C   UNL     1       4.452  -0.034  21.971  0.00  0.00    +0.277 C 
ENDBRANCH  26   4
ENDBRANCH  14  19
BRANCH  16  20
ATOM      1  S   UNL     1      -4.076  -2.062  24.106  0.00  0.00    -0.092 S 
ATOM     20  C   UNL     1      -3.945  -0.619  25.012  0.00  0.00    +0.074 A 
ATOM     23  C   UNL     1      -3.012  -0.713  26.016  0.00  0.00    +0.021 A 
ATOM     27  C   UNL     1      -2.392  -1.995  26.044  0.00  0.00    +0.008 A 
ATOM     28  C   UNL     1      -2.877  -2.827  25.059  0.00  0.00    +0.046 A 
ENDBRANCH  16  20
TORSDOF 3
ENDMDL
