MODEL 1
REMARK VINA RESULT:      -4.6      0.000      0.000
REMARK  Name = 26743740
REMARK  8 active torsions:
REMARK  status: ('A' for Active; 'I' for Inactive)
REMARK    1  A    between atoms: O_4  and  C_12
REMARK    2  A    between atoms: O_6  and  C_29
REMARK    3  A    between atoms: O_6  and  C_30
REMARK    4  A    between atoms: N_7  and  C_14
REMARK    5  A    between atoms: C_10  and  C_15
REMARK    6  A    between atoms: C_14  and  C_16
REMARK    7  A    between atoms: C_19  and  C_23
REMARK    8  A    between atoms: C_22  and  C_24
REMARK                            x       y       z     vdW  Elec       q    Type
REMARK                         _______ _______ _______ _____ _____    ______ ____
ROOT
ATOM      5  O   UNL     1      -1.872   3.464  24.850  0.00  0.00    -0.336 OA
ATOM      8  N   UNL     1      -1.688   1.593  23.633  0.00  0.00    -0.190 NA
ATOM      9  N   UNL     1      -0.499   3.234  24.696  0.00  0.00    -0.056 NA
ATOM     15  C   UNL     1      -2.500   2.453  24.195  0.00  0.00    +0.245 A 
ATOM     19  C   UNL     1      -0.471   2.115  23.967  0.00  0.00    +0.202 A 
ENDROOT
BRANCH  19  23
ATOM     23  C   UNL     1       0.753   1.489  23.558  0.00  0.00    +0.023 A 
ATOM     25  C   UNL     1       0.764   0.141  23.202  0.00  0.00    +0.015 A 
ATOM     26  C   UNL     1       1.933   2.231  23.516  0.00  0.00    +0.015 A 
ATOM     27  C   UNL     1       1.955  -0.466  22.806  0.00  0.00    +0.046 A 
ATOM     28  C   UNL     1       3.125   1.624  23.120  0.00  0.00    +0.046 A 
ATOM     29  C   UNL     1       3.136   0.275  22.765  0.00  0.00    +0.130 A 
BRANCH  29   6
ATOM      6  O   UNL     1       4.299  -0.316  22.378  0.00  0.00    -0.406 OA
BRANCH   6  30
ATOM      1  F   UNL     1       5.248  -1.285  24.182  0.00  0.00    -0.133 F 
ATOM      2  F   UNL     1       6.565  -0.496  22.628  0.00  0.00    -0.133 F 
ATOM      3  F   UNL     1       5.452   0.878  23.951  0.00  0.00    -0.133 F 
ATOM     30  C   UNL     1       5.401  -0.291  23.278  0.00  0.00    +0.575 C 
ENDBRANCH   6  30
ENDBRANCH  29   6
ENDBRANCH  19  23
BRANCH  15  10
ATOM      7  N   UNL     1      -4.584   1.579  25.239  0.00  0.00    -0.285 NA
ATOM     10  C   UNL     1      -4.014   2.474  24.213  0.00  0.00    +0.149 C 
ATOM     11  C   UNL     1      -4.584   3.866  24.543  0.00  0.00    +0.061 C 
ATOM     12  C   UNL     1      -5.499   3.642  25.741  0.00  0.00    +0.130 C 
ATOM     13  C   UNL     1      -5.856   2.172  25.646  0.00  0.00    +0.116 C 
BRANCH  12   4
ATOM      4  O   UNL     1      -6.644   4.468  25.658  0.00  0.00    -0.390 OA
ATOM     31  H   UNL     1      -6.338   5.387  25.580  0.00  0.00    +0.210 HD
ENDBRANCH  12   4
BRANCH   7  14
ATOM     14  C   UNL     1      -4.740   0.205  24.779  0.00  0.00    +0.120 C 
BRANCH  14  16
ATOM     16  C   UNL     1      -3.475  -0.593  24.955  0.00  0.00    -0.033 A 
ATOM     17  C   UNL     1      -2.554  -0.230  25.938  0.00  0.00    +0.005 A 
ATOM     18  C   UNL     1      -3.223  -1.693  24.135  0.00  0.00    +0.005 A 
ATOM     20  C   UNL     1      -1.380  -0.966  26.099  0.00  0.00    +0.003 A 
ATOM     21  C   UNL     1      -2.050  -2.429  24.297  0.00  0.00    +0.003 A 
ATOM     22  C   UNL     1      -1.129  -2.066  25.279  0.00  0.00    -0.050 A 
ATOM     24  C   UNL     1       0.126  -2.853  25.452  0.00  0.00    +0.044 C 
ENDBRANCH  14  16
ENDBRANCH   7  14
ENDBRANCH  15  10
TORSDOF 7
ENDMDL
MODEL 2
REMARK VINA RESULT:      -1.0      1.454      1.922
REMARK  Name = 26743740
REMARK  8 active torsions:
REMARK  status: ('A' for Active; 'I' for Inactive)
REMARK    1  A    between atoms: O_4  and  C_12
REMARK    2  A    between atoms: O_6  and  C_29
REMARK    3  A    between atoms: O_6  and  C_30
REMARK    4  A    between atoms: N_7  and  C_14
REMARK    5  A    between atoms: C_10  and  C_15
REMARK    6  A    between atoms: C_14  and  C_16
REMARK    7  A    between atoms: C_19  and  C_23
REMARK    8  A    between atoms: C_22  and  C_24
REMARK                            x       y       z     vdW  Elec       q    Type
REMARK                         _______ _______ _______ _____ _____    ______ ____
ROOT
ATOM      5  O   UNL     1      -2.664   1.226  22.979  0.00  0.00    -0.336 OA
ATOM      8  N   UNL     1      -0.964   2.279  23.988  0.00  0.00    -0.190 NA
ATOM      9  N   UNL     1      -1.496   0.588  22.542  0.00  0.00    -0.056 NA
ATOM     15  C   UNL     1      -2.261   2.210  23.826  0.00  0.00    +0.245 A 
ATOM     19  C   UNL     1      -0.537   1.265  23.180  0.00  0.00    +0.202 A 
ENDROOT
BRANCH  19  23
ATOM     23  C   UNL     1       0.855   0.956  23.033  0.00  0.00    +0.023 A 
ATOM     25  C   UNL     1       1.249  -0.317  22.621  0.00  0.00    +0.015 A 
ATOM     26  C   UNL     1       1.817   1.930  23.302  0.00  0.00    +0.015 A 
ATOM     27  C   UNL     1       2.604  -0.617  22.479  0.00  0.00    +0.046 A 
ATOM     28  C   UNL     1       3.172   1.631  23.160  0.00  0.00    +0.046 A 
ATOM     29  C   UNL     1       3.565   0.357  22.749  0.00  0.00    +0.130 A 
BRANCH  29   6
ATOM      6  O   UNL     1       4.888   0.067  22.610  0.00  0.00    -0.406 OA
BRANCH   6  30
ATOM      1  F   UNL     1       6.940  -0.353  23.450  0.00  0.00    -0.133 F 
ATOM      2  F   UNL     1       5.496   0.672  24.730  0.00  0.00    -0.133 F 
ATOM      3  F   UNL     1       5.249  -1.473  24.262  0.00  0.00    -0.133 F 
ATOM     30  C   UNL     1       5.630  -0.273  23.776  0.00  0.00    +0.575 C 
ENDBRANCH   6  30
ENDBRANCH  29   6
ENDBRANCH  19  23
BRANCH  15  10
ATOM      7  N   UNL     1      -3.941   2.436  25.649  0.00  0.00    -0.285 NA
ATOM     10  C   UNL     1      -3.353   3.057  24.445  0.00  0.00    +0.149 C 
ATOM     11  C   UNL     1      -2.843   4.431  24.918  0.00  0.00    +0.061 C 
ATOM     12  C   UNL     1      -3.232   4.509  26.389  0.00  0.00    +0.130 C 
ATOM     13  C   UNL     1      -4.387   3.534  26.504  0.00  0.00    +0.116 C 
BRANCH  12   4
ATOM      4  O   UNL     1      -3.617   5.824  26.737  0.00  0.00    -0.390 OA
ATOM     31  H   UNL     1      -3.088   6.437  26.198  0.00  0.00    +0.210 HD
ENDBRANCH  12   4
BRANCH   7  14
ATOM     14  C   UNL     1      -5.019   1.503  25.345  0.00  0.00    +0.120 C 
BRANCH  14  16
ATOM     16  C   UNL     1      -4.501   0.113  25.089  0.00  0.00    -0.033 A 
ATOM     17  C   UNL     1      -3.619  -0.480  25.992  0.00  0.00    +0.005 A 
ATOM     18  C   UNL     1      -4.902  -0.581  23.947  0.00  0.00    +0.005 A 
ATOM     20  C   UNL     1      -3.137  -1.766  25.754  0.00  0.00    +0.003 A 
ATOM     21  C   UNL     1      -4.419  -1.868  23.709  0.00  0.00    +0.003 A 
ATOM     22  C   UNL     1      -3.538  -2.461  24.612  0.00  0.00    -0.050 A 
ATOM     24  C   UNL     1      -3.021  -3.836  24.357  0.00  0.00    +0.044 C 
ENDBRANCH  14  16
ENDBRANCH   7  14
ENDBRANCH  15  10
TORSDOF 7
ENDMDL
