MODEL 1
REMARK VINA RESULT:      -2.3      0.000      0.000
REMARK  Name = 71693481
REMARK  10 active torsions:
REMARK  status: ('A' for Active; 'I' for Inactive)
REMARK    1  A    between atoms: S_1  and  N_10
REMARK    2  A    between atoms: S_1  and  C_26
REMARK    3  A    between atoms: O_3  and  C_13
REMARK    4  A    between atoms: N_8  and  C_16
REMARK    5  A    between atoms: N_9  and  C_24
REMARK    6  A    between atoms: N_9  and  C_25
REMARK    7  A    between atoms: N_10  and  C_23
REMARK    8  A    between atoms: C_11  and  C_13
REMARK    9  A    between atoms: C_12  and  C_14
REMARK   10  A    between atoms: C_16  and  C_20
REMARK                            x       y       z     vdW  Elec       q    Type
REMARK                         _______ _______ _______ _____ _____    ______ ____
ROOT
ATOM      2  O   UNL     1      -1.529  -0.484  24.691  0.00  0.00    -0.361 OA
ATOM      4  O   UNL     1      -4.961   0.116  25.436  0.00  0.00    -0.273 OA
ATOM      8  N   UNL     1      -3.486   1.416  24.182  0.00  0.00    -0.283 N 
ATOM     11  C   UNL     1      -2.107   1.613  23.672  0.00  0.00    +0.135 C 
ATOM     12  C   UNL     1      -1.386   0.264  23.483  0.00  0.00    +0.171 C 
ATOM     15  C   UNL     1      -3.869   0.272  24.884  0.00  0.00    +0.242 C 
ATOM     17  C   UNL     1      -2.869  -0.867  24.887  0.00  0.00    +0.256 C 
ENDROOT
BRANCH  12  14
ATOM     14  C   UNL     1       0.099   0.386  23.209  0.00  0.00    -0.017 A 
ATOM     18  C   UNL     1       0.702  -0.427  22.250  0.00  0.00    +0.008 A 
ATOM     19  C   UNL     1       0.863   1.314  23.917  0.00  0.00    +0.008 A 
ATOM     21  C   UNL     1       2.068  -0.313  21.998  0.00  0.00    +0.025 A 
ATOM     22  C   UNL     1       2.229   1.428  23.667  0.00  0.00    +0.025 A 
ATOM     23  C   UNL     1       2.832   0.615  22.706  0.00  0.00    +0.048 A 
BRANCH  23  10
ATOM     10  N   UNL     1       4.232   0.731  22.448  0.00  0.00    -0.221 N 
ATOM     28  H   UNL     1       4.483   0.631  21.455  0.00  0.00    +0.173 HD
BRANCH  10   1
ATOM      1  S   UNL     1       5.328  -0.002  23.557  0.00  0.00    +0.040 S 
ATOM      6  O   UNL     1       6.546  -0.338  22.842  0.00  0.00    -0.155 OA
ATOM      7  O   UNL     1       5.384   0.742  24.799  0.00  0.00    -0.155 OA
ATOM     26  C   UNL     1       4.477  -1.531  23.873  0.00  0.00    +0.218 C 
ENDBRANCH  10   1
ENDBRANCH  23  10
ENDBRANCH  12  14
BRANCH  11  13
ATOM     13  C   UNL     1      -2.071   2.432  22.374  0.00  0.00    +0.181 C 
BRANCH  13   3
ATOM      3  O   UNL     1      -2.448   1.584  21.308  0.00  0.00    -0.393 OA
ATOM     27  H   UNL     1      -3.420   1.585  21.268  0.00  0.00    +0.209 HD
ENDBRANCH  13   3
ENDBRANCH  11  13
BRANCH   8  16
ATOM     16  C   UNL     1      -4.399   2.557  24.156  0.00  0.00    +0.204 C 
BRANCH  16  20
ATOM      5  O   UNL     1      -5.521   2.914  26.244  0.00  0.00    -0.274 OA
ATOM      9  N   UNL     1      -3.469   3.960  25.968  0.00  0.00    -0.306 N 
ATOM     20  C   UNL     1      -4.530   3.149  25.549  0.00  0.00    +0.232 C 
ATOM     24  C   UNL     1      -2.307   4.222  25.127  0.00  0.00    +0.131 C 
ATOM     25  C   UNL     1      -3.446   4.603  27.279  0.00  0.00    +0.131 C 
ENDBRANCH  16  20
ENDBRANCH   8  16
TORSDOF 7
ENDMDL
MODEL 2
REMARK VINA RESULT:      -1.4     15.317     16.711
REMARK  Name = 71693481
REMARK  10 active torsions:
REMARK  status: ('A' for Active; 'I' for Inactive)
REMARK    1  A    between atoms: S_1  and  N_10
REMARK    2  A    between atoms: S_1  and  C_26
REMARK    3  A    between atoms: O_3  and  C_13
REMARK    4  A    between atoms: N_8  and  C_16
REMARK    5  A    between atoms: N_9  and  C_24
REMARK    6  A    between atoms: N_9  and  C_25
REMARK    7  A    between atoms: N_10  and  C_23
REMARK    8  A    between atoms: C_11  and  C_13
REMARK    9  A    between atoms: C_12  and  C_14
REMARK   10  A    between atoms: C_16  and  C_20
REMARK                            x       y       z     vdW  Elec       q    Type
REMARK                         _______ _______ _______ _____ _____    ______ ____
ROOT
ATOM      2  O   UNL     1      -7.287 -10.285  10.981  0.00  0.00    -0.361 OA
ATOM      4  O   UNL     1     -10.707 -10.480  11.962  0.00  0.00    -0.273 OA
ATOM      8  N   UNL     1      -8.802 -10.414  13.304  0.00  0.00    -0.283 N 
ATOM     11  C   UNL     1      -7.320 -10.384  13.381  0.00  0.00    +0.135 C 
ATOM     12  C   UNL     1      -6.712  -9.691  12.146  0.00  0.00    +0.171 C 
ATOM     15  C   UNL     1      -9.490 -10.333  12.091  0.00  0.00    +0.242 C 
ATOM     17  C   UNL     1      -8.655  -9.968  10.880  0.00  0.00    +0.256 C 
ENDROOT
BRANCH  12  14
ATOM     14  C   UNL     1      -5.210  -9.843  12.025  0.00  0.00    -0.017 A 
ATOM     18  C   UNL     1      -4.465 -10.305  13.110  0.00  0.00    +0.008 A 
ATOM     19  C   UNL     1      -4.572  -9.521  10.827  0.00  0.00    +0.008 A 
ATOM     21  C   UNL     1      -3.082 -10.445  12.998  0.00  0.00    +0.025 A 
ATOM     22  C   UNL     1      -3.189  -9.662  10.714  0.00  0.00    +0.025 A 
ATOM     23  C   UNL     1      -2.444 -10.124  11.800  0.00  0.00    +0.048 A 
BRANCH  23  10
ATOM     10  N   UNL     1      -1.028 -10.268  11.685  0.00  0.00    -0.221 N 
ATOM     28  H   UNL     1      -0.589 -10.729  12.493  0.00  0.00    +0.173 HD
BRANCH  10   1
ATOM      1  S   UNL     1      -0.129  -8.962  11.012  0.00  0.00    +0.040 S 
ATOM      6  O   UNL     1       1.226  -9.419  10.761  0.00  0.00    -0.155 OA
ATOM      7  O   UNL     1      -0.885  -8.294   9.972  0.00  0.00    -0.155 OA
ATOM     26  C   UNL     1      -0.054  -7.875  12.417  0.00  0.00    +0.218 C 
ENDBRANCH  10   1
ENDBRANCH  23  10
ENDBRANCH  12  14
BRANCH  11  13
ATOM     13  C   UNL     1      -6.812  -9.728  14.673  0.00  0.00    +0.181 C 
BRANCH  13   3
ATOM      3  O   UNL     1      -6.424 -10.752  15.565  0.00  0.00    -0.393 OA
ATOM     27  H   UNL     1      -5.504 -10.985  15.354  0.00  0.00    +0.209 HD
ENDBRANCH  13   3
ENDBRANCH  11  13
BRANCH   8  16
ATOM     16  C   UNL     1      -9.546 -10.780  14.506  0.00  0.00    +0.204 C 
BRANCH  16  20
ATOM      5  O   UNL     1     -10.511  -8.587  14.557  0.00  0.00    -0.274 OA
ATOM      9  N   UNL     1      -9.954  -9.531  16.600  0.00  0.00    -0.306 N 
ATOM     20  C   UNL     1     -10.051  -9.530  15.204  0.00  0.00    +0.232 C 
ATOM     24  C   UNL     1      -9.406 -10.659  17.344  0.00  0.00    +0.131 C 
ATOM     25  C   UNL     1     -10.395  -8.403  17.417  0.00  0.00    +0.131 C 
ENDBRANCH  16  20
ENDBRANCH   8  16
TORSDOF 7
ENDMDL
MODEL 3
REMARK VINA RESULT:      -1.2      1.600      3.424
REMARK  Name = 71693481
REMARK  10 active torsions:
REMARK  status: ('A' for Active; 'I' for Inactive)
REMARK    1  A    between atoms: S_1  and  N_10
REMARK    2  A    between atoms: S_1  and  C_26
REMARK    3  A    between atoms: O_3  and  C_13
REMARK    4  A    between atoms: N_8  and  C_16
REMARK    5  A    between atoms: N_9  and  C_24
REMARK    6  A    between atoms: N_9  and  C_25
REMARK    7  A    between atoms: N_10  and  C_23
REMARK    8  A    between atoms: C_11  and  C_13
REMARK    9  A    between atoms: C_12  and  C_14
REMARK   10  A    between atoms: C_16  and  C_20
REMARK                            x       y       z     vdW  Elec       q    Type
REMARK                         _______ _______ _______ _____ _____    ______ ____
ROOT
ATOM      2  O   UNL     1      -1.921   2.056  22.881  0.00  0.00    -0.361 OA
ATOM      4  O   UNL     1      -5.223   2.100  24.220  0.00  0.00    -0.273 OA
ATOM      8  N   UNL     1      -3.369   0.880  24.936  0.00  0.00    -0.283 N 
ATOM     11  C   UNL     1      -1.949   0.511  24.720  0.00  0.00    +0.135 C 
ATOM     12  C   UNL     1      -1.175   1.652  24.031  0.00  0.00    +0.171 C 
ATOM     15  C   UNL     1      -4.017   1.847  24.166  0.00  0.00    +0.242 C 
ATOM     17  C   UNL     1      -3.127   2.675  23.259  0.00  0.00    +0.256 C 
ENDROOT
BRANCH  12  14
ATOM     14  C   UNL     1       0.207   1.263  23.548  0.00  0.00    -0.017 A 
ATOM     18  C   UNL     1       0.392   0.073  22.846  0.00  0.00    +0.008 A 
ATOM     19  C   UNL     1       1.294   2.098  23.806  0.00  0.00    +0.008 A 
ATOM     21  C   UNL     1       1.665  -0.284  22.402  0.00  0.00    +0.025 A 
ATOM     22  C   UNL     1       2.567   1.743  23.361  0.00  0.00    +0.025 A 
ATOM     23  C   UNL     1       2.752   0.551  22.659  0.00  0.00    +0.048 A 
BRANCH  23  10
ATOM     10  N   UNL     1       4.055   0.186  22.203  0.00  0.00    -0.221 N 
ATOM     28  H   UNL     1       4.052  -0.448  21.393  0.00  0.00    +0.173 HD
BRANCH  10   1
ATOM      1  S   UNL     1       5.268  -0.143  23.382  0.00  0.00    +0.040 S 
ATOM      6  O   UNL     1       6.522  -0.386  22.694  0.00  0.00    -0.155 OA
ATOM      7  O   UNL     1       5.199   0.807  24.475  0.00  0.00    -0.155 OA
ATOM     26  C   UNL     1       4.699  -1.715  23.987  0.00  0.00    +0.218 C 
ENDBRANCH  10   1
ENDBRANCH  23  10
ENDBRANCH  12  14
BRANCH  11  13
ATOM     13  C   UNL     1      -1.246   0.090  26.019  0.00  0.00    +0.181 C 
BRANCH  13   3
ATOM      3  O   UNL     1      -0.442  -1.038  25.741  0.00  0.00    -0.393 OA
ATOM     27  H   UNL     1       0.347  -0.976  26.305  0.00  0.00    +0.209 HD
ENDBRANCH  13   3
ENDBRANCH  11  13
BRANCH   8  16
ATOM     16  C   UNL     1      -4.173   0.036  25.817  0.00  0.00    +0.204 C 
BRANCH  16  20
ATOM      5  O   UNL     1      -3.047  -1.814  26.845  0.00  0.00    -0.274 OA
ATOM      9  N   UNL     1      -3.774  -2.114  24.664  0.00  0.00    -0.306 N 
ATOM     20  C   UNL     1      -3.610  -1.375  25.840  0.00  0.00    +0.232 C 
ATOM     24  C   UNL     1      -4.444  -1.572  23.487  0.00  0.00    +0.131 C 
ATOM     25  C   UNL     1      -3.288  -3.484  24.526  0.00  0.00    +0.131 C 
ENDBRANCH  16  20
ENDBRANCH   8  16
TORSDOF 7
ENDMDL
MODEL 4
REMARK VINA RESULT:       0.8      1.550      2.662
REMARK  Name = 71693481
REMARK  10 active torsions:
REMARK  status: ('A' for Active; 'I' for Inactive)
REMARK    1  A    between atoms: S_1  and  N_10
REMARK    2  A    between atoms: S_1  and  C_26
REMARK    3  A    between atoms: O_3  and  C_13
REMARK    4  A    between atoms: N_8  and  C_16
REMARK    5  A    between atoms: N_9  and  C_24
REMARK    6  A    between atoms: N_9  and  C_25
REMARK    7  A    between atoms: N_10  and  C_23
REMARK    8  A    between atoms: C_11  and  C_13
REMARK    9  A    between atoms: C_12  and  C_14
REMARK   10  A    between atoms: C_16  and  C_20
REMARK                            x       y       z     vdW  Elec       q    Type
REMARK                         _______ _______ _______ _____ _____    ______ ____
ROOT
ATOM      2  O   UNL     1      -0.638   3.595  24.371  0.00  0.00    -0.361 OA
ATOM      4  O   UNL     1      -3.992   4.534  25.125  0.00  0.00    -0.273 OA
ATOM      8  N   UNL     1      -3.188   2.500  24.318  0.00  0.00    -0.283 N 
ATOM     11  C   UNL     1      -2.026   1.705  23.849  0.00  0.00    +0.135 C 
ATOM     12  C   UNL     1      -0.721   2.177  24.521  0.00  0.00    +0.171 C 
ATOM     15  C   UNL     1      -3.052   3.787  24.840  0.00  0.00    +0.242 C 
ATOM     17  C   UNL     1      -1.634   4.238  25.130  0.00  0.00    +0.256 C 
ENDROOT
BRANCH  12  14
ATOM     14  C   UNL     1       0.537   1.593  23.913  0.00  0.00    -0.017 A 
ATOM     18  C   UNL     1       0.580   0.245  23.556  0.00  0.00    +0.008 A 
ATOM     19  C   UNL     1       1.653   2.404  23.708  0.00  0.00    +0.008 A 
ATOM     21  C   UNL     1       1.738  -0.292  22.996  0.00  0.00    +0.025 A 
ATOM     22  C   UNL     1       2.812   1.868  23.147  0.00  0.00    +0.025 A 
ATOM     23  C   UNL     1       2.854   0.520  22.791  0.00  0.00    +0.048 A 
BRANCH  23  10
ATOM     10  N   UNL     1       4.040  -0.031  22.216  0.00  0.00    -0.221 N 
ATOM     28  H   UNL     1       3.867  -0.810  21.568  0.00  0.00    +0.173 HD
BRANCH  10   1
ATOM      1  S   UNL     1       5.424  -0.214  23.226  0.00  0.00    +0.040 S 
ATOM      6  O   UNL     1       6.577  -0.466  22.381  0.00  0.00    -0.155 OA
ATOM      7  O   UNL     1       5.466   0.820  24.241  0.00  0.00    -0.155 OA
ATOM     26  C   UNL     1       5.027  -1.751  24.027  0.00  0.00    +0.218 C 
ENDBRANCH  10   1
ENDBRANCH  23  10
ENDBRANCH  12  14
BRANCH  11  13
ATOM     13  C   UNL     1      -2.224   0.196  24.054  0.00  0.00    +0.181 C 
BRANCH  13   3
ATOM      3  O   UNL     1      -2.034  -0.091  25.424  0.00  0.00    -0.393 OA
ATOM     27  H   UNL     1      -1.131   0.187  25.655  0.00  0.00    +0.209 HD
ENDBRANCH  13   3
ENDBRANCH  11  13
BRANCH   8  16
ATOM     16  C   UNL     1      -4.528   2.012  23.999  0.00  0.00    +0.204 C 
BRANCH  16  20
ATOM      5  O   UNL     1      -4.796   0.119  25.445  0.00  0.00    -0.274 OA
ATOM      9  N   UNL     1      -6.017   2.019  25.973  0.00  0.00    -0.306 N 
ATOM     20  C   UNL     1      -5.113   1.285  25.197  0.00  0.00    +0.232 C 
ATOM     24  C   UNL     1      -6.376   3.397  25.659  0.00  0.00    +0.131 C 
ATOM     25  C   UNL     1      -6.667   1.461  27.156  0.00  0.00    +0.131 C 
ENDBRANCH  16  20
ENDBRANCH   8  16
TORSDOF 7
ENDMDL
MODEL 5
REMARK VINA RESULT:       0.8      1.507      2.050
REMARK  Name = 71693481
REMARK  10 active torsions:
REMARK  status: ('A' for Active; 'I' for Inactive)
REMARK    1  A    between atoms: S_1  and  N_10
REMARK    2  A    between atoms: S_1  and  C_26
REMARK    3  A    between atoms: O_3  and  C_13
REMARK    4  A    between atoms: N_8  and  C_16
REMARK    5  A    between atoms: N_9  and  C_24
REMARK    6  A    between atoms: N_9  and  C_25
REMARK    7  A    between atoms: N_10  and  C_23
REMARK    8  A    between atoms: C_11  and  C_13
REMARK    9  A    between atoms: C_12  and  C_14
REMARK   10  A    between atoms: C_16  and  C_20
REMARK                            x       y       z     vdW  Elec       q    Type
REMARK                         _______ _______ _______ _____ _____    ______ ____
ROOT
ATOM      2  O   UNL     1      -1.110  -1.075  24.530  0.00  0.00    -0.361 OA
ATOM      4  O   UNL     1      -4.392  -0.612  25.840  0.00  0.00    -0.273 OA
ATOM      8  N   UNL     1      -2.906   0.985  25.016  0.00  0.00    -0.283 N 
ATOM     11  C   UNL     1      -1.562   1.284  24.463  0.00  0.00    +0.135 C 
ATOM     12  C   UNL     1      -0.997   0.076  23.691  0.00  0.00    +0.171 C 
ATOM     15  C   UNL     1      -3.340  -0.318  25.267  0.00  0.00    +0.242 C 
ATOM     17  C   UNL     1      -2.461  -1.425  24.719  0.00  0.00    +0.256 C 
ENDROOT
BRANCH  12  14
ATOM     14  C   UNL     1       0.465   0.208  23.315  0.00  0.00    -0.017 A 
ATOM     18  C   UNL     1       1.018  -0.640  22.356  0.00  0.00    +0.008 A 
ATOM     19  C   UNL     1       1.256   1.179  23.927  0.00  0.00    +0.008 A 
ATOM     21  C   UNL     1       2.364  -0.518  22.010  0.00  0.00    +0.025 A 
ATOM     22  C   UNL     1       2.601   1.302  23.581  0.00  0.00    +0.025 A 
ATOM     23  C   UNL     1       3.155   0.454  22.622  0.00  0.00    +0.048 A 
BRANCH  23  10
ATOM     10  N   UNL     1       4.532   0.579  22.267  0.00  0.00    -0.221 N 
ATOM     28  H   UNL     1       4.705   0.565  21.253  0.00  0.00    +0.173 HD
BRANCH  10   1
ATOM      1  S   UNL     1       5.698  -0.261  23.218  0.00  0.00    +0.040 S 
ATOM      6  O   UNL     1       5.057  -1.420  23.810  0.00  0.00    -0.155 OA
ATOM      7  O   UNL     1       6.950  -0.397  22.501  0.00  0.00    -0.155 OA
ATOM     26  C   UNL     1       5.942   0.918  24.527  0.00  0.00    +0.218 C 
ENDBRANCH  10   1
ENDBRANCH  23  10
ENDBRANCH  12  14
BRANCH  11  13
ATOM     13  C   UNL     1      -1.555   2.540  23.581  0.00  0.00    +0.181 C 
BRANCH  13   3
ATOM      3  O   UNL     1      -2.197   2.227  22.362  0.00  0.00    -0.393 OA
ATOM     27  H   UNL     1      -3.078   2.637  22.386  0.00  0.00    +0.209 HD
ENDBRANCH  13   3
ENDBRANCH  11  13
BRANCH   8  16
ATOM     16  C   UNL     1      -3.700   2.097  25.533  0.00  0.00    +0.204 C 
BRANCH  16  20
ATOM      5  O   UNL     1      -4.774   2.709  23.479  0.00  0.00    -0.274 OA
ATOM      9  N   UNL     1      -6.154   2.087  25.236  0.00  0.00    -0.306 N 
ATOM     20  C   UNL     1      -4.910   2.329  24.644  0.00  0.00    +0.232 C 
ATOM     24  C   UNL     1      -6.289   1.638  26.617  0.00  0.00    +0.131 C 
ATOM     25  C   UNL     1      -7.412   2.265  24.514  0.00  0.00    +0.131 C 
ENDBRANCH  16  20
ENDBRANCH   8  16
TORSDOF 7
ENDMDL
