MODEL 1
REMARK VINA RESULT:       3.6      0.000      0.000
REMARK  Name = 45361469
REMARK  10 active torsions:
REMARK  status: ('A' for Active; 'I' for Inactive)
REMARK    1  A    between atoms: O_3  and  C_11
REMARK    2  A    between atoms: N_6  and  C_15
REMARK    3  A    between atoms: N_7  and  C_30
REMARK    4  A    between atoms: C_8  and  C_18
REMARK    5  A    between atoms: C_10  and  C_20
REMARK    6  A    between atoms: C_14  and  C_19
REMARK    7  A    between atoms: C_19  and  C_21
REMARK    8  A    between atoms: C_19  and  C_22
REMARK    9  A    between atoms: C_23  and  C_24
REMARK   10  A    between atoms: C_30  and  C_31
REMARK                            x       y       z     vdW  Elec       q    Type
REMARK                         _______ _______ _______ _____ _____    ______ ____
ROOT
ATOM      8  C   UNL     1      -2.135  -0.936  25.179  0.00  0.00    -0.027 C 
ATOM      9  C   UNL     1      -2.301   0.182  24.096  0.00  0.00    +0.028 C 
ATOM     10  C   UNL     1      -0.919   0.849  23.764  0.00  0.00    +0.012 C 
ATOM     11  C   UNL     1      -3.445   1.167  24.475  0.00  0.00    +0.122 C 
ATOM     12  C   UNL     1      -3.490  -1.647  25.400  0.00  0.00    +0.007 C 
ATOM     13  C   UNL     1      -1.129  -1.991  24.663  0.00  0.00    +0.009 C 
ATOM     14  C   UNL     1      -4.773   0.441  24.796  0.00  0.00    +0.029 C 
ATOM     15  C   UNL     1       0.106  -0.230  23.318  0.00  0.00    +0.076 C 
ATOM     16  C   UNL     1      -4.604  -0.692  25.809  0.00  0.00    +0.007 C 
ATOM     17  C   UNL     1       0.225  -1.397  24.298  0.00  0.00    +0.023 C 
ATOM     18  C   UNL     1      -1.638  -0.378  26.537  0.00  0.00    +0.011 C 
ATOM     20  C   UNL     1      -1.006   1.941  22.683  0.00  0.00    +0.010 C 
ENDROOT
BRANCH  15   6
ATOM      5  O   UNL     1       1.919  -0.733  21.106  0.00  0.00    -0.276 OA
ATOM      6  N   UNL     1       1.425   0.333  23.114  0.00  0.00    -0.312 N 
ATOM     23  C   UNL     1       2.216   0.030  22.021  0.00  0.00    +0.216 C 
ATOM     37  H   UNL     1       1.794   0.940  23.842  0.00  0.00    +0.149 HD
BRANCH  23  24
ATOM     24  C   UNL     1       3.522   0.770  22.045  0.00  0.00    +0.075 C 
ATOM     25  C   UNL     1       3.687   1.548  23.352  0.00  0.00    +0.013 C 
ATOM     26  C   UNL     1       4.679  -0.195  21.779  0.00  0.00    +0.013 C 
ATOM     27  C   UNL     1       4.058   0.664  24.543  0.00  0.00    +0.001 C 
ATOM     28  C   UNL     1       5.021  -1.066  22.985  0.00  0.00    +0.001 C 
ATOM     29  C   UNL     1       5.256  -0.228  24.237  0.00  0.00    +0.000 C 
ENDBRANCH  23  24
ENDBRANCH  15   6
BRANCH  11   3
ATOM      3  O   UNL     1      -3.711   2.035  23.373  0.00  0.00    -0.391 OA
ATOM     38  H   UNL     1      -3.123   1.784  22.641  0.00  0.00    +0.210 HD
ENDBRANCH  11   3
BRANCH  14  19
ATOM     19  C   UNL     1      -5.848   1.415  25.292  0.00  0.00    +0.077 C 
ATOM     21  C   UNL     1      -7.033   1.424  24.333  0.00  0.00    +0.017 C 
BRANCH  19  22
ATOM      4  O   UNL     1      -5.629   3.774  24.789  0.00  0.00    -0.276 OA
ATOM      7  N   UNL     1      -4.253   2.855  26.414  0.00  0.00    -0.311 N 
ATOM     22  C   UNL     1      -5.251   2.810  25.452  0.00  0.00    +0.216 C 
ATOM     39  H   UNL     1      -4.035   2.025  26.956  0.00  0.00    +0.149 HD
BRANCH   7  30
ATOM     30  C   UNL     1      -3.538   4.066  26.742  0.00  0.00    +0.139 C 
BRANCH  30  31
ATOM      1  F   UNL     1       0.950   2.226  26.235  0.00  0.00    -0.205 F 
ATOM      2  F   UNL     1      -0.254   6.068  23.744  0.00  0.00    -0.205 F 
ATOM     31  C   UNL     1      -2.169   4.096  26.125  0.00  0.00    -0.025 A 
ATOM     32  C   UNL     1      -1.840   5.089  25.204  0.00  0.00    +0.043 A 
ATOM     33  C   UNL     1      -1.227   3.128  26.474  0.00  0.00    +0.043 A 
ATOM     34  C   UNL     1       0.045   3.154  25.900  0.00  0.00    +0.126 A 
ATOM     35  C   UNL     1      -0.569   5.115  24.630  0.00  0.00    +0.126 A 
ATOM     36  C   UNL     1       0.373   4.148  24.978  0.00  0.00    +0.076 A 
ENDBRANCH  30  31
ENDBRANCH   7  30
ENDBRANCH  19  22
ENDBRANCH  14  19
TORSDOF 7
ENDMDL
MODEL 2
REMARK VINA RESULT:       5.2     16.008     18.960
REMARK  Name = 45361469
REMARK  10 active torsions:
REMARK  status: ('A' for Active; 'I' for Inactive)
REMARK    1  A    between atoms: O_3  and  C_11
REMARK    2  A    between atoms: N_6  and  C_15
REMARK    3  A    between atoms: N_7  and  C_30
REMARK    4  A    between atoms: C_8  and  C_18
REMARK    5  A    between atoms: C_10  and  C_20
REMARK    6  A    between atoms: C_14  and  C_19
REMARK    7  A    between atoms: C_19  and  C_21
REMARK    8  A    between atoms: C_19  and  C_22
REMARK    9  A    between atoms: C_23  and  C_24
REMARK   10  A    between atoms: C_30  and  C_31
REMARK                            x       y       z     vdW  Elec       q    Type
REMARK                         _______ _______ _______ _____ _____    ______ ____
ROOT
ATOM      8  C   UNL     1      15.072  -7.310  28.105  0.00  0.00    -0.027 C 
ATOM      9  C   UNL     1      15.461  -6.564  29.425  0.00  0.00    +0.028 C 
ATOM     10  C   UNL     1      14.325  -6.702  30.501  0.00  0.00    +0.012 C 
ATOM     11  C   UNL     1      15.934  -5.111  29.131  0.00  0.00    +0.122 C 
ATOM     12  C   UNL     1      16.256  -7.253  27.111  0.00  0.00    +0.007 C 
ATOM     13  C   UNL     1      14.802  -8.798  28.429  0.00  0.00    +0.009 C 
ATOM     14  C   UNL     1      17.047  -5.052  28.059  0.00  0.00    +0.029 C 
ATOM     15  C   UNL     1      14.010  -8.200  30.763  0.00  0.00    +0.076 C 
ATOM     16  C   UNL     1      16.695  -5.830  26.791  0.00  0.00    +0.007 C 
ATOM     17  C   UNL     1      13.726  -8.993  29.487  0.00  0.00    +0.023 C 
ATOM     18  C   UNL     1      13.820  -6.701  27.425  0.00  0.00    +0.011 C 
ATOM     20  C   UNL     1      14.657  -6.013  31.836  0.00  0.00    +0.010 C 
ENDROOT
BRANCH  15   6
ATOM      5  O   UNL     1      11.979 -10.275  30.696  0.00  0.00    -0.276 OA
ATOM      6  N   UNL     1      12.888  -8.363  31.664  0.00  0.00    -0.312 N 
ATOM     23  C   UNL     1      11.969  -9.391  31.548  0.00  0.00    +0.216 C 
ATOM     37  H   UNL     1      12.753  -7.654  32.379  0.00  0.00    +0.149 HD
BRANCH  23  24
ATOM     24  C   UNL     1      10.925  -9.339  32.625  0.00  0.00    +0.075 C 
ATOM     25  C   UNL     1      10.078  -8.069  32.507  0.00  0.00    +0.013 C 
ATOM     26  C   UNL     1      10.083 -10.617  32.604  0.00  0.00    +0.013 C 
ATOM     27  C   UNL     1       9.048  -8.129  31.378  0.00  0.00    +0.001 C 
ATOM     28  C   UNL     1       9.069 -10.647  31.463  0.00  0.00    +0.001 C 
ATOM     29  C   UNL     1       8.200  -9.394  31.448  0.00  0.00    +0.000 C 
ENDBRANCH  23  24
ENDBRANCH  15   6
BRANCH  11   3
ATOM      3  O   UNL     1      16.482  -4.539  30.320  0.00  0.00    -0.391 OA
ATOM     38  H   UNL     1      17.209  -5.109  30.623  0.00  0.00    +0.210 HD
ENDBRANCH  11   3
BRANCH  14  19
ATOM     19  C   UNL     1      17.405  -3.607  27.691  0.00  0.00    +0.077 C 
ATOM     21  C   UNL     1      16.434  -2.639  28.356  0.00  0.00    +0.017 C 
BRANCH  19  22
ATOM      4  O   UNL     1      17.405  -2.342  25.626  0.00  0.00    -0.276 OA
ATOM      7  N   UNL     1      17.402  -4.659  25.507  0.00  0.00    -0.311 N 
ATOM     22  C   UNL     1      17.405  -3.443  26.174  0.00  0.00    +0.216 C 
ATOM     39  H   UNL     1      17.454  -5.525  26.033  0.00  0.00    +0.149 HD
BRANCH   7  30
ATOM     30  C   UNL     1      17.399  -4.759  24.066  0.00  0.00    +0.139 C 
BRANCH  30  31
ATOM      1  F   UNL     1      13.186  -2.856  22.511  0.00  0.00    -0.205 F 
ATOM      2  F   UNL     1      17.169  -0.348  21.997  0.00  0.00    -0.205 F 
ATOM     31  C   UNL     1      16.617  -3.647  23.427  0.00  0.00    -0.025 A 
ATOM     32  C   UNL     1      17.270  -2.492  22.999  0.00  0.00    +0.043 A 
ATOM     33  C   UNL     1      15.237  -3.771  23.262  0.00  0.00    +0.043 A 
ATOM     34  C   UNL     1      14.510  -2.737  22.669  0.00  0.00    +0.126 A 
ATOM     35  C   UNL     1      16.543  -1.458  22.407  0.00  0.00    +0.126 A 
ATOM     36  C   UNL     1      15.164  -1.582  22.242  0.00  0.00    +0.076 A 
ENDBRANCH  30  31
ENDBRANCH   7  30
ENDBRANCH  19  22
ENDBRANCH  14  19
TORSDOF 7
ENDMDL
MODEL 3
REMARK VINA RESULT:       7.2      2.142      4.502
REMARK  Name = 45361469
REMARK  10 active torsions:
REMARK  status: ('A' for Active; 'I' for Inactive)
REMARK    1  A    between atoms: O_3  and  C_11
REMARK    2  A    between atoms: N_6  and  C_15
REMARK    3  A    between atoms: N_7  and  C_30
REMARK    4  A    between atoms: C_8  and  C_18
REMARK    5  A    between atoms: C_10  and  C_20
REMARK    6  A    between atoms: C_14  and  C_19
REMARK    7  A    between atoms: C_19  and  C_21
REMARK    8  A    between atoms: C_19  and  C_22
REMARK    9  A    between atoms: C_23  and  C_24
REMARK   10  A    between atoms: C_30  and  C_31
REMARK                            x       y       z     vdW  Elec       q    Type
REMARK                         _______ _______ _______ _____ _____    ______ ____
ROOT
ATOM      8  C   UNL     1      -1.315   3.921  25.611  0.00  0.00    -0.027 C 
ATOM      9  C   UNL     1      -1.762   2.555  24.991  0.00  0.00    +0.028 C 
ATOM     10  C   UNL     1      -0.684   2.019  23.983  0.00  0.00    +0.012 C 
ATOM     11  C   UNL     1      -3.214   2.636  24.438  0.00  0.00    +0.122 C 
ATOM     12  C   UNL     1      -2.341   4.363  26.681  0.00  0.00    +0.007 C 
ATOM     13  C   UNL     1       0.048   3.732  26.316  0.00  0.00    +0.009 C 
ATOM     14  C   UNL     1      -4.219   3.177  25.482  0.00  0.00    +0.029 C 
ATOM     15  C   UNL     1       0.698   1.904  24.682  0.00  0.00    +0.076 C 
ATOM     16  C   UNL     1      -3.758   4.480  26.134  0.00  0.00    +0.007 C 
ATOM     17  C   UNL     1       1.128   3.188  25.392  0.00  0.00    +0.023 C 
ATOM     18  C   UNL     1      -1.189   5.042  24.549  0.00  0.00    +0.011 C 
ATOM     20  C   UNL     1      -1.048   0.661  23.357  0.00  0.00    +0.010 C 
ENDROOT
BRANCH  15   6
ATOM      5  O   UNL     1       1.337  -0.768  23.742  0.00  0.00    -0.276 OA
ATOM      6  N   UNL     1       1.741   1.524  23.752  0.00  0.00    -0.312 N 
ATOM     23  C   UNL     1       1.967   0.216  23.364  0.00  0.00    +0.216 C 
ATOM     37  H   UNL     1       2.360   2.256  23.416  0.00  0.00    +0.149 HD
BRANCH  23  24
ATOM     24  C   UNL     1       3.090   0.106  22.374  0.00  0.00    +0.075 C 
ATOM     25  C   UNL     1       4.093   1.249  22.552  0.00  0.00    +0.013 C 
ATOM     26  C   UNL     1       3.743  -1.275  22.469  0.00  0.00    +0.013 C 
ATOM     27  C   UNL     1       5.012   1.067  23.759  0.00  0.00    +0.001 C 
ATOM     28  C   UNL     1       4.651  -1.425  23.688  0.00  0.00    +0.001 C 
ATOM     29  C   UNL     1       5.680  -0.303  23.765  0.00  0.00    +0.000 C 
ENDBRANCH  23  24
ENDBRANCH  15   6
BRANCH  11   3
ATOM      3  O   UNL     1      -3.662   1.327  24.083  0.00  0.00    -0.391 OA
ATOM     38  H   UNL     1      -3.130   1.019  23.330  0.00  0.00    +0.210 HD
ENDBRANCH  11   3
BRANCH  14  19
ATOM     19  C   UNL     1      -5.615   3.372  24.880  0.00  0.00    +0.077 C 
ATOM     21  C   UNL     1      -6.477   4.216  25.812  0.00  0.00    +0.017 C 
BRANCH  19  22
ATOM      4  O   UNL     1      -7.434   1.893  24.269  0.00  0.00    -0.276 OA
ATOM      7  N   UNL     1      -5.371   0.963  24.781  0.00  0.00    -0.311 N 
ATOM     22  C   UNL     1      -6.257   2.015  24.606  0.00  0.00    +0.216 C 
ATOM     39  H   UNL     1      -4.400   1.150  25.009  0.00  0.00    +0.149 HD
BRANCH   7  30
ATOM     30  C   UNL     1      -5.748  -0.417  24.581  0.00  0.00    +0.139 C 
BRANCH  30  31
ATOM      1  F   UNL     1      -3.443  -4.415  23.002  0.00  0.00    -0.205 F 
ATOM      2  F   UNL     1      -1.284  -1.607  26.144  0.00  0.00    -0.205 F 
ATOM     31  C   UNL     1      -4.556  -1.331  24.579  0.00  0.00    -0.025 A 
ATOM     32  C   UNL     1      -3.452  -1.039  25.380  0.00  0.00    +0.043 A 
ATOM     33  C   UNL     1      -4.553  -2.472  23.775  0.00  0.00    +0.043 A 
ATOM     34  C   UNL     1      -3.446  -3.320  23.773  0.00  0.00    +0.126 A 
ATOM     35  C   UNL     1      -2.344  -1.888  25.376  0.00  0.00    +0.126 A 
ATOM     36  C   UNL     1      -2.342  -3.027  24.573  0.00  0.00    +0.076 A 
ENDBRANCH  30  31
ENDBRANCH   7  30
ENDBRANCH  19  22
ENDBRANCH  14  19
TORSDOF 7
ENDMDL
