MODEL 1
REMARK VINA RESULT:      -4.9      0.000      0.000
REMARK  Name = 51137439
REMARK  6 active torsions:
REMARK  status: ('A' for Active; 'I' for Inactive)
REMARK    1  A    between atoms: N_5  and  C_12
REMARK    2  A    between atoms: C_8  and  C_13
REMARK    3  A    between atoms: C_12  and  C_14
REMARK    4  A    between atoms: C_17  and  C_21
REMARK    5  A    between atoms: C_20  and  C_24
REMARK    6  A    between atoms: C_27  and  C_28
REMARK                            x       y       z     vdW  Elec       q    Type
REMARK                         _______ _______ _______ _____ _____    ______ ____
ROOT
ATOM      5  N   UNL     1      -4.963  -9.546   9.563  0.00  0.00    -0.297 NA
ATOM      8  C   UNL     1      -7.146  -9.353  10.399  0.00  0.00    +0.092 C 
ATOM      9  C   UNL     1      -6.487  -7.963  10.356  0.00  0.00    +0.029 C 
ATOM     10  C   UNL     1      -5.980 -10.340  10.255  0.00  0.00    +0.097 C 
ATOM     11  C   UNL     1      -4.994  -8.239  10.220  0.00  0.00    +0.085 C 
ENDROOT
BRANCH   8  13
ATOM      4  O   UNL     1      -7.339  -9.746  12.807  0.00  0.00    -0.420 OA
ATOM      6  N   UNL     1      -9.295  -9.744  11.724  0.00  0.00    -0.112 NA
ATOM      7  N   UNL     1      -9.549  -9.975  13.063  0.00  0.00    -0.107 NA
ATOM     13  C   UNL     1      -7.994  -9.616  11.621  0.00  0.00    +0.222 A 
ATOM     17  C   UNL     1      -8.378  -9.969  13.657  0.00  0.00    +0.248 A 
BRANCH  17  21
ATOM     21  C   UNL     1      -8.033 -10.154  15.036  0.00  0.00    +0.038 A 
ATOM     22  C   UNL     1      -6.702 -10.050  15.442  0.00  0.00    +0.013 A 
ATOM     23  C   UNL     1      -9.026 -10.437  15.973  0.00  0.00    +0.013 A 
ATOM     25  C   UNL     1      -6.365 -10.230  16.783  0.00  0.00    +0.004 A 
ATOM     26  C   UNL     1      -8.690 -10.616  17.314  0.00  0.00    +0.004 A 
ATOM     27  C   UNL     1      -7.359 -10.513  17.719  0.00  0.00    -0.050 A 
ATOM     28  C   UNL     1      -6.999 -10.706  19.154  0.00  0.00    +0.044 C 
ENDBRANCH  17  21
ENDBRANCH   8  13
BRANCH   5  12
ATOM     12  C   UNL     1      -3.645 -10.161   9.618  0.00  0.00    +0.119 C 
BRANCH  12  14
ATOM     14  C   UNL     1      -3.080 -10.153  11.013  0.00  0.00    -0.033 A 
ATOM     15  C   UNL     1      -1.760  -9.757  11.230  0.00  0.00    +0.005 A 
ATOM     16  C   UNL     1      -3.877 -10.541  12.091  0.00  0.00    +0.005 A 
ATOM     18  C   UNL     1      -1.237  -9.749  12.523  0.00  0.00    +0.012 A 
ATOM     19  C   UNL     1      -3.354 -10.533  13.384  0.00  0.00    +0.012 A 
ATOM     20  C   UNL     1      -2.034 -10.138  13.600  0.00  0.00    +0.055 A 
BRANCH  20  24
ATOM      1  F   UNL     1      -0.278 -10.772  15.095  0.00  0.00    -0.166 F 
ATOM      2  F   UNL     1      -2.302 -10.729  15.886  0.00  0.00    -0.166 F 
ATOM      3  F   UNL     1      -1.252  -8.871  15.472  0.00  0.00    -0.166 F 
ATOM     24  C   UNL     1      -1.476 -10.126  14.983  0.00  0.00    +0.417 C 
ENDBRANCH  20  24
ENDBRANCH  12  14
ENDBRANCH   5  12
TORSDOF 5
ENDMDL
MODEL 2
REMARK VINA RESULT:      -3.8      1.576      2.448
REMARK  Name = 51137439
REMARK  6 active torsions:
REMARK  status: ('A' for Active; 'I' for Inactive)
REMARK    1  A    between atoms: N_5  and  C_12
REMARK    2  A    between atoms: C_8  and  C_13
REMARK    3  A    between atoms: C_12  and  C_14
REMARK    4  A    between atoms: C_17  and  C_21
REMARK    5  A    between atoms: C_20  and  C_24
REMARK    6  A    between atoms: C_27  and  C_28
REMARK                            x       y       z     vdW  Elec       q    Type
REMARK                         _______ _______ _______ _____ _____    ______ ____
ROOT
ATOM      5  N   UNL     1      -7.619 -10.036   8.941  0.00  0.00    -0.297 NA
ATOM      8  C   UNL     1      -9.240  -9.570  10.570  0.00  0.00    +0.092 C 
ATOM      9  C   UNL     1      -8.589  -8.257  10.102  0.00  0.00    +0.029 C 
ATOM     10  C   UNL     1      -8.293 -10.671  10.074  0.00  0.00    +0.097 C 
ATOM     11  C   UNL     1      -7.306  -8.682   9.398  0.00  0.00    +0.085 C 
ENDROOT
BRANCH   8  13
ATOM      4  O   UNL     1      -8.435  -9.829  12.867  0.00  0.00    -0.420 OA
ATOM      6  N   UNL     1     -10.650  -9.573  12.701  0.00  0.00    -0.112 NA
ATOM      7  N   UNL     1     -10.335  -9.707  14.040  0.00  0.00    -0.107 NA
ATOM     13  C   UNL     1      -9.511  -9.650  12.054  0.00  0.00    +0.222 A 
ATOM     17  C   UNL     1      -9.032  -9.855  14.090  0.00  0.00    +0.248 A 
BRANCH  17  21
ATOM     21  C   UNL     1      -8.157 -10.034  15.212  0.00  0.00    +0.038 A 
ATOM     22  C   UNL     1      -6.807 -10.315  15.005  0.00  0.00    +0.013 A 
ATOM     23  C   UNL     1      -8.655  -9.925  16.510  0.00  0.00    +0.013 A 
ATOM     25  C   UNL     1      -5.955 -10.488  16.096  0.00  0.00    +0.004 A 
ATOM     26  C   UNL     1      -7.804 -10.098  17.601  0.00  0.00    +0.004 A 
ATOM     27  C   UNL     1      -6.454 -10.380  17.394  0.00  0.00    -0.050 A 
ATOM     28  C   UNL     1      -5.543 -10.566  18.561  0.00  0.00    +0.044 C 
ENDBRANCH  17  21
ENDBRANCH   8  13
BRANCH   5  12
ATOM     12  C   UNL     1      -6.432 -10.766   8.519  0.00  0.00    +0.119 C 
BRANCH  12  14
ATOM     14  C   UNL     1      -5.277 -10.548   9.461  0.00  0.00    -0.033 A 
ATOM     15  C   UNL     1      -5.440 -10.769  10.828  0.00  0.00    +0.005 A 
ATOM     16  C   UNL     1      -4.043 -10.128   8.964  0.00  0.00    +0.005 A 
ATOM     18  C   UNL     1      -4.369 -10.569  11.700  0.00  0.00    +0.012 A 
ATOM     19  C   UNL     1      -2.972  -9.927   9.836  0.00  0.00    +0.012 A 
ATOM     20  C   UNL     1      -3.136 -10.147  11.204  0.00  0.00    +0.055 A 
BRANCH  20  24
ATOM      1  F   UNL     1      -2.309 -10.135  13.448  0.00  0.00    -0.166 F 
ATOM      2  F   UNL     1      -1.488  -8.669  12.068  0.00  0.00    -0.166 F 
ATOM      3  F   UNL     1      -0.931 -10.763  11.895  0.00  0.00    -0.166 F 
ATOM     24  C   UNL     1      -1.990  -9.936  12.135  0.00  0.00    +0.417 C 
ENDBRANCH  20  24
ENDBRANCH  12  14
ENDBRANCH   5  12
TORSDOF 5
ENDMDL
