MODEL 1
REMARK VINA RESULT:      -0.9      0.000      0.000
REMARK  Name = 44716888
REMARK  14 active torsions:
REMARK  status: ('A' for Active; 'I' for Inactive)
REMARK    1  A    between atoms: O_1  and  C_14
REMARK    2  A    between atoms: O_1  and  C_23
REMARK    3  A    between atoms: O_2  and  C_15
REMARK    4  A    between atoms: O_3  and  C_19
REMARK    5  A    between atoms: N_6  and  C_24
REMARK    6  A    between atoms: N_7  and  C_25
REMARK    7  A    between atoms: C_8  and  C_18
REMARK    8  A    between atoms: C_10  and  C_19
REMARK    9  A    between atoms: C_10  and  C_20
REMARK   10  A    between atoms: C_11  and  C_21
REMARK   11  A    between atoms: C_21  and  C_22
REMARK   12  A    between atoms: C_24  and  C_26
REMARK   13  A    between atoms: C_25  and  C_27
REMARK   14  A    between atoms: C_25  and  C_28
REMARK                            x       y       z     vdW  Elec       q    Type
REMARK                         _______ _______ _______ _____ _____    ______ ____
ROOT
ATOM      8  C   UNL     1      -3.308   2.756  24.538  0.00  0.00    -0.023 C 
ATOM      9  C   UNL     1      -2.161   3.198  25.527  0.00  0.00    +0.007 C 
ATOM     10  C   UNL     1      -0.706   3.291  24.926  0.00  0.00    +0.031 C 
ATOM     11  C   UNL     1      -4.581   2.427  25.424  0.00  0.00    +0.032 C 
ATOM     12  C   UNL     1      -2.853   1.469  23.799  0.00  0.00    +0.011 C 
ATOM     13  C   UNL     1      -2.594   4.422  26.363  0.00  0.00    +0.007 C 
ATOM     14  C   UNL     1      -0.397   1.979  24.144  0.00  0.00    +0.186 C 
ATOM     15  C   UNL     1      -5.005   3.591  26.349  0.00  0.00    +0.119 C 
ATOM     16  C   UNL     1      -1.481   1.588  23.145  0.00  0.00    +0.046 C 
ATOM     17  C   UNL     1      -3.844   4.118  27.188  0.00  0.00    +0.032 C 
ATOM     18  C   UNL     1      -3.651   3.825  23.472  0.00  0.00    +0.012 C 
ATOM     20  C   UNL     1       0.321   3.391  26.092  0.00  0.00    +0.017 C 
ENDROOT
BRANCH  15   2
ATOM      2  O   UNL     1      -5.576   4.657  25.595  0.00  0.00    -0.391 OA
ATOM     34  H   UNL     1      -5.675   4.350  24.678  0.00  0.00    +0.210 HD
ENDBRANCH  15   2
BRANCH  14   1
ATOM      1  O   UNL     1       0.829   2.069  23.420  0.00  0.00    -0.446 OA
BRANCH   1  23
ATOM      5  O   UNL     1       0.905  -0.186  22.989  0.00  0.00    -0.226 OA
ATOM      7  N   UNL     1       2.837   1.084  23.183  0.00  0.00    -0.279 N 
ATOM     23  C   UNL     1       1.473   0.885  23.179  0.00  0.00    +0.401 C 
ATOM     37  H   UNL     1       3.174   2.034  23.308  0.00  0.00    +0.152 HD
BRANCH   7  25
ATOM     25  C   UNL     1       3.802   0.033  22.961  0.00  0.00    +0.070 C 
ATOM     27  C   UNL     1       5.191   0.482  23.398  0.00  0.00    +0.027 C 
ATOM     28  C   UNL     1       3.379  -1.238  23.685  0.00  0.00    +0.027 C 
ENDBRANCH   7  25
ENDBRANCH   1  23
ENDBRANCH  14   1
BRANCH  10  19
ATOM     19  C   UNL     1      -0.466   4.538  24.050  0.00  0.00    +0.166 C 
BRANCH  19   3
ATOM      3  O   UNL     1      -0.605   5.678  24.869  0.00  0.00    -0.394 OA
ATOM     35  H   UNL     1      -0.160   5.486  25.712  0.00  0.00    +0.209 HD
ENDBRANCH  19   3
ENDBRANCH  10  19
BRANCH  11  21
ATOM     21  C   UNL     1      -5.799   1.913  24.639  0.00  0.00    +0.102 C 
BRANCH  21  22
ATOM      4  O   UNL     1      -6.677  -0.239  23.965  0.00  0.00    -0.276 OA
ATOM      6  N   UNL     1      -4.559  -0.108  24.913  0.00  0.00    -0.311 N 
ATOM     22  C   UNL     1      -5.760   0.414  24.455  0.00  0.00    +0.214 C 
ATOM     36  H   UNL     1      -3.872   0.509  25.334  0.00  0.00    +0.149 HD
BRANCH   6  24
ATOM     24  C   UNL     1      -4.242  -1.517  24.865  0.00  0.00    +0.139 C 
BRANCH  24  26
ATOM     26  C   UNL     1      -2.770  -1.769  25.021  0.00  0.00    -0.030 A 
ATOM     29  C   UNL     1      -2.012  -0.962  25.869  0.00  0.00    +0.005 A 
ATOM     30  C   UNL     1      -2.162  -2.810  24.320  0.00  0.00    +0.005 A 
ATOM     31  C   UNL     1      -0.644  -1.195  26.015  0.00  0.00    +0.000 A 
ATOM     32  C   UNL     1      -0.795  -3.044  24.466  0.00  0.00    +0.000 A 
ATOM     33  C   UNL     1      -0.036  -2.236  25.314  0.00  0.00    +0.000 A 
ENDBRANCH  24  26
ENDBRANCH   6  24
ENDBRANCH  21  22
ENDBRANCH  11  21
TORSDOF 10
ENDMDL
MODEL 2
REMARK VINA RESULT:       2.2      1.735      4.760
REMARK  Name = 44716888
REMARK  14 active torsions:
REMARK  status: ('A' for Active; 'I' for Inactive)
REMARK    1  A    between atoms: O_1  and  C_14
REMARK    2  A    between atoms: O_1  and  C_23
REMARK    3  A    between atoms: O_2  and  C_15
REMARK    4  A    between atoms: O_3  and  C_19
REMARK    5  A    between atoms: N_6  and  C_24
REMARK    6  A    between atoms: N_7  and  C_25
REMARK    7  A    between atoms: C_8  and  C_18
REMARK    8  A    between atoms: C_10  and  C_19
REMARK    9  A    between atoms: C_10  and  C_20
REMARK   10  A    between atoms: C_11  and  C_21
REMARK   11  A    between atoms: C_21  and  C_22
REMARK   12  A    between atoms: C_24  and  C_26
REMARK   13  A    between atoms: C_25  and  C_27
REMARK   14  A    between atoms: C_25  and  C_28
REMARK                            x       y       z     vdW  Elec       q    Type
REMARK                         _______ _______ _______ _____ _____    ______ ____
ROOT
ATOM      8  C   UNL     1      -2.435  -0.065  24.396  0.00  0.00    -0.023 C 
ATOM      9  C   UNL     1      -1.420  -1.070  23.726  0.00  0.00    +0.007 C 
ATOM     10  C   UNL     1       0.096  -0.638  23.711  0.00  0.00    +0.031 C 
ATOM     11  C   UNL     1      -3.893  -0.552  24.008  0.00  0.00    +0.032 C 
ATOM     12  C   UNL     1      -2.193   1.349  23.802  0.00  0.00    +0.011 C 
ATOM     13  C   UNL     1      -1.675  -2.515  24.208  0.00  0.00    +0.007 C 
ATOM     14  C   UNL     1       0.201   0.820  23.172  0.00  0.00    +0.186 C 
ATOM     15  C   UNL     1      -4.172  -2.025  24.388  0.00  0.00    +0.119 C 
ATOM     16  C   UNL     1      -0.739   1.802  23.864  0.00  0.00    +0.046 C 
ATOM     17  C   UNL     1      -3.094  -2.972  23.868  0.00  0.00    +0.032 C 
ATOM     18  C   UNL     1      -2.287   0.030  25.935  0.00  0.00    +0.012 C 
ATOM     20  C   UNL     1       0.877  -1.555  22.725  0.00  0.00    +0.017 C 
ENDROOT
BRANCH  15   2
ATOM      2  O   UNL     1      -4.299  -2.170  25.799  0.00  0.00    -0.391 OA
ATOM     34  H   UNL     1      -3.625  -2.805  26.093  0.00  0.00    +0.210 HD
ENDBRANCH  15   2
BRANCH  14   1
ATOM      1  O   UNL     1       1.523   1.341  23.304  0.00  0.00    -0.446 OA
BRANCH   1  23
ATOM      5  O   UNL     1       2.448   0.100  21.607  0.00  0.00    -0.226 OA
ATOM      7  N   UNL     1       3.600   0.524  23.575  0.00  0.00    -0.279 N 
ATOM     23  C   UNL     1       2.520   0.605  22.723  0.00  0.00    +0.401 C 
ATOM     37  H   UNL     1       3.546   1.029  24.455  0.00  0.00    +0.152 HD
BRANCH   7  25
ATOM     25  C   UNL     1       4.818  -0.186  23.262  0.00  0.00    +0.070 C 
ATOM     27  C   UNL     1       6.031   0.586  23.769  0.00  0.00    +0.027 C 
ATOM     28  C   UNL     1       4.777  -1.593  23.842  0.00  0.00    +0.027 C 
ENDBRANCH   7  25
ENDBRANCH   1  23
ENDBRANCH  14   1
BRANCH  10  19
ATOM     19  C   UNL     1       0.807  -0.787  25.072  0.00  0.00    +0.166 C 
BRANCH  19   3
ATOM      3  O   UNL     1       0.563  -2.092  25.549  0.00  0.00    -0.394 OA
ATOM     35  H   UNL     1       0.405  -2.026  26.506  0.00  0.00    +0.209 HD
ENDBRANCH  19   3
ENDBRANCH  10  19
BRANCH  11  21
ATOM     21  C   UNL     1      -5.032   0.344  24.520  0.00  0.00    +0.102 C 
BRANCH  21  22
ATOM      4  O   UNL     1      -4.362   2.368  23.374  0.00  0.00    -0.276 OA
ATOM      6  N   UNL     1      -4.779   2.426  25.660  0.00  0.00    -0.311 N 
ATOM     22  C   UNL     1      -4.684   1.811  24.420  0.00  0.00    +0.214 C 
ATOM     36  H   UNL     1      -5.022   1.873  26.476  0.00  0.00    +0.149 HD
BRANCH   6  24
ATOM     24  C   UNL     1      -4.502   3.828  25.867  0.00  0.00    +0.139 C 
BRANCH  24  26
ATOM     26  C   UNL     1      -3.052   4.154  25.646  0.00  0.00    -0.030 A 
ATOM     29  C   UNL     1      -2.067   3.460  26.348  0.00  0.00    +0.005 A 
ATOM     30  C   UNL     1      -2.692   5.149  24.738  0.00  0.00    +0.005 A 
ATOM     31  C   UNL     1      -0.720   3.761  26.143  0.00  0.00    +0.000 A 
ATOM     32  C   UNL     1      -1.345   5.451  24.532  0.00  0.00    +0.000 A 
ATOM     33  C   UNL     1      -0.360   4.756  25.235  0.00  0.00    +0.000 A 
ENDBRANCH  24  26
ENDBRANCH   6  24
ENDBRANCH  21  22
ENDBRANCH  11  21
TORSDOF 10
ENDMDL
MODEL 3
REMARK VINA RESULT:       2.7      1.929      6.216
REMARK  Name = 44716888
REMARK  14 active torsions:
REMARK  status: ('A' for Active; 'I' for Inactive)
REMARK    1  A    between atoms: O_1  and  C_14
REMARK    2  A    between atoms: O_1  and  C_23
REMARK    3  A    between atoms: O_2  and  C_15
REMARK    4  A    between atoms: O_3  and  C_19
REMARK    5  A    between atoms: N_6  and  C_24
REMARK    6  A    between atoms: N_7  and  C_25
REMARK    7  A    between atoms: C_8  and  C_18
REMARK    8  A    between atoms: C_10  and  C_19
REMARK    9  A    between atoms: C_10  and  C_20
REMARK   10  A    between atoms: C_11  and  C_21
REMARK   11  A    between atoms: C_21  and  C_22
REMARK   12  A    between atoms: C_24  and  C_26
REMARK   13  A    between atoms: C_25  and  C_27
REMARK   14  A    between atoms: C_25  and  C_28
REMARK                            x       y       z     vdW  Elec       q    Type
REMARK                         _______ _______ _______ _____ _____    ______ ____
ROOT
ATOM      8  C   UNL     1      -2.466  -0.065  24.887  0.00  0.00    -0.023 C 
ATOM      9  C   UNL     1      -4.043  -0.056  24.931  0.00  0.00    +0.007 C 
ATOM     10  C   UNL     1      -4.744   1.353  24.841  0.00  0.00    +0.031 C 
ATOM     11  C   UNL     1      -2.000  -1.520  25.313  0.00  0.00    +0.032 C 
ATOM     12  C   UNL     1      -1.938   0.963  25.923  0.00  0.00    +0.011 C 
ATOM     13  C   UNL     1      -4.628  -1.130  23.988  0.00  0.00    +0.007 C 
ATOM     14  C   UNL     1      -4.077   2.317  25.868  0.00  0.00    +0.186 C 
ATOM     15  C   UNL     1      -2.628  -2.643  24.455  0.00  0.00    +0.119 C 
ATOM     16  C   UNL     1      -2.554   2.350  25.782  0.00  0.00    +0.046 C 
ATOM     17  C   UNL     1      -4.148  -2.529  24.373  0.00  0.00    +0.032 C 
ATOM     18  C   UNL     1      -1.883   0.307  23.502  0.00  0.00    +0.012 C 
ATOM     20  C   UNL     1      -6.240   1.205  25.246  0.00  0.00    +0.017 C 
ENDROOT
BRANCH  15   2
ATOM      2  O   UNL     1      -2.075  -2.650  23.142  0.00  0.00    -0.391 OA
ATOM     34  H   UNL     1      -1.303  -2.059  23.144  0.00  0.00    +0.210 HD
ENDBRANCH  15   2
BRANCH  14   1
ATOM      1  O   UNL     1      -4.536   3.659  25.713  0.00  0.00    -0.446 OA
BRANCH   1  23
ATOM      5  O   UNL     1      -3.745   5.508  26.822  0.00  0.00    -0.226 OA
ATOM      7  N   UNL     1      -2.539   4.503  25.116  0.00  0.00    -0.279 N 
ATOM     23  C   UNL     1      -3.616   4.641  25.965  0.00  0.00    +0.401 C 
ATOM     37  H   UNL     1      -2.537   3.709  24.481  0.00  0.00    +0.152 HD
BRANCH   7  25
ATOM     25  C   UNL     1      -1.393   5.382  25.123  0.00  0.00    +0.070 C 
ATOM     27  C   UNL     1      -0.189   4.697  24.487  0.00  0.00    +0.027 C 
ATOM     28  C   UNL     1      -1.722   6.689  24.414  0.00  0.00    +0.027 C 
ENDBRANCH   7  25
ENDBRANCH   1  23
ENDBRANCH  14   1
BRANCH  10  19
ATOM     19  C   UNL     1      -4.754   1.962  23.423  0.00  0.00    +0.166 C 
BRANCH  19   3
ATOM      3  O   UNL     1      -3.575   2.721  23.268  0.00  0.00    -0.394 OA
ATOM     35  H   UNL     1      -3.798   3.495  22.723  0.00  0.00    +0.209 HD
ENDBRANCH  19   3
ENDBRANCH  10  19
BRANCH  11  21
ATOM     21  C   UNL     1      -0.478  -1.714  25.392  0.00  0.00    +0.102 C 
BRANCH  21  22
ATOM      4  O   UNL     1       0.374   0.522  25.033  0.00  0.00    -0.276 OA
ATOM      6  N   UNL     1       0.806  -1.137  23.465  0.00  0.00    -0.311 N 
ATOM     22  C   UNL     1       0.269  -0.636  24.641  0.00  0.00    +0.214 C 
ATOM     36  H   UNL     1       0.637  -2.105  23.208  0.00  0.00    +0.149 HD
BRANCH   6  24
ATOM     24  C   UNL     1       1.571  -0.331  22.541  0.00  0.00    +0.139 C 
BRANCH  24  26
ATOM     26  C   UNL     1       3.011  -0.216  22.954  0.00  0.00    -0.030 A 
ATOM     29  C   UNL     1       3.652  -1.299  23.556  0.00  0.00    +0.005 A 
ATOM     30  C   UNL     1       3.707   0.972  22.735  0.00  0.00    +0.005 A 
ATOM     31  C   UNL     1       4.989  -1.194  23.940  0.00  0.00    +0.000 A 
ATOM     32  C   UNL     1       5.044   1.079  23.118  0.00  0.00    +0.000 A 
ATOM     33  C   UNL     1       5.684  -0.005  23.721  0.00  0.00    +0.000 A 
ENDBRANCH  24  26
ENDBRANCH   6  24
ENDBRANCH  21  22
ENDBRANCH  11  21
TORSDOF 10
ENDMDL
MODEL 4
REMARK VINA RESULT:       2.8      1.763      4.382
REMARK  Name = 44716888
REMARK  14 active torsions:
REMARK  status: ('A' for Active; 'I' for Inactive)
REMARK    1  A    between atoms: O_1  and  C_14
REMARK    2  A    between atoms: O_1  and  C_23
REMARK    3  A    between atoms: O_2  and  C_15
REMARK    4  A    between atoms: O_3  and  C_19
REMARK    5  A    between atoms: N_6  and  C_24
REMARK    6  A    between atoms: N_7  and  C_25
REMARK    7  A    between atoms: C_8  and  C_18
REMARK    8  A    between atoms: C_10  and  C_19
REMARK    9  A    between atoms: C_10  and  C_20
REMARK   10  A    between atoms: C_11  and  C_21
REMARK   11  A    between atoms: C_21  and  C_22
REMARK   12  A    between atoms: C_24  and  C_26
REMARK   13  A    between atoms: C_25  and  C_27
REMARK   14  A    between atoms: C_25  and  C_28
REMARK                            x       y       z     vdW  Elec       q    Type
REMARK                         _______ _______ _______ _____ _____    ______ ____
ROOT
ATOM      8  C   UNL     1      -2.974   0.939  24.170  0.00  0.00    -0.023 C 
ATOM      9  C   UNL     1      -2.863  -0.634  24.135  0.00  0.00    +0.007 C 
ATOM     10  C   UNL     1      -1.423  -1.246  24.327  0.00  0.00    +0.031 C 
ATOM     11  C   UNL     1      -4.422   1.312  23.643  0.00  0.00    +0.032 C 
ATOM     12  C   UNL     1      -1.911   1.529  23.205  0.00  0.00    +0.011 C 
ATOM     13  C   UNL     1      -3.961  -1.285  25.005  0.00  0.00    +0.007 C 
ATOM     14  C   UNL     1      -0.434  -0.521  23.365  0.00  0.00    +0.186 C 
ATOM     15  C   UNL     1      -5.560   0.616  24.425  0.00  0.00    +0.119 C 
ATOM     16  C   UNL     1      -0.502   1.001  23.445  0.00  0.00    +0.046 C 
ATOM     17  C   UNL     1      -5.357  -0.893  24.522  0.00  0.00    +0.032 C 
ATOM     18  C   UNL     1      -2.735   1.545  25.575  0.00  0.00    +0.012 C 
ATOM     20  C   UNL     1      -1.449  -2.748  23.920  0.00  0.00    +0.017 C 
ENDROOT
BRANCH  15   2
ATOM      2  O   UNL     1      -5.692   1.168  25.731  0.00  0.00    -0.391 OA
ATOM     34  H   UNL     1      -5.469   0.471  26.371  0.00  0.00    +0.210 HD
ENDBRANCH  15   2
BRANCH  14   1
ATOM      1  O   UNL     1       0.920  -0.894  23.615  0.00  0.00    -0.446 OA
BRANCH   1  23
ATOM      5  O   UNL     1       1.623  -0.237  21.529  0.00  0.00    -0.226 OA
ATOM      7  N   UNL     1       3.049  -0.217  23.358  0.00  0.00    -0.279 N 
ATOM     23  C   UNL     1       1.847  -0.430  22.719  0.00  0.00    +0.401 C 
ATOM     37  H   UNL     1       3.085  -0.374  24.362  0.00  0.00    +0.152 HD
BRANCH   7  25
ATOM     25  C   UNL     1       4.235   0.272  22.694  0.00  0.00    +0.070 C 
ATOM     27  C   UNL     1       4.137   1.775  22.463  0.00  0.00    +0.027 C 
ATOM     28  C   UNL     1       5.479  -0.084  23.499  0.00  0.00    +0.027 C 
ENDBRANCH   7  25
ENDBRANCH   1  23
ENDBRANCH  14   1
BRANCH  10  19
ATOM     19  C   UNL     1      -0.914  -1.216  25.782  0.00  0.00    +0.166 C 
BRANCH  19   3
ATOM      3  O   UNL     1       0.201  -2.075  25.871  0.00  0.00    -0.394 OA
ATOM     35  H   UNL     1       0.988  -1.518  25.994  0.00  0.00    +0.209 HD
ENDBRANCH  19   3
ENDBRANCH  10  19
BRANCH  11  21
ATOM     21  C   UNL     1      -4.705   2.820  23.542  0.00  0.00    +0.102 C 
BRANCH  21  22
ATOM      4  O   UNL     1      -4.489   3.759  25.761  0.00  0.00    -0.276 OA
ATOM      6  N   UNL     1      -2.798   4.094  24.203  0.00  0.00    -0.311 N 
ATOM     22  C   UNL     1      -4.017   3.598  24.640  0.00  0.00    +0.214 C 
ATOM     36  H   UNL     1      -2.507   3.936  23.243  0.00  0.00    +0.149 HD
BRANCH   6  24
ATOM     24  C   UNL     1      -1.922   4.881  25.040  0.00  0.00    +0.139 C 
BRANCH  24  26
ATOM     26  C   UNL     1      -0.989   4.020  25.844  0.00  0.00    -0.030 A 
ATOM     29  C   UNL     1      -1.327   3.657  27.148  0.00  0.00    +0.005 A 
ATOM     30  C   UNL     1       0.212   3.584  25.287  0.00  0.00    +0.005 A 
ATOM     31  C   UNL     1      -0.462   2.857  27.896  0.00  0.00    +0.000 A 
ATOM     32  C   UNL     1       1.077   2.784  26.034  0.00  0.00    +0.000 A 
ATOM     33  C   UNL     1       0.740   2.421  27.338  0.00  0.00    +0.000 A 
ENDBRANCH  24  26
ENDBRANCH   6  24
ENDBRANCH  21  22
ENDBRANCH  11  21
TORSDOF 10
ENDMDL
MODEL 5
REMARK VINA RESULT:       2.8      1.544      5.526
REMARK  Name = 44716888
REMARK  14 active torsions:
REMARK  status: ('A' for Active; 'I' for Inactive)
REMARK    1  A    between atoms: O_1  and  C_14
REMARK    2  A    between atoms: O_1  and  C_23
REMARK    3  A    between atoms: O_2  and  C_15
REMARK    4  A    between atoms: O_3  and  C_19
REMARK    5  A    between atoms: N_6  and  C_24
REMARK    6  A    between atoms: N_7  and  C_25
REMARK    7  A    between atoms: C_8  and  C_18
REMARK    8  A    between atoms: C_10  and  C_19
REMARK    9  A    between atoms: C_10  and  C_20
REMARK   10  A    between atoms: C_11  and  C_21
REMARK   11  A    between atoms: C_21  and  C_22
REMARK   12  A    between atoms: C_24  and  C_26
REMARK   13  A    between atoms: C_25  and  C_27
REMARK   14  A    between atoms: C_25  and  C_28
REMARK                            x       y       z     vdW  Elec       q    Type
REMARK                         _______ _______ _______ _____ _____    ______ ____
ROOT
ATOM      8  C   UNL     1      -2.084   2.320  24.429  0.00  0.00    -0.023 C 
ATOM      9  C   UNL     1      -3.611   2.678  24.598  0.00  0.00    +0.007 C 
ATOM     10  C   UNL     1      -4.606   1.467  24.768  0.00  0.00    +0.031 C 
ATOM     11  C   UNL     1      -1.348   3.644  23.960  0.00  0.00    +0.032 C 
ATOM     12  C   UNL     1      -1.951   1.242  23.320  0.00  0.00    +0.011 C 
ATOM     13  C   UNL     1      -3.801   3.817  25.623  0.00  0.00    +0.007 C 
ATOM     14  C   UNL     1      -4.323   0.419  23.650  0.00  0.00    +0.186 C 
ATOM     15  C   UNL     1      -1.579   4.845  24.907  0.00  0.00    +0.119 C 
ATOM     16  C   UNL     1      -2.852   0.031  23.529  0.00  0.00    +0.046 C 
ATOM     17  C   UNL     1      -3.059   5.082  25.192  0.00  0.00    +0.032 C 
ATOM     18  C   UNL     1      -1.432   1.765  25.719  0.00  0.00    +0.012 C 
ATOM     20  C   UNL     1      -6.065   1.975  24.569  0.00  0.00    +0.017 C 
ENDROOT
BRANCH  15   2
ATOM      2  O   UNL     1      -0.875   4.668  26.133  0.00  0.00    -0.391 OA
ATOM     34  H   UNL     1      -0.683   3.719  26.229  0.00  0.00    +0.210 HD
ENDBRANCH  15   2
BRANCH  14   1
ATOM      1  O   UNL     1      -5.060  -0.786  23.851  0.00  0.00    -0.446 OA
BRANCH   1  23
ATOM      5  O   UNL     1      -4.668  -3.027  23.536  0.00  0.00    -0.226 OA
ATOM      7  N   UNL     1      -3.140  -1.663  24.626  0.00  0.00    -0.279 N 
ATOM     23  C   UNL     1      -4.320  -1.931  23.965  0.00  0.00    +0.401 C 
ATOM     37  H   UNL     1      -2.954  -0.699  24.887  0.00  0.00    +0.152 HD
BRANCH   7  25
ATOM     25  C   UNL     1      -2.134  -2.660  24.909  0.00  0.00    +0.070 C 
ATOM     27  C   UNL     1      -1.783  -3.439  23.647  0.00  0.00    +0.027 C 
ATOM     28  C   UNL     1      -0.899  -2.009  25.519  0.00  0.00    +0.027 C 
ENDBRANCH   7  25
ENDBRANCH   1  23
ENDBRANCH  14   1
BRANCH  10  19
ATOM     19  C   UNL     1      -4.577   0.818  26.167  0.00  0.00    +0.166 C 
BRANCH  19   3
ATOM      3  O   UNL     1      -5.848   0.990  26.753  0.00  0.00    -0.394 OA
ATOM     35  H   UNL     1      -6.470   1.209  26.039  0.00  0.00    +0.209 HD
ENDBRANCH  19   3
ENDBRANCH  10  19
BRANCH  11  21
ATOM     21  C   UNL     1       0.154   3.483  23.677  0.00  0.00    +0.102 C 
BRANCH  21  22
ATOM      4  O   UNL     1       0.861   1.750  25.212  0.00  0.00    -0.276 OA
ATOM      6  N   UNL     1       0.848   1.326  22.927  0.00  0.00    -0.311 N 
ATOM     22  C   UNL     1       0.655   2.109  24.056  0.00  0.00    +0.214 C 
ATOM     36  H   UNL     1       0.682   1.723  22.007  0.00  0.00    +0.149 HD
BRANCH   6  24
ATOM     24  C   UNL     1       1.326  -0.036  22.984  0.00  0.00    +0.139 C 
BRANCH  24  26
ATOM     26  C   UNL     1       2.813  -0.103  23.188  0.00  0.00    -0.030 A 
ATOM     29  C   UNL     1       3.611   0.991  22.853  0.00  0.00    +0.005 A 
ATOM     30  C   UNL     1       3.394  -1.257  23.712  0.00  0.00    +0.005 A 
ATOM     31  C   UNL     1       4.992   0.930  23.042  0.00  0.00    +0.000 A 
ATOM     32  C   UNL     1       4.775  -1.319  23.900  0.00  0.00    +0.000 A 
ATOM     33  C   UNL     1       5.573  -0.224  23.565  0.00  0.00    +0.000 A 
ENDBRANCH  24  26
ENDBRANCH   6  24
ENDBRANCH  21  22
ENDBRANCH  11  21
TORSDOF 10
ENDMDL
