MODEL 1
REMARK VINA RESULT:       6.6      0.000      0.000
REMARK  Name = 45783965
REMARK  11 active torsions:
REMARK  status: ('A' for Active; 'I' for Inactive)
REMARK    1  A    between atoms: O_2  and  C_36
REMARK    2  A    between atoms: O_2  and  C_37
REMARK    3  A    between atoms: N_3  and  C_14
REMARK    4  A    between atoms: C_9  and  C_13
REMARK    5  A    between atoms: C_10  and  C_14
REMARK    6  A    between atoms: C_12  and  C_17
REMARK    7  A    between atoms: C_13  and  C_18
REMARK    8  A    between atoms: C_13  and  C_19
REMARK    9  A    between atoms: C_16  and  C_22
REMARK   10  A    between atoms: C_17  and  C_25
REMARK   11  A    between atoms: C_27  and  C_29
REMARK                            x       y       z     vdW  Elec       q    Type
REMARK                         _______ _______ _______ _____ _____    ______ ____
ROOT
ATOM      9  C   UNL     1      -2.084   4.380  23.769  0.00  0.00    +0.000 C 
ATOM     10  C   UNL     1      -1.403   3.324  24.670  0.00  0.00    +0.029 C 
ATOM     11  C   UNL     1      -3.607   4.345  23.957  0.00  0.00    +0.012 C 
ATOM     12  C   UNL     1      -4.047   4.560  25.421  0.00  0.00    +0.024 C 
ATOM     15  C   UNL     1      -1.973   3.299  26.066  0.00  0.00    -0.023 C 
ATOM     16  C   UNL     1      -3.145   3.855  26.423  0.00  0.00    -0.073 C 
ATOM     22  C   UNL     1      -3.579   3.848  27.863  0.00  0.00    +0.039 C 
ENDROOT
BRANCH   9  13
ATOM     13  C   UNL     1      -1.524   5.784  24.030  0.00  0.00    -0.013 C 
ATOM     18  C   UNL     1      -0.105   5.698  24.581  0.00  0.00    +0.007 C 
ATOM     19  C   UNL     1      -2.431   6.550  24.989  0.00  0.00    +0.007 C 
ENDBRANCH   9  13
BRANCH  10  14
ATOM     14  C   UNL     1      -1.492   1.920  24.065  0.00  0.00    +0.092 C 
BRANCH  14   3
ATOM      3  N   UNL     1      -0.209   1.524  23.486  0.00  0.00    -0.299 NA
ATOM      4  N   UNL     1       2.413   0.391  23.486  0.00  0.00    -0.312 N 
ATOM      7  N   UNL     1       4.652   0.601  22.717  0.00  0.00    -0.237 NA
ATOM      8  N   UNL     1       5.216  -1.895  23.866  0.00  0.00    -0.258 NA
ATOM     20  C   UNL     1      -0.028   0.070  23.579  0.00  0.00    +0.103 C 
ATOM     21  C   UNL     1       0.896   2.211  24.166  0.00  0.00    +0.103 C 
ATOM     23  C   UNL     1       1.288  -0.364  22.926  0.00  0.00    +0.122 C 
ATOM     24  C   UNL     1       2.241   1.848  23.531  0.00  0.00    +0.122 C 
ATOM     26  C   UNL     1       3.713  -0.114  23.369  0.00  0.00    +0.140 A 
ATOM     28  C   UNL     1       3.991  -1.340  23.934  0.00  0.00    +0.154 A 
ATOM     30  C   UNL     1       5.878   0.045  22.648  0.00  0.00    +0.132 A 
ATOM     31  C   UNL     1       6.156  -1.180  23.213  0.00  0.00    +0.130 A 
ENDBRANCH  14   3
ENDBRANCH  10  14
BRANCH  12  17
ATOM     17  C   UNL     1      -5.519   4.151  25.555  0.00  0.00    +0.105 C 
BRANCH  17  25
ATOM      1  O   UNL     1      -4.601   1.906  25.281  0.00  0.00    -0.420 OA
ATOM      5  N   UNL     1      -6.813   2.037  24.968  0.00  0.00    -0.112 NA
ATOM      6  N   UNL     1      -6.432   0.721  24.783  0.00  0.00    -0.107 NA
ATOM     25  C   UNL     1      -5.713   2.692  25.257  0.00  0.00    +0.218 A 
ATOM     27  C   UNL     1      -5.134   0.691  24.976  0.00  0.00    +0.248 A 
BRANCH  27  29
ATOM     29  C   UNL     1      -4.208  -0.402  24.917  0.00  0.00    +0.039 A 
ATOM     32  C   UNL     1      -4.407  -1.435  24.000  0.00  0.00    +0.017 A 
ATOM     33  C   UNL     1      -3.108  -0.433  25.774  0.00  0.00    +0.017 A 
ATOM     34  C   UNL     1      -3.505  -2.498  23.942  0.00  0.00    +0.046 A 
ATOM     35  C   UNL     1      -2.207  -1.496  25.716  0.00  0.00    +0.046 A 
ATOM     36  C   UNL     1      -2.406  -2.529  24.800  0.00  0.00    +0.120 A 
BRANCH  36   2
ATOM      2  O   UNL     1      -1.525  -3.564  24.741  0.00  0.00    -0.495 OA
ATOM     37  C   UNL     1      -0.183  -3.299  25.147  0.00  0.00    +0.277 C 
ENDBRANCH  36   2
ENDBRANCH  27  29
ENDBRANCH  17  25
ENDBRANCH  12  17
TORSDOF 7
ENDMDL
MODEL 2
REMARK VINA RESULT:      10.0      3.124      5.434
REMARK  Name = 45783965
REMARK  11 active torsions:
REMARK  status: ('A' for Active; 'I' for Inactive)
REMARK    1  A    between atoms: O_2  and  C_36
REMARK    2  A    between atoms: O_2  and  C_37
REMARK    3  A    between atoms: N_3  and  C_14
REMARK    4  A    between atoms: C_9  and  C_13
REMARK    5  A    between atoms: C_10  and  C_14
REMARK    6  A    between atoms: C_12  and  C_17
REMARK    7  A    between atoms: C_13  and  C_18
REMARK    8  A    between atoms: C_13  and  C_19
REMARK    9  A    between atoms: C_16  and  C_22
REMARK   10  A    between atoms: C_17  and  C_25
REMARK   11  A    between atoms: C_27  and  C_29
REMARK                            x       y       z     vdW  Elec       q    Type
REMARK                         _______ _______ _______ _____ _____    ______ ____
ROOT
ATOM      9  C   UNL     1      -3.033   2.873  22.893  0.00  0.00    +0.000 C 
ATOM     10  C   UNL     1      -3.985   3.864  23.600  0.00  0.00    +0.029 C 
ATOM     11  C   UNL     1      -2.812   1.627  23.762  0.00  0.00    +0.012 C 
ATOM     12  C   UNL     1      -4.124   0.902  24.134  0.00  0.00    +0.024 C 
ATOM     15  C   UNL     1      -5.176   3.181  24.222  0.00  0.00    -0.023 C 
ATOM     16  C   UNL     1      -5.262   1.859  24.459  0.00  0.00    -0.073 C 
ATOM     22  C   UNL     1      -6.532   1.267  25.005  0.00  0.00    +0.039 C 
ENDROOT
BRANCH   9  13
ATOM     13  C   UNL     1      -3.552   2.493  21.500  0.00  0.00    -0.013 C 
ATOM     18  C   UNL     1      -2.452   1.820  20.687  0.00  0.00    +0.007 C 
ATOM     19  C   UNL     1      -4.084   3.726  20.775  0.00  0.00    +0.007 C 
ENDBRANCH   9  13
BRANCH  10  14
ATOM     14  C   UNL     1      -3.258   4.684  24.670  0.00  0.00    +0.092 C 
BRANCH  14   3
ATOM      3  N   UNL     1      -2.124   3.937  25.212  0.00  0.00    -0.299 NA
ATOM      4  N   UNL     1      -0.141   3.248  27.150  0.00  0.00    -0.312 N 
ATOM      7  N   UNL     1       2.120   2.621  27.519  0.00  0.00    -0.237 NA
ATOM      8  N   UNL     1       1.517   2.274  30.236  0.00  0.00    -0.258 NA
ATOM     20  C   UNL     1      -2.504   3.250  26.452  0.00  0.00    +0.103 C 
ATOM     21  C   UNL     1      -0.990   4.835  25.464  0.00  0.00    +0.103 C 
ATOM     23  C   UNL     1      -1.341   2.419  27.000  0.00  0.00    +0.122 C 
ATOM     24  C   UNL     1       0.223   4.055  25.978  0.00  0.00    +0.122 C 
ATOM     26  C   UNL     1       0.883   2.837  28.009  0.00  0.00    +0.140 A 
ATOM     28  C   UNL     1       0.587   2.667  29.344  0.00  0.00    +0.154 A 
ATOM     30  C   UNL     1       3.050   2.226  28.412  0.00  0.00    +0.132 A 
ATOM     31  C   UNL     1       2.755   2.057  29.747  0.00  0.00    +0.130 A 
ENDBRANCH  14   3
ENDBRANCH  10  14
BRANCH  12  17
ATOM     17  C   UNL     1      -3.832  -0.083  25.273  0.00  0.00    +0.105 C 
BRANCH  17  25
ATOM      1  O   UNL     1      -1.498  -0.068  24.559  0.00  0.00    -0.420 OA
ATOM      5  N   UNL     1      -2.223  -2.058  25.276  0.00  0.00    -0.112 NA
ATOM      6  N   UNL     1      -0.898  -2.194  24.906  0.00  0.00    -0.107 NA
ATOM     25  C   UNL     1      -2.531  -0.802  25.056  0.00  0.00    +0.218 A 
ATOM     27  C   UNL     1      -0.516  -1.008  24.495  0.00  0.00    +0.248 A 
BRANCH  27  29
ATOM     29  C   UNL     1       0.752  -0.559  23.998  0.00  0.00    +0.039 A 
ATOM     32  C   UNL     1       0.912   0.766  23.593  0.00  0.00    +0.017 A 
ATOM     33  C   UNL     1       1.825  -1.446  23.921  0.00  0.00    +0.017 A 
ATOM     34  C   UNL     1       2.146   1.203  23.110  0.00  0.00    +0.046 A 
ATOM     35  C   UNL     1       3.059  -1.009  23.438  0.00  0.00    +0.046 A 
ATOM     36  C   UNL     1       3.219   0.316  23.033  0.00  0.00    +0.120 A 
BRANCH  36   2
ATOM      2  O   UNL     1       4.424   0.743  22.565  0.00  0.00    -0.495 OA
ATOM     37  C   UNL     1       5.589   0.167  23.153  0.00  0.00    +0.277 C 
ENDBRANCH  36   2
ENDBRANCH  27  29
ENDBRANCH  17  25
ENDBRANCH  12  17
TORSDOF 7
ENDMDL
MODEL 3
REMARK VINA RESULT:      10.1      2.387      6.751
REMARK  Name = 45783965
REMARK  11 active torsions:
REMARK  status: ('A' for Active; 'I' for Inactive)
REMARK    1  A    between atoms: O_2  and  C_36
REMARK    2  A    between atoms: O_2  and  C_37
REMARK    3  A    between atoms: N_3  and  C_14
REMARK    4  A    between atoms: C_9  and  C_13
REMARK    5  A    between atoms: C_10  and  C_14
REMARK    6  A    between atoms: C_12  and  C_17
REMARK    7  A    between atoms: C_13  and  C_18
REMARK    8  A    between atoms: C_13  and  C_19
REMARK    9  A    between atoms: C_16  and  C_22
REMARK   10  A    between atoms: C_17  and  C_25
REMARK   11  A    between atoms: C_27  and  C_29
REMARK                            x       y       z     vdW  Elec       q    Type
REMARK                         _______ _______ _______ _____ _____    ______ ____
ROOT
ATOM      9  C   UNL     1      -2.485   4.351  25.720  0.00  0.00    +0.000 C 
ATOM     10  C   UNL     1      -3.786   4.403  24.887  0.00  0.00    +0.029 C 
ATOM     11  C   UNL     1      -1.902   2.931  25.716  0.00  0.00    +0.012 C 
ATOM     12  C   UNL     1      -1.625   2.388  24.298  0.00  0.00    +0.024 C 
ATOM     15  C   UNL     1      -3.669   3.659  23.581  0.00  0.00    -0.023 C 
ATOM     16  C   UNL     1      -2.706   2.764  23.295  0.00  0.00    -0.073 C 
ATOM     22  C   UNL     1      -2.631   2.142  21.928  0.00  0.00    +0.039 C 
ENDROOT
BRANCH   9  13
ATOM     13  C   UNL     1      -1.458   5.375  25.220  0.00  0.00    -0.013 C 
ATOM     18  C   UNL     1      -2.100   6.328  24.218  0.00  0.00    +0.007 C 
ATOM     19  C   UNL     1      -0.257   4.666  24.600  0.00  0.00    +0.007 C 
ENDBRANCH   9  13
BRANCH  10  14
ATOM     14  C   UNL     1      -4.984   3.860  25.672  0.00  0.00    +0.092 C 
BRANCH  14   3
ATOM      3  N   UNL     1      -5.090   2.409  25.516  0.00  0.00    -0.299 NA
ATOM      4  N   UNL     1      -4.222  -0.201  24.746  0.00  0.00    -0.312 N 
ATOM      7  N   UNL     1      -4.844  -2.282  23.784  0.00  0.00    -0.237 NA
ATOM      8  N   UNL     1      -2.282  -3.255  24.379  0.00  0.00    -0.258 NA
ATOM     20  C   UNL     1      -4.023   1.731  26.262  0.00  0.00    +0.103 C 
ATOM     21  C   UNL     1      -5.022   2.039  24.096  0.00  0.00    +0.103 C 
ATOM     23  C   UNL     1      -4.156   0.210  26.152  0.00  0.00    +0.122 C 
ATOM     24  C   UNL     1      -5.189   0.528  23.916  0.00  0.00    +0.122 C 
ATOM     26  C   UNL     1      -3.915  -1.519  24.394  0.00  0.00    +0.140 A 
ATOM     28  C   UNL     1      -2.656  -1.998  24.685  0.00  0.00    +0.154 A 
ATOM     30  C   UNL     1      -4.471  -3.540  23.478  0.00  0.00    +0.132 A 
ATOM     31  C   UNL     1      -3.212  -4.018  23.769  0.00  0.00    +0.130 A 
ENDBRANCH  14   3
ENDBRANCH  10  14
BRANCH  12  17
ATOM     17  C   UNL     1      -1.398   0.874  24.389  0.00  0.00    +0.105 C 
BRANCH  17  25
ATOM      1  O   UNL     1       0.984   0.480  24.031  0.00  0.00    -0.420 OA
ATOM      5  N   UNL     1      -0.300   0.001  22.263  0.00  0.00    -0.112 NA
ATOM      6  N   UNL     1       1.013  -0.267  21.923  0.00  0.00    -0.107 NA
ATOM     25  C   UNL     1      -0.269   0.434  23.501  0.00  0.00    +0.218 A 
ATOM     27  C   UNL     1       1.727   0.027  22.984  0.00  0.00    +0.248 A 
BRANCH  27  29
ATOM     29  C   UNL     1       3.141  -0.054  23.207  0.00  0.00    +0.039 A 
ATOM     32  C   UNL     1       3.952   1.053  22.956  0.00  0.00    +0.017 A 
ATOM     33  C   UNL     1       3.706  -1.240  23.677  0.00  0.00    +0.017 A 
ATOM     34  C   UNL     1       5.328   0.973  23.173  0.00  0.00    +0.046 A 
ATOM     35  C   UNL     1       5.082  -1.319  23.895  0.00  0.00    +0.046 A 
ATOM     36  C   UNL     1       5.892  -0.212  23.643  0.00  0.00    +0.120 A 
BRANCH  36   2
ATOM      2  O   UNL     1       7.234  -0.289  23.859  0.00  0.00    -0.495 OA
ATOM     37  C   UNL     1       8.052  -0.637  22.743  0.00  0.00    +0.277 C 
ENDBRANCH  36   2
ENDBRANCH  27  29
ENDBRANCH  17  25
ENDBRANCH  12  17
TORSDOF 7
ENDMDL
MODEL 4
REMARK VINA RESULT:      10.6      2.911      5.075
REMARK  Name = 45783965
REMARK  11 active torsions:
REMARK  status: ('A' for Active; 'I' for Inactive)
REMARK    1  A    between atoms: O_2  and  C_36
REMARK    2  A    between atoms: O_2  and  C_37
REMARK    3  A    between atoms: N_3  and  C_14
REMARK    4  A    between atoms: C_9  and  C_13
REMARK    5  A    between atoms: C_10  and  C_14
REMARK    6  A    between atoms: C_12  and  C_17
REMARK    7  A    between atoms: C_13  and  C_18
REMARK    8  A    between atoms: C_13  and  C_19
REMARK    9  A    between atoms: C_16  and  C_22
REMARK   10  A    between atoms: C_17  and  C_25
REMARK   11  A    between atoms: C_27  and  C_29
REMARK                            x       y       z     vdW  Elec       q    Type
REMARK                         _______ _______ _______ _____ _____    ______ ____
ROOT
ATOM      9  C   UNL     1      -4.588   1.208  25.779  0.00  0.00    +0.000 C 
ATOM     10  C   UNL     1      -3.790   0.263  24.852  0.00  0.00    +0.029 C 
ATOM     11  C   UNL     1      -3.966   2.611  25.782  0.00  0.00    +0.012 C 
ATOM     12  C   UNL     1      -3.866   3.237  24.374  0.00  0.00    +0.024 C 
ATOM     15  C   UNL     1      -3.427   0.909  23.540  0.00  0.00    -0.023 C 
ATOM     16  C   UNL     1      -3.465   2.233  23.303  0.00  0.00    -0.073 C 
ATOM     22  C   UNL     1      -3.165   2.767  21.929  0.00  0.00    +0.039 C 
ENDROOT
BRANCH   9  13
ATOM     13  C   UNL     1      -6.070   1.258  25.386  0.00  0.00    -0.013 C 
ATOM     18  C   UNL     1      -6.345   2.470  24.503  0.00  0.00    +0.007 C 
ATOM     19  C   UNL     1      -6.951   1.285  26.631  0.00  0.00    +0.007 C 
ENDBRANCH   9  13
BRANCH  10  14
ATOM     14  C   UNL     1      -2.516  -0.253  25.530  0.00  0.00    +0.092 C 
BRANCH  14   3
ATOM      3  N   UNL     1      -1.383  -0.204  24.607  0.00  0.00    -0.299 NA
ATOM      4  N   UNL     1       1.374  -0.225  23.860  0.00  0.00    -0.312 N 
ATOM      7  N   UNL     1       3.044   0.717  22.457  0.00  0.00    -0.237 NA
ATOM      8  N   UNL     1       4.862  -1.173  23.454  0.00  0.00    -0.258 NA
ATOM     20  C   UNL     1      -0.602  -1.445  24.682  0.00  0.00    +0.103 C 
ATOM     21  C   UNL     1      -0.523   0.947  24.911  0.00  0.00    +0.103 C 
ATOM     23  C   UNL     1       0.556  -1.428  23.680  0.00  0.00    +0.122 C 
ATOM     24  C   UNL     1       0.636   1.043  23.915  0.00  0.00    +0.122 C 
ATOM     26  C   UNL     1       2.687  -0.202  23.377  0.00  0.00    +0.140 A 
ATOM     28  C   UNL     1       3.581  -1.129  23.867  0.00  0.00    +0.154 A 
ATOM     30  C   UNL     1       4.326   0.673  22.043  0.00  0.00    +0.132 A 
ATOM     31  C   UNL     1       5.220  -0.254  22.533  0.00  0.00    +0.130 A 
ENDBRANCH  14   3
ENDBRANCH  10  14
BRANCH  12  17
ATOM     17  C   UNL     1      -2.922   4.445  24.441  0.00  0.00    +0.105 C 
BRANCH  17  25
ATOM      1  O   UNL     1      -1.345   3.712  26.154  0.00  0.00    -0.420 OA
ATOM      5  N   UNL     1      -0.447   3.938  24.117  0.00  0.00    -0.112 NA
ATOM      6  N   UNL     1       0.550   3.521  24.980  0.00  0.00    -0.107 NA
ATOM     25  C   UNL     1      -1.534   4.035  24.845  0.00  0.00    +0.218 A 
ATOM     27  C   UNL     1      -0.019   3.402  26.156  0.00  0.00    +0.248 A 
BRANCH  27  29
ATOM     29  C   UNL     1       0.529   3.004  27.420  0.00  0.00    +0.039 A 
ATOM     32  C   UNL     1       1.912   2.955  27.596  0.00  0.00    +0.017 A 
ATOM     33  C   UNL     1      -0.320   2.667  28.474  0.00  0.00    +0.017 A 
ATOM     34  C   UNL     1       2.446   2.567  28.826  0.00  0.00    +0.046 A 
ATOM     35  C   UNL     1       0.213   2.280  29.704  0.00  0.00    +0.046 A 
ATOM     36  C   UNL     1       1.596   2.230  29.879  0.00  0.00    +0.120 A 
BRANCH  36   2
ATOM      2  O   UNL     1       2.116   1.856  31.080  0.00  0.00    -0.495 OA
ATOM     37  C   UNL     1       1.244   1.905  32.209  0.00  0.00    +0.277 C 
ENDBRANCH  36   2
ENDBRANCH  27  29
ENDBRANCH  17  25
ENDBRANCH  12  17
TORSDOF 7
ENDMDL
