MODEL 1
REMARK VINA RESULT:       4.9      0.000      0.000
REMARK  Name = 45784432
REMARK  10 active torsions:
REMARK  status: ('A' for Active; 'I' for Inactive)
REMARK    1  A    between atoms: O_3  and  C_12
REMARK    2  A    between atoms: N_6  and  C_16
REMARK    3  A    between atoms: N_7  and  C_25
REMARK    4  A    between atoms: N_8  and  C_26
REMARK    5  A    between atoms: C_9  and  C_19
REMARK    6  A    between atoms: C_11  and  C_21
REMARK    7  A    between atoms: C_15  and  C_20
REMARK    8  A    between atoms: C_20  and  C_22
REMARK    9  A    between atoms: C_20  and  C_23
REMARK   10  A    between atoms: C_25  and  C_27
REMARK                            x       y       z     vdW  Elec       q    Type
REMARK                         _______ _______ _______ _____ _____    ______ ____
ROOT
ATOM      9  C   UNL     1      -2.525  -0.794  24.798  0.00  0.00    -0.027 C 
ATOM     10  C   UNL     1      -2.706   0.387  23.787  0.00  0.00    +0.028 C 
ATOM     11  C   UNL     1      -1.313   0.922  23.295  0.00  0.00    +0.012 C 
ATOM     12  C   UNL     1      -3.677   1.465  24.348  0.00  0.00    +0.122 C 
ATOM     13  C   UNL     1      -3.910  -1.370  25.173  0.00  0.00    +0.007 C 
ATOM     14  C   UNL     1      -1.715  -1.921  24.116  0.00  0.00    +0.009 C 
ATOM     15  C   UNL     1      -5.023   0.866  24.819  0.00  0.00    +0.029 C 
ATOM     16  C   UNL     1      -0.479  -0.236  22.680  0.00  0.00    +0.078 C 
ATOM     17  C   UNL     1      -4.849  -0.325  25.760  0.00  0.00    +0.007 C 
ATOM     18  C   UNL     1      -0.362  -1.455  23.595  0.00  0.00    +0.023 C 
ATOM     19  C   UNL     1      -1.798  -0.358  26.095  0.00  0.00    +0.011 C 
ATOM     21  C   UNL     1      -1.420   2.067  22.274  0.00  0.00    +0.010 C 
ENDROOT
BRANCH  16   6
ATOM      5  O   UNL     1       1.945  -0.804  24.099  0.00  0.00    -0.253 OA
ATOM      6  N   UNL     1       0.856   0.197  22.322  0.00  0.00    -0.296 N 
ATOM      8  N   UNL     1       3.130   0.426  22.489  0.00  0.00    -0.269 N 
ATOM     24  C   UNL     1       1.988  -0.127  23.074  0.00  0.00    +0.304 C 
ATOM     36  H   UNL     1       0.963   0.828  21.534  0.00  0.00    +0.151 HD
ATOM     39  H   UNL     1       2.993   0.961  21.636  0.00  0.00    +0.156 HD
BRANCH   8  26
ATOM      2  F   UNL     1       7.595  -1.265  21.985  0.00  0.00    -0.205 F 
ATOM     26  C   UNL     1       4.468   0.331  22.938  0.00  0.00    +0.037 A 
ATOM     28  C   UNL     1       5.391  -0.435  22.225  0.00  0.00    +0.061 A 
ATOM     29  C   UNL     1       4.866   1.004  24.094  0.00  0.00    +0.023 A 
ATOM     31  C   UNL     1       6.710  -0.528  22.669  0.00  0.00    +0.125 A 
ATOM     32  C   UNL     1       6.184   0.910  24.537  0.00  0.00    +0.005 A 
ATOM     35  C   UNL     1       7.107   0.144  23.824  0.00  0.00    +0.038 A 
ENDBRANCH   8  26
ENDBRANCH  16   6
BRANCH  12   3
ATOM      3  O   UNL     1      -3.987   2.408  23.322  0.00  0.00    -0.391 OA
ATOM     37  H   UNL     1      -4.953   2.428  23.210  0.00  0.00    +0.210 HD
ENDBRANCH  12   3
BRANCH  15  20
ATOM     20  C   UNL     1      -5.912   1.922  25.488  0.00  0.00    +0.077 C 
ATOM     22  C   UNL     1      -7.193   2.114  24.685  0.00  0.00    +0.017 C 
BRANCH  20  23
ATOM      4  O   UNL     1      -5.462   4.259  25.033  0.00  0.00    -0.276 OA
ATOM      7  N   UNL     1      -4.067   3.125  26.500  0.00  0.00    -0.310 N 
ATOM     23  C   UNL     1      -5.144   3.233  25.632  0.00  0.00    +0.216 C 
ATOM     38  H   UNL     1      -3.862   2.229  26.933  0.00  0.00    +0.149 HD
BRANCH   7  25
ATOM     25  C   UNL     1      -3.189   4.234  26.796  0.00  0.00    +0.146 C 
BRANCH  25  27
ATOM      1  S   UNL     1      -0.824   2.973  26.065  0.00  0.00    -0.100 S 
ATOM     27  C   UNL     1      -1.971   4.236  25.918  0.00  0.00    +0.007 A 
ATOM     30  C   UNL     1      -1.610   5.152  24.954  0.00  0.00    +0.013 A 
ATOM     33  C   UNL     1      -0.376   4.811  24.328  0.00  0.00    +0.008 A 
ATOM     34  C   UNL     1       0.159   3.649  24.838  0.00  0.00    +0.045 A 
ENDBRANCH  25  27
ENDBRANCH   7  25
ENDBRANCH  20  23
ENDBRANCH  15  20
TORSDOF 7
ENDMDL
