MODEL 1
REMARK VINA RESULT:       5.5      0.000      0.000
REMARK  Name = 51136849
REMARK  7 active torsions:
REMARK  status: ('A' for Active; 'I' for Inactive)
REMARK    1  A    between atoms: O_2  and  C_33
REMARK    2  A    between atoms: N_4  and  C_14
REMARK    3  A    between atoms: N_6  and  C_25
REMARK    4  A    between atoms: C_10  and  C_15
REMARK    5  A    between atoms: C_14  and  C_16
REMARK    6  A    between atoms: C_21  and  C_26
REMARK    7  A    between atoms: C_32  and  C_33
REMARK                            x       y       z     vdW  Elec       q    Type
REMARK                         _______ _______ _______ _____ _____    ______ ____
ROOT
ATOM      1  O   UNL     1      -3.931   2.713  22.412  0.00  0.00    -0.336 OA
ATOM      7  N   UNL     1      -2.839   2.098  24.268  0.00  0.00    -0.190 NA
ATOM      8  N   UNL     1      -2.631   2.385  22.008  0.00  0.00    -0.056 NA
ATOM     15  C   UNL     1      -3.968   2.518  23.756  0.00  0.00    +0.245 A 
ATOM     21  C   UNL     1      -2.049   2.031  23.157  0.00  0.00    +0.204 A 
ENDROOT
BRANCH  21  26
ATOM      5  N   UNL     1       3.236   0.316  23.396  0.00  0.00    -0.313 N 
ATOM      6  N   UNL     1       5.921  -0.653  23.289  0.00  0.00    -0.302 NA
ATOM      9  N   UNL     1       1.001  -0.046  22.704  0.00  0.00    -0.240 NA
ATOM     17  C   UNL     1       3.499  -1.128  23.426  0.00  0.00    +0.122 C 
ATOM     18  C   UNL     1       4.291   1.140  22.798  0.00  0.00    +0.122 C 
ATOM     19  C   UNL     1       4.887  -1.408  24.007  0.00  0.00    +0.103 C 
ATOM     20  C   UNL     1       5.654   0.786  23.399  0.00  0.00    +0.103 C 
ATOM     22  C   UNL     1       1.904   0.740  23.332  0.00  0.00    +0.121 A 
ATOM     25  C   UNL     1       7.247  -0.971  23.817  0.00  0.00    +0.105 C 
ATOM     26  C   UNL     1      -0.681   1.609  23.230  0.00  0.00    +0.041 A 
ATOM     27  C   UNL     1       1.596   1.955  23.924  0.00  0.00    +0.044 A 
ATOM     28  C   UNL     1       0.276   2.391  23.868  0.00  0.00    +0.016 A 
ATOM     31  C   UNL     1      -0.271   0.411  22.669  0.00  0.00    +0.124 A 
ENDBRANCH  21  26
BRANCH  15  10
ATOM      4  N   UNL     1      -5.377   2.185  25.780  0.00  0.00    -0.287 NA
ATOM     10  C   UNL     1      -5.285   2.808  24.444  0.00  0.00    +0.146 C 
ATOM     11  C   UNL     1      -5.504   4.310  24.699  0.00  0.00    +0.030 C 
ATOM     12  C   UNL     1      -5.772   4.427  26.192  0.00  0.00    +0.017 C 
ATOM     13  C   UNL     1      -6.254   3.042  26.577  0.00  0.00    +0.085 C 
BRANCH   4  14
ATOM     14  C   UNL     1      -5.848   0.806  25.739  0.00  0.00    +0.120 C 
BRANCH  14  16
ATOM     16  C   UNL     1      -4.749  -0.151  25.359  0.00  0.00    -0.033 A 
ATOM     23  C   UNL     1      -4.829  -0.865  24.163  0.00  0.00    +0.006 A 
ATOM     24  C   UNL     1      -3.651  -0.323  26.203  0.00  0.00    +0.006 A 
ATOM     29  C   UNL     1      -3.812  -1.751  23.811  0.00  0.00    +0.015 A 
ATOM     30  C   UNL     1      -2.634  -1.209  25.850  0.00  0.00    +0.015 A 
ATOM     32  C   UNL     1      -2.714  -1.924  24.655  0.00  0.00    +0.059 A 
BRANCH  32  33
ATOM      3  O   UNL     1      -1.662  -3.596  23.304  0.00  0.00    -0.245 OA
ATOM     33  C   UNL     1      -1.653  -2.847  24.287  0.00  0.00    +0.337 C 
BRANCH  33   2
ATOM      2  O   UNL     1      -0.606  -2.811  25.157  0.00  0.00    -0.477 OA
ATOM     34  H   UNL     1      -0.518  -1.933  25.588  0.00  0.00    +0.295 HD
ENDBRANCH  33   2
ENDBRANCH  32  33
ENDBRANCH  14  16
ENDBRANCH   4  14
ENDBRANCH  15  10
TORSDOF 6
ENDMDL
