MODEL 1
REMARK VINA RESULT:      14.2      0.000      0.000
REMARK  Name = 26745160
REMARK  4 active torsions:
REMARK  status: ('A' for Active; 'I' for Inactive)
REMARK    1  A    between atoms: N_10  and  C_22
REMARK    2  A    between atoms: N_12  and  C_28
REMARK    3  A    between atoms: C_13  and  C_18
REMARK    4  A    between atoms: C_21  and  C_23
REMARK                            x       y       z     vdW  Elec       q    Type
REMARK                         _______ _______ _______ _____ _____    ______ ____
ROOT
ATOM      3  O   UNL     1      -2.351   2.069  26.095  0.00  0.00    -0.252 OA
ATOM      6  N   UNL     1      -2.795   0.186  24.808  0.00  0.00    -0.267 N 
ATOM      7  N   UNL     1      -4.511  -2.677  23.117  0.00  0.00    -0.347 N 
ATOM      8  N   UNL     1      -4.064  -3.784  25.005  0.00  0.00    -0.240 NA
ATOM     10  N   UNL     1      -3.514   2.323  24.099  0.00  0.00    -0.269 N 
ATOM     13  C   UNL     1      -1.984  -0.690  25.723  0.00  0.00    +0.172 C 
ATOM     14  C   UNL     1      -2.782  -1.947  26.184  0.00  0.00    +0.089 C 
ATOM     15  C   UNL     1      -3.400  -0.435  23.594  0.00  0.00    +0.165 C 
ATOM     16  C   UNL     1      -3.543  -2.522  25.055  0.00  0.00    +0.066 A 
ATOM     17  C   UNL     1      -3.806  -1.819  23.907  0.00  0.00    +0.056 A 
ATOM     19  C   UNL     1      -2.860   1.579  25.084  0.00  0.00    +0.307 C 
ATOM     20  C   UNL     1      -4.641  -3.847  23.822  0.00  0.00    +0.197 A 
ATOM     34  H   UNL     1      -4.870  -2.493  22.189  0.00  0.00    +0.167 HD
ATOM     35  H   UNL     1      -3.500   1.967  23.148  0.00  0.00    +0.156 HD
ENDROOT
BRANCH  10  22
ATOM      1  F   UNL     1      -4.487   6.853  22.830  0.00  0.00    -0.205 F 
ATOM     22  C   UNL     1      -4.252   3.520  24.273  0.00  0.00    +0.037 A 
ATOM     25  C   UNL     1      -4.001   4.619  23.450  0.00  0.00    +0.061 A 
ATOM     26  C   UNL     1      -5.227   3.602  25.267  0.00  0.00    +0.023 A 
ATOM     30  C   UNL     1      -4.726   5.798  23.621  0.00  0.00    +0.125 A 
ATOM     31  C   UNL     1      -5.952   4.781  25.438  0.00  0.00    +0.005 A 
ATOM     33  C   UNL     1      -5.701   5.879  24.615  0.00  0.00    +0.038 A 
ENDBRANCH  10  22
BRANCH  13  18
ATOM      2  O   UNL     1      -0.030  -2.145  25.409  0.00  0.00    -0.336 OA
ATOM      9  N   UNL     1       0.136  -0.164  24.377  0.00  0.00    -0.190 NA
ATOM     11  N   UNL     1       1.214  -2.145  24.766  0.00  0.00    -0.056 NA
ATOM     18  C   UNL     1      -0.599  -0.943  25.129  0.00  0.00    +0.249 A 
ATOM     21  C   UNL     1       1.239  -0.944  24.180  0.00  0.00    +0.202 A 
BRANCH  21  23
ATOM     23  C   UNL     1       2.349  -0.494  23.391  0.00  0.00    +0.025 A 
ATOM     24  C   UNL     1       3.651  -0.648  23.866  0.00  0.00    +0.044 A 
ATOM     27  C   UNL     1       2.126   0.099  22.148  0.00  0.00    +0.012 A 
ATOM     28  C   UNL     1       4.730  -0.210  23.098  0.00  0.00    +0.127 A 
ATOM     29  C   UNL     1       3.204   0.538  21.380  0.00  0.00    +0.003 A 
ATOM     32  C   UNL     1       4.506   0.383  21.855  0.00  0.00    +0.033 A 
BRANCH  28  12
ATOM      4  O   UNL     1       7.014  -0.246  22.778  0.00  0.00    -0.126 OA
ATOM      5  O   UNL     1       6.235  -0.620  24.797  0.00  0.00    -0.126 OA
ATOM     12  N   UNL     1       6.057  -0.366  23.580  0.00  0.00    +0.056 N 
ENDBRANCH  28  12
ENDBRANCH  21  23
ENDBRANCH  13  18
TORSDOF 4
ENDMDL
MODEL 2
REMARK VINA RESULT:      17.9      3.550      8.955
REMARK  Name = 26745160
REMARK  4 active torsions:
REMARK  status: ('A' for Active; 'I' for Inactive)
REMARK    1  A    between atoms: N_10  and  C_22
REMARK    2  A    between atoms: N_12  and  C_28
REMARK    3  A    between atoms: C_13  and  C_18
REMARK    4  A    between atoms: C_21  and  C_23
REMARK                            x       y       z     vdW  Elec       q    Type
REMARK                         _______ _______ _______ _____ _____    ______ ____
ROOT
ATOM      3  O   UNL     1       2.748   1.106  22.101  0.00  0.00    -0.252 OA
ATOM      6  N   UNL     1       1.381  -0.048  23.582  0.00  0.00    -0.267 N 
ATOM      7  N   UNL     1      -0.272  -2.752  25.572  0.00  0.00    -0.347 N 
ATOM      8  N   UNL     1      -1.639  -2.918  23.814  0.00  0.00    -0.240 NA
ATOM     10  N   UNL     1       3.675   0.264  24.058  0.00  0.00    -0.269 N 
ATOM     13  C   UNL     1       0.155   0.260  22.766  0.00  0.00    +0.172 C 
ATOM     14  C   UNL     1      -0.667  -1.024  22.444  0.00  0.00    +0.089 C 
ATOM     15  C   UNL     1       1.206  -0.805  24.856  0.00  0.00    +0.165 C 
ATOM     16  C   UNL     1      -0.741  -1.905  23.628  0.00  0.00    +0.066 A 
ATOM     17  C   UNL     1       0.114  -1.783  24.694  0.00  0.00    +0.056 A 
ATOM     19  C   UNL     1       2.629   0.484  23.159  0.00  0.00    +0.307 C 
ATOM     20  C   UNL     1      -1.330  -3.410  24.997  0.00  0.00    +0.197 A 
ATOM     34  H   UNL     1       0.139  -2.952  26.475  0.00  0.00    +0.167 HD
ATOM     35  H   UNL     1       3.442   0.166  25.041  0.00  0.00    +0.156 HD
ENDROOT
BRANCH  10  22
ATOM      1  F   UNL     1       7.239  -2.141  21.916  0.00  0.00    -0.205 F 
ATOM     22  C   UNL     1       5.051   0.109  23.757  0.00  0.00    +0.037 A 
ATOM     25  C   UNL     1       5.476  -0.961  22.969  0.00  0.00    +0.061 A 
ATOM     26  C   UNL     1       5.981   1.025  24.249  0.00  0.00    +0.023 A 
ATOM     30  C   UNL     1       6.830  -1.114  22.674  0.00  0.00    +0.125 A 
ATOM     31  C   UNL     1       7.335   0.872  23.954  0.00  0.00    +0.005 A 
ATOM     33  C   UNL     1       7.760  -0.198  23.165  0.00  0.00    +0.038 A 
ENDBRANCH  10  22
BRANCH  13  18
ATOM      2  O   UNL     1       0.072   2.582  23.563  0.00  0.00    -0.336 OA
ATOM      9  N   UNL     1      -1.866   1.478  23.775  0.00  0.00    -0.190 NA
ATOM     11  N   UNL     1      -0.831   3.487  24.135  0.00  0.00    -0.056 NA
ATOM     18  C   UNL     1      -0.618   1.425  23.384  0.00  0.00    +0.249 A 
ATOM     21  C   UNL     1      -1.951   2.763  24.228  0.00  0.00    +0.202 A 
BRANCH  21  23
ATOM     23  C   UNL     1      -3.169   3.292  24.768  0.00  0.00    +0.025 A 
ATOM     24  C   UNL     1      -4.250   2.445  25.015  0.00  0.00    +0.044 A 
ATOM     27  C   UNL     1      -3.274   4.655  25.047  0.00  0.00    +0.012 A 
ATOM     28  C   UNL     1      -5.435   2.961  25.540  0.00  0.00    +0.127 A 
ATOM     29  C   UNL     1      -4.459   5.171  25.571  0.00  0.00    +0.003 A 
ATOM     32  C   UNL     1      -5.539   4.324  25.818  0.00  0.00    +0.033 A 
BRANCH  28  12
ATOM      4  O   UNL     1      -6.876   1.877  26.978  0.00  0.00    -0.126 OA
ATOM      5  O   UNL     1      -7.138   1.584  24.817  0.00  0.00    -0.126 OA
ATOM     12  N   UNL     1      -6.535   2.099  25.791  0.00  0.00    +0.056 N 
ENDBRANCH  28  12
ENDBRANCH  21  23
ENDBRANCH  13  18
TORSDOF 4
ENDMDL
