MODEL 1
REMARK VINA RESULT:      -3.6      0.000      0.000
REMARK  Name = 56774237
REMARK  9 active torsions:
REMARK  status: ('A' for Active; 'I' for Inactive)
REMARK    1  A    between atoms: N_3  and  C_9
REMARK    2  A    between atoms: N_5  and  C_24
REMARK    3  A    between atoms: N_6  and  C_18
REMARK    4  A    between atoms: C_7  and  C_12
REMARK    5  A    between atoms: C_7  and  C_13
REMARK    6  A    between atoms: C_8  and  C_11
REMARK    7  A    between atoms: C_11  and  C_14
REMARK    8  A    between atoms: C_17  and  C_18
REMARK    9  A    between atoms: C_24  and  C_25
REMARK                            x       y       z     vdW  Elec       q    Type
REMARK                         _______ _______ _______ _____ _____    ______ ____
ROOT
ATOM      7  C   UNL     1      -4.072   3.566  24.852  0.00  0.00    -0.013 C 
ATOM      8  C   UNL     1      -2.784   3.843  25.657  0.00  0.00    +0.004 C 
ATOM      9  C   UNL     1      -4.301   2.355  25.781  0.00  0.00    +0.081 C 
ATOM     10  C   UNL     1      -2.776   2.340  26.012  0.00  0.00    +0.027 C 
ATOM     12  C   UNL     1      -3.819   3.252  23.394  0.00  0.00    +0.013 C 
ATOM     13  C   UNL     1      -5.164   4.613  24.970  0.00  0.00    +0.013 C 
ENDROOT
BRANCH   9   3
ATOM      2  O   UNL     1      -2.771   0.051  24.954  0.00  0.00    -0.253 OA
ATOM      3  N   UNL     1      -4.810   1.142  25.131  0.00  0.00    -0.296 N 
ATOM      5  N   UNL     1      -4.713  -0.952  24.170  0.00  0.00    -0.300 N 
ATOM     15  C   UNL     1      -3.987   0.074  24.768  0.00  0.00    +0.300 C 
ATOM     26  H   UNL     1      -5.801   1.053  24.922  0.00  0.00    +0.151 HD
ATOM     27  H   UNL     1      -5.717  -0.846  24.068  0.00  0.00    +0.150 HD
BRANCH   5  24
ATOM     24  C   UNL     1      -4.098  -2.171  23.700  0.00  0.00    +0.102 C 
ATOM     25  C   UNL     1      -3.451  -2.938  24.836  0.00  0.00    +0.024 C 
ENDBRANCH   5  24
ENDBRANCH   9   3
BRANCH   8  11
ATOM     11  C   UNL     1      -1.557   4.327  24.874  0.00  0.00    +0.063 C 
BRANCH  11  14
ATOM      1  O   UNL     1       0.971   1.812  25.072  0.00  0.00    -0.358 OA
ATOM      4  N   UNL     1       0.232   2.857  25.613  0.00  0.00    -0.083 NA
ATOM     14  C   UNL     1      -0.607   3.227  24.642  0.00  0.00    +0.084 A 
ATOM     16  C   UNL     1      -0.445   2.459  23.476  0.00  0.00    +0.072 A 
ATOM     17  C   UNL     1       0.558   1.584  23.799  0.00  0.00    +0.151 A 
BRANCH  17  18
ATOM     18  C   UNL     1       1.256   0.478  23.053  0.00  0.00    +0.161 C 
BRANCH  18   6
ATOM      6  N   UNL     1       2.633   0.296  23.513  0.00  0.00    -0.295 NA
ATOM     19  C   UNL     1       3.034  -1.112  23.387  0.00  0.00    +0.085 C 
ATOM     20  C   UNL     1       3.544   1.176  22.768  0.00  0.00    +0.085 C 
ATOM     21  C   UNL     1       4.455  -1.330  23.910  0.00  0.00    +0.015 C 
ATOM     22  C   UNL     1       4.982   1.034  23.270  0.00  0.00    +0.015 C 
ATOM     23  C   UNL     1       5.451  -0.416  23.205  0.00  0.00    +0.002 C 
ENDBRANCH  18   6
ENDBRANCH  17  18
ENDBRANCH  11  14
ENDBRANCH   8  11
TORSDOF 6
ENDMDL
MODEL 2
REMARK VINA RESULT:      -3.5      1.930      5.576
REMARK  Name = 56774237
REMARK  9 active torsions:
REMARK  status: ('A' for Active; 'I' for Inactive)
REMARK    1  A    between atoms: N_3  and  C_9
REMARK    2  A    between atoms: N_5  and  C_24
REMARK    3  A    between atoms: N_6  and  C_18
REMARK    4  A    between atoms: C_7  and  C_12
REMARK    5  A    between atoms: C_7  and  C_13
REMARK    6  A    between atoms: C_8  and  C_11
REMARK    7  A    between atoms: C_11  and  C_14
REMARK    8  A    between atoms: C_17  and  C_18
REMARK    9  A    between atoms: C_24  and  C_25
REMARK                            x       y       z     vdW  Elec       q    Type
REMARK                         _______ _______ _______ _____ _____    ______ ____
ROOT
ATOM      7  C   UNL     1      -3.641  -1.316  24.117  0.00  0.00    -0.013 C 
ATOM      8  C   UNL     1      -4.277  -0.746  25.403  0.00  0.00    +0.004 C 
ATOM      9  C   UNL     1      -2.272  -1.134  24.806  0.00  0.00    +0.081 C 
ATOM     10  C   UNL     1      -2.933  -0.032  25.659  0.00  0.00    +0.027 C 
ATOM     12  C   UNL     1      -3.889  -0.466  22.890  0.00  0.00    +0.013 C 
ATOM     13  C   UNL     1      -3.956  -2.767  23.810  0.00  0.00    +0.013 C 
ENDROOT
BRANCH   9   3
ATOM      2  O   UNL     1       0.542  -1.742  25.036  0.00  0.00    -0.253 OA
ATOM      3  N   UNL     1      -1.187  -0.643  23.948  0.00  0.00    -0.296 N 
ATOM      5  N   UNL     1       0.978  -0.398  23.193  0.00  0.00    -0.300 N 
ATOM     15  C   UNL     1       0.151  -0.996  24.139  0.00  0.00    +0.300 C 
ATOM     26  H   UNL     1      -1.392  -0.013  23.177  0.00  0.00    +0.151 HD
ATOM     27  H   UNL     1       0.562   0.196  22.483  0.00  0.00    +0.150 HD
BRANCH   5  24
ATOM     24  C   UNL     1       2.408  -0.600  23.170  0.00  0.00    +0.102 C 
ATOM     25  C   UNL     1       3.137   0.653  22.729  0.00  0.00    +0.024 C 
ENDBRANCH   5  24
ENDBRANCH   9   3
BRANCH   8  11
ATOM     11  C   UNL     1      -5.482   0.189  25.235  0.00  0.00    +0.063 C 
BRANCH  11  14
ATOM      1  O   UNL     1      -5.277   3.718  25.747  0.00  0.00    -0.358 OA
ATOM      4  N   UNL     1      -5.975   2.516  25.736  0.00  0.00    -0.083 NA
ATOM     14  C   UNL     1      -5.080   1.600  25.354  0.00  0.00    +0.084 A 
ATOM     16  C   UNL     1      -3.814   2.160  25.113  0.00  0.00    +0.072 A 
ATOM     17  C   UNL     1      -3.991   3.493  25.375  0.00  0.00    +0.151 A 
BRANCH  17  18
ATOM     18  C   UNL     1      -3.084   4.693  25.330  0.00  0.00    +0.161 C 
BRANCH  18   6
ATOM      6  N   UNL     1      -1.673   4.308  25.313  0.00  0.00    -0.295 NA
ATOM     19  C   UNL     1      -1.416   3.256  26.307  0.00  0.00    +0.085 C 
ATOM     20  C   UNL     1      -1.274   3.875  23.967  0.00  0.00    +0.085 C 
ATOM     21  C   UNL     1       0.065   2.875  26.337  0.00  0.00    +0.015 C 
ATOM     22  C   UNL     1       0.212   3.515  23.920  0.00  0.00    +0.015 C 
ATOM     23  C   UNL     1       0.558   2.452  24.958  0.00  0.00    +0.002 C 
ENDBRANCH  18   6
ENDBRANCH  17  18
ENDBRANCH  11  14
ENDBRANCH   8  11
TORSDOF 6
ENDMDL
MODEL 3
REMARK VINA RESULT:      -2.9      1.834      5.292
REMARK  Name = 56774237
REMARK  9 active torsions:
REMARK  status: ('A' for Active; 'I' for Inactive)
REMARK    1  A    between atoms: N_3  and  C_9
REMARK    2  A    between atoms: N_5  and  C_24
REMARK    3  A    between atoms: N_6  and  C_18
REMARK    4  A    between atoms: C_7  and  C_12
REMARK    5  A    between atoms: C_7  and  C_13
REMARK    6  A    between atoms: C_8  and  C_11
REMARK    7  A    between atoms: C_11  and  C_14
REMARK    8  A    between atoms: C_17  and  C_18
REMARK    9  A    between atoms: C_24  and  C_25
REMARK                            x       y       z     vdW  Elec       q    Type
REMARK                         _______ _______ _______ _____ _____    ______ ____
ROOT
ATOM      7  C   UNL     1      -2.254   4.652  25.094  0.00  0.00    -0.013 C 
ATOM      8  C   UNL     1      -3.621   4.475  24.400  0.00  0.00    +0.004 C 
ATOM      9  C   UNL     1      -1.623   3.989  23.852  0.00  0.00    +0.081 C 
ATOM     10  C   UNL     1      -2.986   3.304  23.620  0.00  0.00    +0.027 C 
ATOM     12  C   UNL     1      -2.132   3.888  26.395  0.00  0.00    +0.013 C 
ATOM     13  C   UNL     1      -1.794   6.084  25.294  0.00  0.00    +0.013 C 
ENDROOT
BRANCH   9   3
ATOM      2  O   UNL     1      -1.191   1.423  22.601  0.00  0.00    -0.253 OA
ATOM      3  N   UNL     1      -0.530   3.047  24.119  0.00  0.00    -0.296 N 
ATOM      5  N   UNL     1       0.715   1.120  23.893  0.00  0.00    -0.300 N 
ATOM     15  C   UNL     1      -0.404   1.823  23.458  0.00  0.00    +0.300 C 
ATOM     26  H   UNL     1       0.177   3.271  24.815  0.00  0.00    +0.151 HD
ATOM     27  H   UNL     1       1.313   1.537  24.599  0.00  0.00    +0.150 HD
BRANCH   5  24
ATOM     24  C   UNL     1       1.072  -0.178  23.368  0.00  0.00    +0.102 C 
ATOM     25  C   UNL     1       2.244  -0.085  22.412  0.00  0.00    +0.024 C 
ENDBRANCH   5  24
ENDBRANCH   9   3
BRANCH   8  11
ATOM     11  C   UNL     1      -4.813   4.088  25.285  0.00  0.00    +0.063 C 
BRANCH  11  14
ATOM      1  O   UNL     1      -5.866   0.726  25.871  0.00  0.00    -0.358 OA
ATOM      4  N   UNL     1      -5.943   2.095  26.098  0.00  0.00    -0.083 NA
ATOM     14  C   UNL     1      -5.011   2.630  25.303  0.00  0.00    +0.084 A 
ATOM     16  C   UNL     1      -4.321   1.657  24.559  0.00  0.00    +0.072 A 
ATOM     17  C   UNL     1      -4.897   0.478  24.952  0.00  0.00    +0.151 A 
BRANCH  17  18
ATOM     18  C   UNL     1      -4.674  -0.965  24.583  0.00  0.00    +0.161 C 
BRANCH  18   6
ATOM      6  N   UNL     1      -3.251  -1.288  24.490  0.00  0.00    -0.295 NA
ATOM     19  C   UNL     1      -2.553  -0.889  25.720  0.00  0.00    +0.085 C 
ATOM     20  C   UNL     1      -3.066  -2.720  24.215  0.00  0.00    +0.085 C 
ATOM     21  C   UNL     1      -1.053  -1.176  25.621  0.00  0.00    +0.015 C 
ATOM     22  C   UNL     1      -1.583  -3.067  24.067  0.00  0.00    +0.015 C 
ATOM     23  C   UNL     1      -0.789  -2.641  25.297  0.00  0.00    +0.002 C 
ENDBRANCH  18   6
ENDBRANCH  17  18
ENDBRANCH  11  14
ENDBRANCH   8  11
TORSDOF 6
ENDMDL
MODEL 4
REMARK VINA RESULT:      -2.8      1.915      7.139
REMARK  Name = 56774237
REMARK  9 active torsions:
REMARK  status: ('A' for Active; 'I' for Inactive)
REMARK    1  A    between atoms: N_3  and  C_9
REMARK    2  A    between atoms: N_5  and  C_24
REMARK    3  A    between atoms: N_6  and  C_18
REMARK    4  A    between atoms: C_7  and  C_12
REMARK    5  A    between atoms: C_7  and  C_13
REMARK    6  A    between atoms: C_8  and  C_11
REMARK    7  A    between atoms: C_11  and  C_14
REMARK    8  A    between atoms: C_17  and  C_18
REMARK    9  A    between atoms: C_24  and  C_25
REMARK                            x       y       z     vdW  Elec       q    Type
REMARK                         _______ _______ _______ _____ _____    ______ ____
ROOT
ATOM      7  C   UNL     1      -1.355   0.027  23.708  0.00  0.00    -0.013 C 
ATOM      8  C   UNL     1      -2.093  -1.311  23.928  0.00  0.00    +0.004 C 
ATOM      9  C   UNL     1      -0.132  -0.807  23.272  0.00  0.00    +0.081 C 
ATOM     10  C   UNL     1      -0.704  -1.955  24.130  0.00  0.00    +0.027 C 
ATOM     12  C   UNL     1      -1.192   0.843  24.972  0.00  0.00    +0.013 C 
ATOM     13  C   UNL     1      -1.896   0.905  22.595  0.00  0.00    +0.013 C 
ENDROOT
BRANCH   9   3
ATOM      2  O   UNL     1       2.151  -0.119  21.644  0.00  0.00    -0.253 OA
ATOM      3  N   UNL     1       1.171  -0.317  23.737  0.00  0.00    -0.296 N 
ATOM      5  N   UNL     1       3.344   0.434  23.559  0.00  0.00    -0.300 N 
ATOM     15  C   UNL     1       2.220  -0.009  22.867  0.00  0.00    +0.300 C 
ATOM     26  H   UNL     1       1.344  -0.194  24.731  0.00  0.00    +0.151 HD
ATOM     27  H   UNL     1       3.302   0.501  24.571  0.00  0.00    +0.150 HD
BRANCH   5  24
ATOM     24  C   UNL     1       4.567   0.817  22.893  0.00  0.00    +0.102 C 
ATOM     25  C   UNL     1       5.751   0.029  23.414  0.00  0.00    +0.024 C 
ENDBRANCH   5  24
ENDBRANCH   9   3
BRANCH   8  11
ATOM     11  C   UNL     1      -3.029  -1.406  25.140  0.00  0.00    +0.063 C 
BRANCH  11  14
ATOM      1  O   UNL     1      -5.898   0.678  24.714  0.00  0.00    -0.358 OA
ATOM      4  N   UNL     1      -5.214  -0.520  24.547  0.00  0.00    -0.083 NA
ATOM     14  C   UNL     1      -4.026  -0.323  25.127  0.00  0.00    +0.084 A 
ATOM     16  C   UNL     1      -3.905   0.967  25.671  0.00  0.00    +0.072 A 
ATOM     17  C   UNL     1      -5.108   1.555  25.385  0.00  0.00    +0.151 A 
BRANCH  17  18
ATOM     18  C   UNL     1      -5.693   2.916  25.655  0.00  0.00    +0.161 C 
BRANCH  18   6
ATOM      6  N   UNL     1      -4.710   3.980  25.456  0.00  0.00    -0.295 NA
ATOM     19  C   UNL     1      -3.705   3.958  26.528  0.00  0.00    +0.085 C 
ATOM     20  C   UNL     1      -4.079   3.856  24.134  0.00  0.00    +0.085 C 
ATOM     21  C   UNL     1      -2.696   5.096  26.362  0.00  0.00    +0.015 C 
ATOM     22  C   UNL     1      -3.082   4.991  23.889  0.00  0.00    +0.015 C 
ATOM     23  C   UNL     1      -2.030   5.051  24.992  0.00  0.00    +0.002 C 
ENDBRANCH  18   6
ENDBRANCH  17  18
ENDBRANCH  11  14
ENDBRANCH   8  11
TORSDOF 6
ENDMDL
MODEL 5
REMARK VINA RESULT:      -2.4      2.637      5.583
REMARK  Name = 56774237
REMARK  9 active torsions:
REMARK  status: ('A' for Active; 'I' for Inactive)
REMARK    1  A    between atoms: N_3  and  C_9
REMARK    2  A    between atoms: N_5  and  C_24
REMARK    3  A    between atoms: N_6  and  C_18
REMARK    4  A    between atoms: C_7  and  C_12
REMARK    5  A    between atoms: C_7  and  C_13
REMARK    6  A    between atoms: C_8  and  C_11
REMARK    7  A    between atoms: C_11  and  C_14
REMARK    8  A    between atoms: C_17  and  C_18
REMARK    9  A    between atoms: C_24  and  C_25
REMARK                            x       y       z     vdW  Elec       q    Type
REMARK                         _______ _______ _______ _____ _____    ______ ____
ROOT
ATOM      7  C   UNL     1      -3.639  -1.852  24.508  0.00  0.00    -0.013 C 
ATOM      8  C   UNL     1      -2.513  -1.438  23.537  0.00  0.00    +0.004 C 
ATOM      9  C   UNL     1      -4.413  -0.609  24.019  0.00  0.00    +0.081 C 
ATOM     10  C   UNL     1      -3.045   0.006  23.657  0.00  0.00    +0.027 C 
ATOM     12  C   UNL     1      -3.217  -1.847  25.961  0.00  0.00    +0.013 C 
ATOM     13  C   UNL     1      -4.349  -3.153  24.183  0.00  0.00    +0.013 C 
ENDROOT
BRANCH   9   3
ATOM      2  O   UNL     1      -4.679   2.258  24.235  0.00  0.00    -0.253 OA
ATOM      3  N   UNL     1      -5.139   0.136  25.054  0.00  0.00    -0.296 N 
ATOM      5  N   UNL     1      -5.957   1.990  26.155  0.00  0.00    -0.300 N 
ATOM     15  C   UNL     1      -5.212   1.532  25.073  0.00  0.00    +0.300 C 
ATOM     26  H   UNL     1      -5.613  -0.360  25.803  0.00  0.00    +0.151 HD
ATOM     27  H   UNL     1      -6.368   1.313  26.790  0.00  0.00    +0.150 HD
BRANCH   5  24
ATOM     24  C   UNL     1      -6.185   3.394  26.406  0.00  0.00    +0.102 C 
ATOM     25  C   UNL     1      -6.216   4.188  25.116  0.00  0.00    +0.024 C 
ENDBRANCH   5  24
ENDBRANCH   9   3
BRANCH   8  11
ATOM     11  C   UNL     1      -1.068  -1.634  24.012  0.00  0.00    +0.063 C 
BRANCH  11  14
ATOM      1  O   UNL     1       0.771   1.427  24.100  0.00  0.00    -0.358 OA
ATOM      4  N   UNL     1       0.361   0.257  23.471  0.00  0.00    -0.083 NA
ATOM     14  C   UNL     1      -0.442  -0.347  24.353  0.00  0.00    +0.084 A 
ATOM     16  C   UNL     1      -0.574   0.388  25.544  0.00  0.00    +0.072 A 
ATOM     17  C   UNL     1       0.207   1.494  25.333  0.00  0.00    +0.151 A 
BRANCH  17  18
ATOM     18  C   UNL     1       0.544   2.705  26.162  0.00  0.00    +0.161 C 
BRANCH  18   6
ATOM      6  N   UNL     1      -0.492   3.733  26.070  0.00  0.00    -0.295 NA
ATOM     19  C   UNL     1      -0.375   4.467  24.803  0.00  0.00    +0.085 C 
ATOM     20  C   UNL     1      -1.825   3.133  26.215  0.00  0.00    +0.085 C 
ATOM     21  C   UNL     1      -1.421   5.580  24.711  0.00  0.00    +0.015 C 
ATOM     22  C   UNL     1      -2.919   4.202  26.170  0.00  0.00    +0.015 C 
ATOM     23  C   UNL     1      -2.831   5.031  24.893  0.00  0.00    +0.002 C 
ENDBRANCH  18   6
ENDBRANCH  17  18
ENDBRANCH  11  14
ENDBRANCH   8  11
TORSDOF 6
ENDMDL
MODEL 6
REMARK VINA RESULT:      -2.4      1.612      5.853
REMARK  Name = 56774237
REMARK  9 active torsions:
REMARK  status: ('A' for Active; 'I' for Inactive)
REMARK    1  A    between atoms: N_3  and  C_9
REMARK    2  A    between atoms: N_5  and  C_24
REMARK    3  A    between atoms: N_6  and  C_18
REMARK    4  A    between atoms: C_7  and  C_12
REMARK    5  A    between atoms: C_7  and  C_13
REMARK    6  A    between atoms: C_8  and  C_11
REMARK    7  A    between atoms: C_11  and  C_14
REMARK    8  A    between atoms: C_17  and  C_18
REMARK    9  A    between atoms: C_24  and  C_25
REMARK                            x       y       z     vdW  Elec       q    Type
REMARK                         _______ _______ _______ _____ _____    ______ ____
ROOT
ATOM      7  C   UNL     1      -0.168   2.945  25.948  0.00  0.00    -0.013 C 
ATOM      8  C   UNL     1      -0.963   4.148  25.395  0.00  0.00    +0.004 C 
ATOM      9  C   UNL     1       0.498   2.845  24.560  0.00  0.00    +0.081 C 
ATOM     10  C   UNL     1      -0.757   3.539  23.991  0.00  0.00    +0.027 C 
ATOM     12  C   UNL     1      -1.042   1.779  26.356  0.00  0.00    +0.013 C 
ATOM     13  C   UNL     1       0.821   3.258  27.055  0.00  0.00    +0.013 C 
ENDROOT
BRANCH   9   3
ATOM      2  O   UNL     1       2.917   1.757  23.417  0.00  0.00    -0.253 OA
ATOM      3  N   UNL     1       0.701   1.484  24.048  0.00  0.00    -0.296 N 
ATOM      5  N   UNL     1       1.845  -0.279  23.099  0.00  0.00    -0.300 N 
ATOM     15  C   UNL     1       1.915   1.048  23.512  0.00  0.00    +0.300 C 
ATOM     26  H   UNL     1      -0.062   0.812  24.069  0.00  0.00    +0.151 HD
ATOM     27  H   UNL     1       0.976  -0.787  23.227  0.00  0.00    +0.150 HD
BRANCH   5  24
ATOM     24  C   UNL     1       2.966  -0.971  22.508  0.00  0.00    +0.102 C 
ATOM     25  C   UNL     1       4.042  -1.262  23.535  0.00  0.00    +0.024 C 
ENDBRANCH   5  24
ENDBRANCH   9   3
BRANCH   8  11
ATOM     11  C   UNL     1      -2.427   4.283  25.830  0.00  0.00    +0.063 C 
BRANCH  11  14
ATOM      1  O   UNL     1      -4.676   2.479  23.722  0.00  0.00    -0.358 OA
ATOM      4  N   UNL     1      -4.014   3.639  24.105  0.00  0.00    -0.083 NA
ATOM     14  C   UNL     1      -3.275   3.284  25.160  0.00  0.00    +0.084 A 
ATOM     16  C   UNL     1      -3.429   1.925  25.485  0.00  0.00    +0.072 A 
ATOM     17  C   UNL     1      -4.319   1.465  24.552  0.00  0.00    +0.151 A 
BRANCH  17  18
ATOM     18  C   UNL     1      -4.946   0.123  24.282  0.00  0.00    +0.161 C 
BRANCH  18   6
ATOM      6  N   UNL     1      -4.061  -0.977  24.661  0.00  0.00    -0.295 NA
ATOM     19  C   UNL     1      -4.379  -2.183  23.884  0.00  0.00    +0.085 C 
ATOM     20  C   UNL     1      -2.654  -0.589  24.486  0.00  0.00    +0.085 C 
ATOM     21  C   UNL     1      -3.494  -3.359  24.303  0.00  0.00    +0.015 C 
ATOM     22  C   UNL     1      -1.713  -1.712  24.925  0.00  0.00    +0.015 C 
ATOM     23  C   UNL     1      -2.015  -3.010  24.183  0.00  0.00    +0.002 C 
ENDBRANCH  18   6
ENDBRANCH  17  18
ENDBRANCH  11  14
ENDBRANCH   8  11
TORSDOF 6
ENDMDL
MODEL 7
REMARK VINA RESULT:      -2.4      3.105      5.659
REMARK  Name = 56774237
REMARK  9 active torsions:
REMARK  status: ('A' for Active; 'I' for Inactive)
REMARK    1  A    between atoms: N_3  and  C_9
REMARK    2  A    between atoms: N_5  and  C_24
REMARK    3  A    between atoms: N_6  and  C_18
REMARK    4  A    between atoms: C_7  and  C_12
REMARK    5  A    between atoms: C_7  and  C_13
REMARK    6  A    between atoms: C_8  and  C_11
REMARK    7  A    between atoms: C_11  and  C_14
REMARK    8  A    between atoms: C_17  and  C_18
REMARK    9  A    between atoms: C_24  and  C_25
REMARK                            x       y       z     vdW  Elec       q    Type
REMARK                         _______ _______ _______ _____ _____    ______ ____
ROOT
ATOM      7  C   UNL     1      -2.092   4.473  25.214  0.00  0.00    -0.013 C 
ATOM      8  C   UNL     1      -2.380   3.726  23.894  0.00  0.00    +0.004 C 
ATOM      9  C   UNL     1      -0.906   3.506  25.413  0.00  0.00    +0.081 C 
ATOM     10  C   UNL     1      -1.669   2.507  24.519  0.00  0.00    +0.027 C 
ATOM     12  C   UNL     1      -3.215   4.371  26.224  0.00  0.00    +0.013 C 
ATOM     13  C   UNL     1      -1.655   5.919  25.075  0.00  0.00    +0.013 C 
ENDROOT
BRANCH   9   3
ATOM      2  O   UNL     1       1.614   2.874  26.673  0.00  0.00    -0.253 OA
ATOM      3  N   UNL     1      -0.698   3.028  26.785  0.00  0.00    -0.296 N 
ATOM      5  N   UNL     1       0.491   2.312  28.627  0.00  0.00    -0.300 N 
ATOM     15  C   UNL     1       0.567   2.749  27.308  0.00  0.00    +0.300 C 
ATOM     26  H   UNL     1      -1.494   2.881  27.400  0.00  0.00    +0.151 HD
ATOM     27  H   UNL     1      -0.420   2.249  29.071  0.00  0.00    +0.150 HD
BRANCH   5  24
ATOM     24  C   UNL     1       1.659   1.956  29.398  0.00  0.00    +0.102 C 
ATOM     25  C   UNL     1       2.762   2.980  29.237  0.00  0.00    +0.024 C 
ENDBRANCH   5  24
ENDBRANCH   9   3
BRANCH   8  11
ATOM     11  C   UNL     1      -3.851   3.495  23.524  0.00  0.00    +0.063 C 
BRANCH  11  14
ATOM      1  O   UNL     1      -5.603   0.701  24.895  0.00  0.00    -0.358 OA
ATOM      4  N   UNL     1      -5.475   2.058  24.621  0.00  0.00    -0.083 NA
ATOM     14  C   UNL     1      -4.311   2.172  23.976  0.00  0.00    +0.084 A 
ATOM     16  C   UNL     1      -3.666   0.934  23.816  0.00  0.00    +0.072 A 
ATOM     17  C   UNL     1      -4.519   0.043  24.410  0.00  0.00    +0.151 A 
BRANCH  17  18
ATOM     18  C   UNL     1      -4.489  -1.448  24.620  0.00  0.00    +0.161 C 
BRANCH  18   6
ATOM      6  N   UNL     1      -3.196  -1.898  25.136  0.00  0.00    -0.295 NA
ATOM     19  C   UNL     1      -2.355  -2.404  24.043  0.00  0.00    +0.085 C 
ATOM     20  C   UNL     1      -2.526  -0.811  25.863  0.00  0.00    +0.085 C 
ATOM     21  C   UNL     1      -1.017  -2.925  24.572  0.00  0.00    +0.015 C 
ATOM     22  C   UNL     1      -1.193  -1.279  26.451  0.00  0.00    +0.015 C 
ATOM     23  C   UNL     1      -0.283  -1.856  25.372  0.00  0.00    +0.002 C 
ENDBRANCH  18   6
ENDBRANCH  17  18
ENDBRANCH  11  14
ENDBRANCH   8  11
TORSDOF 6
ENDMDL
MODEL 8
REMARK VINA RESULT:      -2.1      2.255      7.183
REMARK  Name = 56774237
REMARK  9 active torsions:
REMARK  status: ('A' for Active; 'I' for Inactive)
REMARK    1  A    between atoms: N_3  and  C_9
REMARK    2  A    between atoms: N_5  and  C_24
REMARK    3  A    between atoms: N_6  and  C_18
REMARK    4  A    between atoms: C_7  and  C_12
REMARK    5  A    between atoms: C_7  and  C_13
REMARK    6  A    between atoms: C_8  and  C_11
REMARK    7  A    between atoms: C_11  and  C_14
REMARK    8  A    between atoms: C_17  and  C_18
REMARK    9  A    between atoms: C_24  and  C_25
REMARK                            x       y       z     vdW  Elec       q    Type
REMARK                         _______ _______ _______ _____ _____    ______ ____
ROOT
ATOM      7  C   UNL     1      -0.368  -0.387  24.216  0.00  0.00    -0.013 C 
ATOM      8  C   UNL     1      -0.675  -1.689  24.987  0.00  0.00    +0.004 C 
ATOM      9  C   UNL     1      -0.146   0.282  25.589  0.00  0.00    +0.081 C 
ATOM     10  C   UNL     1      -1.077  -0.797  26.180  0.00  0.00    +0.027 C 
ATOM     12  C   UNL     1      -1.536   0.125  23.403  0.00  0.00    +0.013 C 
ATOM     13  C   UNL     1       0.886  -0.404  23.361  0.00  0.00    +0.013 C 
ENDROOT
BRANCH   9   3
ATOM      2  O   UNL     1       0.808   2.651  24.242  0.00  0.00    -0.253 OA
ATOM      3  N   UNL     1      -0.668   1.647  25.723  0.00  0.00    -0.296 N 
ATOM      5  N   UNL     1      -0.809   3.915  25.328  0.00  0.00    -0.300 N 
ATOM     15  C   UNL     1      -0.137   2.735  25.025  0.00  0.00    +0.300 C 
ATOM     26  H   UNL     1      -1.447   1.837  26.349  0.00  0.00    +0.151 HD
ATOM     27  H   UNL     1      -1.586   3.883  25.981  0.00  0.00    +0.150 HD
BRANCH   5  24
ATOM     24  C   UNL     1      -0.456   5.186  24.740  0.00  0.00    +0.102 C 
ATOM     25  C   UNL     1      -1.558   6.208  24.928  0.00  0.00    +0.024 C 
ENDBRANCH   5  24
ENDBRANCH   9   3
BRANCH   8  11
ATOM     11  C   UNL     1      -1.798  -2.580  24.440  0.00  0.00    +0.063 C 
BRANCH  11  14
ATOM      1  O   UNL     1      -5.091  -1.341  23.829  0.00  0.00    -0.358 OA
ATOM      4  N   UNL     1      -4.018  -2.175  23.537  0.00  0.00    -0.083 NA
ATOM     14  C   UNL     1      -3.089  -1.873  24.449  0.00  0.00    +0.084 A 
ATOM     16  C   UNL     1      -3.515  -0.867  25.333  0.00  0.00    +0.072 A 
ATOM     17  C   UNL     1      -4.780  -0.568  24.900  0.00  0.00    +0.151 A 
BRANCH  17  18
ATOM     18  C   UNL     1      -5.835   0.404  25.358  0.00  0.00    +0.161 C 
BRANCH  18   6
ATOM      6  N   UNL     1      -5.569   1.761  24.881  0.00  0.00    -0.295 NA
ATOM     19  C   UNL     1      -5.706   2.727  25.980  0.00  0.00    +0.085 C 
ATOM     20  C   UNL     1      -4.235   1.838  24.269  0.00  0.00    +0.085 C 
ATOM     21  C   UNL     1      -5.480   4.157  25.488  0.00  0.00    +0.015 C 
ATOM     22  C   UNL     1      -3.960   3.240  23.721  0.00  0.00    +0.015 C 
ATOM     23  C   UNL     1      -4.125   4.301  24.804  0.00  0.00    +0.002 C 
ENDBRANCH  18   6
ENDBRANCH  17  18
ENDBRANCH  11  14
ENDBRANCH   8  11
TORSDOF 6
ENDMDL
MODEL 9
REMARK VINA RESULT:      -1.6      2.556      4.916
REMARK  Name = 56774237
REMARK  9 active torsions:
REMARK  status: ('A' for Active; 'I' for Inactive)
REMARK    1  A    between atoms: N_3  and  C_9
REMARK    2  A    between atoms: N_5  and  C_24
REMARK    3  A    between atoms: N_6  and  C_18
REMARK    4  A    between atoms: C_7  and  C_12
REMARK    5  A    between atoms: C_7  and  C_13
REMARK    6  A    between atoms: C_8  and  C_11
REMARK    7  A    between atoms: C_11  and  C_14
REMARK    8  A    between atoms: C_17  and  C_18
REMARK    9  A    between atoms: C_24  and  C_25
REMARK                            x       y       z     vdW  Elec       q    Type
REMARK                         _______ _______ _______ _____ _____    ______ ____
ROOT
ATOM      7  C   UNL     1      -1.688   3.983  24.564  0.00  0.00    -0.013 C 
ATOM      8  C   UNL     1      -0.206   3.843  24.975  0.00  0.00    +0.004 C 
ATOM      9  C   UNL     1      -2.040   3.790  26.054  0.00  0.00    +0.081 C 
ATOM     10  C   UNL     1      -0.701   3.035  26.194  0.00  0.00    +0.027 C 
ATOM     12  C   UNL     1      -2.159   2.899  23.620  0.00  0.00    +0.013 C 
ATOM     13  C   UNL     1      -2.101   5.343  24.034  0.00  0.00    +0.013 C 
ENDROOT
BRANCH   9   3
ATOM      2  O   UNL     1      -4.717   4.170  25.041  0.00  0.00    -0.253 OA
ATOM      3  N   UNL     1      -3.216   2.956  26.327  0.00  0.00    -0.296 N 
ATOM      5  N   UNL     1      -5.419   2.284  26.199  0.00  0.00    -0.300 N 
ATOM     15  C   UNL     1      -4.477   3.222  25.786  0.00  0.00    +0.300 C 
ATOM     26  H   UNL     1      -3.138   2.146  26.937  0.00  0.00    +0.151 HD
ATOM     27  H   UNL     1      -5.124   1.528  26.809  0.00  0.00    +0.150 HD
BRANCH   5  24
ATOM     24  C   UNL     1      -6.801   2.332  25.782  0.00  0.00    +0.102 C 
ATOM     25  C   UNL     1      -6.990   1.698  24.420  0.00  0.00    +0.024 C 
ENDBRANCH   5  24
ENDBRANCH   9   3
BRANCH   8  11
ATOM     11  C   UNL     1       0.717   3.072  24.023  0.00  0.00    +0.063 C 
BRANCH  11  14
ATOM      1  O   UNL     1       0.487  -0.454  23.502  0.00  0.00    -0.358 OA
ATOM      4  N   UNL     1       0.852   0.827  23.102  0.00  0.00    -0.083 NA
ATOM     14  C   UNL     1       0.477   1.623  24.108  0.00  0.00    +0.084 A 
ATOM     16  C   UNL     1      -0.123   0.907  25.159  0.00  0.00    +0.072 A 
ATOM     17  C   UNL     1      -0.092  -0.392  24.728  0.00  0.00    +0.151 A 
BRANCH  17  18
ATOM     18  C   UNL     1      -0.553  -1.698  25.320  0.00  0.00    +0.161 C 
BRANCH  18   6
ATOM      6  N   UNL     1      -2.004  -1.855  25.226  0.00  0.00    -0.295 NA
ATOM     19  C   UNL     1      -2.649  -0.552  25.012  0.00  0.00    +0.085 C 
ATOM     20  C   UNL     1      -2.350  -2.801  24.156  0.00  0.00    +0.085 C 
ATOM     21  C   UNL     1      -4.171  -0.692  24.960  0.00  0.00    +0.015 C 
ATOM     22  C   UNL     1      -3.863  -3.015  24.075  0.00  0.00    +0.015 C 
ATOM     23  C   UNL     1      -4.600  -1.692  23.893  0.00  0.00    +0.002 C 
ENDBRANCH  18   6
ENDBRANCH  17  18
ENDBRANCH  11  14
ENDBRANCH   8  11
TORSDOF 6
ENDMDL
MODEL 10
REMARK VINA RESULT:      -1.4      1.853      4.014
REMARK  Name = 56774237
REMARK  9 active torsions:
REMARK  status: ('A' for Active; 'I' for Inactive)
REMARK    1  A    between atoms: N_3  and  C_9
REMARK    2  A    between atoms: N_5  and  C_24
REMARK    3  A    between atoms: N_6  and  C_18
REMARK    4  A    between atoms: C_7  and  C_12
REMARK    5  A    between atoms: C_7  and  C_13
REMARK    6  A    between atoms: C_8  and  C_11
REMARK    7  A    between atoms: C_11  and  C_14
REMARK    8  A    between atoms: C_17  and  C_18
REMARK    9  A    between atoms: C_24  and  C_25
REMARK                            x       y       z     vdW  Elec       q    Type
REMARK                         _______ _______ _______ _____ _____    ______ ____
ROOT
ATOM      7  C   UNL     1      -3.693  -1.581  24.711  0.00  0.00    -0.013 C 
ATOM      8  C   UNL     1      -2.390  -1.350  23.918  0.00  0.00    +0.004 C 
ATOM      9  C   UNL     1      -4.309  -0.431  23.887  0.00  0.00    +0.081 C 
ATOM     10  C   UNL     1      -2.873   0.100  23.697  0.00  0.00    +0.027 C 
ATOM     12  C   UNL     1      -3.549  -1.337  26.198  0.00  0.00    +0.013 C 
ATOM     13  C   UNL     1      -4.385  -2.911  24.474  0.00  0.00    +0.013 C 
ENDROOT
BRANCH   9   3
ATOM      2  O   UNL     1      -4.054   2.439  24.082  0.00  0.00    -0.253 OA
ATOM      3  N   UNL     1      -5.182   0.487  24.629  0.00  0.00    -0.296 N 
ATOM      5  N   UNL     1      -5.941   2.510  25.433  0.00  0.00    -0.300 N 
ATOM     15  C   UNL     1      -4.977   1.868  24.663  0.00  0.00    +0.300 C 
ATOM     26  H   UNL     1      -5.975   0.125  25.153  0.00  0.00    +0.151 HD
ATOM     27  H   UNL     1      -6.672   1.955  25.867  0.00  0.00    +0.150 HD
BRANCH   5  24
ATOM     24  C   UNL     1      -5.955   3.941  25.631  0.00  0.00    +0.102 C 
ATOM     25  C   UNL     1      -4.584   4.461  26.012  0.00  0.00    +0.024 C 
ENDBRANCH   5  24
ENDBRANCH   9   3
BRANCH   8  11
ATOM     11  C   UNL     1      -1.068  -1.479  24.686  0.00  0.00    +0.063 C 
BRANCH  11  14
ATOM      1  O   UNL     1       0.990   1.337  23.919  0.00  0.00    -0.358 OA
ATOM      4  N   UNL     1      -0.074   0.737  24.581  0.00  0.00    -0.083 NA
ATOM     14  C   UNL     1      -0.061  -0.536  24.173  0.00  0.00    +0.084 A 
ATOM     16  C   UNL     1       0.978  -0.793  23.262  0.00  0.00    +0.072 A 
ATOM     17  C   UNL     1       1.609   0.416  23.137  0.00  0.00    +0.151 A 
BRANCH  17  18
ATOM     18  C   UNL     1       2.793   0.895  22.340  0.00  0.00    +0.161 C 
BRANCH  18   6
ATOM      6  N   UNL     1       4.012   0.162  22.682  0.00  0.00    -0.295 NA
ATOM     19  C   UNL     1       4.961   1.041  23.378  0.00  0.00    +0.085 C 
ATOM     20  C   UNL     1       3.690  -1.020  23.492  0.00  0.00    +0.085 C 
ATOM     21  C   UNL     1       6.262   0.304  23.700  0.00  0.00    +0.015 C 
ATOM     22  C   UNL     1       4.949  -1.826  23.818  0.00  0.00    +0.015 C 
ATOM     23  C   UNL     1       5.997  -0.960  24.509  0.00  0.00    +0.002 C 
ENDBRANCH  18   6
ENDBRANCH  17  18
ENDBRANCH  11  14
ENDBRANCH   8  11
TORSDOF 6
ENDMDL
