MODEL 1
REMARK VINA RESULT:       2.8      0.000      0.000
REMARK  Name = 11883368
REMARK  11 active torsions:
REMARK  status: ('A' for Active; 'I' for Inactive)
REMARK    1  A    between atoms: O_3  and  C_14
REMARK    2  A    between atoms: O_3  and  C_18
REMARK    3  A    between atoms: O_6  and  C_25
REMARK    4  A    between atoms: O_6  and  C_31
REMARK    5  A    between atoms: O_7  and  C_28
REMARK    6  A    between atoms: O_7  and  C_32
REMARK    7  A    between atoms: O_8  and  C_29
REMARK    8  A    between atoms: O_8  and  C_33
REMARK    9  A    between atoms: N_9  and  C_13
REMARK   10  A    between atoms: N_10  and  C_22
REMARK   11  A    between atoms: C_17  and  C_19
REMARK                            x       y       z     vdW  Elec       q    Type
REMARK                         _______ _______ _______ _____ _____    ______ ____
ROOT
ATOM      1  O   UNL     1      -2.928  -0.533  25.756  0.00  0.00    -0.368 OA
ATOM      2  O   UNL     1      -3.864  -2.636  23.731  0.00  0.00    -0.368 OA
ATOM     11  C   UNL     1      -2.696  -1.790  23.759  0.00  0.00    +0.173 C 
ATOM     12  C   UNL     1      -3.132  -0.458  24.335  0.00  0.00    +0.192 C 
ATOM     13  C   UNL     1      -1.701  -2.314  24.768  0.00  0.00    +0.130 C 
ATOM     14  C   UNL     1      -4.599  -0.414  23.982  0.00  0.00    +0.235 C 
ATOM     15  C   UNL     1      -2.240  -1.753  26.073  0.00  0.00    +0.185 C 
ATOM     16  C   UNL     1      -5.006  -1.863  24.129  0.00  0.00    +0.207 C 
ENDROOT
BRANCH  13   9
ATOM      4  O   UNL     1      -1.014   0.032  23.260  0.00  0.00    -0.270 OA
ATOM      9  N   UNL     1      -0.372  -1.823  24.496  0.00  0.00    -0.304 N 
ATOM     17  C   UNL     1      -0.138  -0.674  23.753  0.00  0.00    +0.244 C 
ATOM     34  H   UNL     1       0.405  -2.412  24.780  0.00  0.00    +0.149 HD
BRANCH  17  19
ATOM     19  C   UNL     1       1.288  -0.317  23.539  0.00  0.00    +0.037 A 
ATOM     20  C   UNL     1       1.640   0.998  23.232  0.00  0.00    +0.016 A 
ATOM     21  C   UNL     1       2.276  -1.296  23.644  0.00  0.00    +0.016 A 
ATOM     23  C   UNL     1       2.979   1.333  23.031  0.00  0.00    +0.046 A 
ATOM     24  C   UNL     1       3.615  -0.962  23.443  0.00  0.00    +0.046 A 
ATOM     25  C   UNL     1       3.966   0.353  23.137  0.00  0.00    +0.120 A 
BRANCH  25   6
ATOM      6  O   UNL     1       5.272   0.680  22.938  0.00  0.00    -0.495 OA
ATOM     31  C   UNL     1       6.253  -0.200  23.488  0.00  0.00    +0.277 C 
ENDBRANCH  25   6
ENDBRANCH  17  19
ENDBRANCH  13   9
BRANCH  14   3
ATOM      3  O   UNL     1      -5.354   0.436  24.816  0.00  0.00    -0.442 OA
BRANCH   3  18
ATOM      5  O   UNL     1      -5.301   2.417  25.958  0.00  0.00    -0.226 OA
ATOM     10  N   UNL     1      -3.418   1.593  24.838  0.00  0.00    -0.251 N 
ATOM     18  C   UNL     1      -4.729   1.578  25.272  0.00  0.00    +0.405 C 
ATOM     35  H   UNL     1      -3.122   0.801  24.274  0.00  0.00    +0.158 HD
BRANCH  10  22
ATOM     22  C   UNL     1      -2.431   2.576  25.080  0.00  0.00    +0.043 A 
ATOM     26  C   UNL     1      -1.214   2.216  25.656  0.00  0.00    +0.069 A 
ATOM     27  C   UNL     1      -2.677   3.907  24.744  0.00  0.00    +0.069 A 
ATOM     28  C   UNL     1      -1.704   4.879  24.984  0.00  0.00    +0.125 A 
ATOM     29  C   UNL     1      -0.241   3.187  25.896  0.00  0.00    +0.125 A 
ATOM     30  C   UNL     1      -0.486   4.518  25.560  0.00  0.00    +0.091 A 
BRANCH  28   7
ATOM      7  O   UNL     1      -1.944   6.178  24.658  0.00  0.00    -0.495 OA
ATOM     32  C   UNL     1      -2.908   6.423  23.635  0.00  0.00    +0.277 C 
ENDBRANCH  28   7
BRANCH  29   8
ATOM      8  O   UNL     1       0.948   2.835  26.459  0.00  0.00    -0.495 OA
ATOM     33  C   UNL     1       0.930   2.477  27.840  0.00  0.00    +0.277 C 
ENDBRANCH  29   8
ENDBRANCH  10  22
ENDBRANCH   3  18
ENDBRANCH  14   3
TORSDOF 8
ENDMDL
MODEL 2
REMARK VINA RESULT:       2.9      0.043      2.239
REMARK  Name = 11883368
REMARK  11 active torsions:
REMARK  status: ('A' for Active; 'I' for Inactive)
REMARK    1  A    between atoms: O_3  and  C_14
REMARK    2  A    between atoms: O_3  and  C_18
REMARK    3  A    between atoms: O_6  and  C_25
REMARK    4  A    between atoms: O_6  and  C_31
REMARK    5  A    between atoms: O_7  and  C_28
REMARK    6  A    between atoms: O_7  and  C_32
REMARK    7  A    between atoms: O_8  and  C_29
REMARK    8  A    between atoms: O_8  and  C_33
REMARK    9  A    between atoms: N_9  and  C_13
REMARK   10  A    between atoms: N_10  and  C_22
REMARK   11  A    between atoms: C_17  and  C_19
REMARK                            x       y       z     vdW  Elec       q    Type
REMARK                         _______ _______ _______ _____ _____    ______ ____
ROOT
ATOM      1  O   UNL     1      -2.934  -0.550  25.762  0.00  0.00    -0.368 OA
ATOM      2  O   UNL     1      -3.860  -2.653  23.732  0.00  0.00    -0.368 OA
ATOM     11  C   UNL     1      -2.695  -1.802  23.763  0.00  0.00    +0.173 C 
ATOM     12  C   UNL     1      -3.137  -0.473  24.342  0.00  0.00    +0.192 C 
ATOM     13  C   UNL     1      -1.699  -2.323  24.771  0.00  0.00    +0.130 C 
ATOM     14  C   UNL     1      -4.605  -0.435  23.988  0.00  0.00    +0.235 C 
ATOM     15  C   UNL     1      -2.241  -1.768  26.076  0.00  0.00    +0.185 C 
ATOM     16  C   UNL     1      -5.006  -1.886  24.131  0.00  0.00    +0.207 C 
ENDROOT
BRANCH  13   9
ATOM      4  O   UNL     1      -1.021   0.028  23.267  0.00  0.00    -0.270 OA
ATOM      9  N   UNL     1      -0.372  -1.826  24.501  0.00  0.00    -0.304 N 
ATOM     17  C   UNL     1      -0.142  -0.675  23.760  0.00  0.00    +0.244 C 
ATOM     34  H   UNL     1       0.407  -2.412  24.784  0.00  0.00    +0.149 HD
BRANCH  17  19
ATOM     19  C   UNL     1       1.282  -0.311  23.548  0.00  0.00    +0.037 A 
ATOM     20  C   UNL     1       1.628   1.006  23.243  0.00  0.00    +0.016 A 
ATOM     21  C   UNL     1       2.274  -1.286  23.652  0.00  0.00    +0.016 A 
ATOM     23  C   UNL     1       2.966   1.347  23.043  0.00  0.00    +0.046 A 
ATOM     24  C   UNL     1       3.612  -0.946  23.453  0.00  0.00    +0.046 A 
ATOM     25  C   UNL     1       3.957   0.371  23.149  0.00  0.00    +0.120 A 
BRANCH  25   6
ATOM      6  O   UNL     1       5.262   0.704  22.951  0.00  0.00    -0.495 OA
ATOM     31  C   UNL     1       6.246  -0.167  23.509  0.00  0.00    +0.277 C 
ENDBRANCH  25   6
ENDBRANCH  17  19
ENDBRANCH  13   9
BRANCH  14   3
ATOM      3  O   UNL     1      -5.363   0.411  24.823  0.00  0.00    -0.442 OA
BRANCH   3  18
ATOM      5  O   UNL     1      -5.311   2.374  25.994  0.00  0.00    -0.226 OA
ATOM     10  N   UNL     1      -3.443   1.592  24.820  0.00  0.00    -0.251 N 
ATOM     18  C   UNL     1      -4.743   1.554  25.283  0.00  0.00    +0.405 C 
ATOM     35  H   UNL     1      -3.150   0.813  24.237  0.00  0.00    +0.158 HD
BRANCH  10  22
ATOM     22  C   UNL     1      -2.464   2.585  25.056  0.00  0.00    +0.043 A 
ATOM     26  C   UNL     1      -2.717   3.911  24.705  0.00  0.00    +0.069 A 
ATOM     27  C   UNL     1      -1.246   2.238  25.639  0.00  0.00    +0.069 A 
ATOM     28  C   UNL     1      -0.279   3.218  25.871  0.00  0.00    +0.125 A 
ATOM     29  C   UNL     1      -1.750   4.890  24.937  0.00  0.00    +0.125 A 
ATOM     30  C   UNL     1      -0.532   4.543  25.520  0.00  0.00    +0.091 A 
BRANCH  28   7
ATOM      7  O   UNL     1       0.911   2.879  26.438  0.00  0.00    -0.495 OA
ATOM     32  C   UNL     1       0.879   2.421  27.790  0.00  0.00    +0.277 C 
ENDBRANCH  28   7
BRANCH  29   8
ATOM      8  O   UNL     1      -1.997   6.184  24.593  0.00  0.00    -0.495 OA
ATOM     33  C   UNL     1      -3.004   6.413  23.609  0.00  0.00    +0.277 C 
ENDBRANCH  29   8
ENDBRANCH  10  22
ENDBRANCH   3  18
ENDBRANCH  14   3
TORSDOF 8
ENDMDL
MODEL 3
REMARK VINA RESULT:       3.0      1.900      5.094
REMARK  Name = 11883368
REMARK  11 active torsions:
REMARK  status: ('A' for Active; 'I' for Inactive)
REMARK    1  A    between atoms: O_3  and  C_14
REMARK    2  A    between atoms: O_3  and  C_18
REMARK    3  A    between atoms: O_6  and  C_25
REMARK    4  A    between atoms: O_6  and  C_31
REMARK    5  A    between atoms: O_7  and  C_28
REMARK    6  A    between atoms: O_7  and  C_32
REMARK    7  A    between atoms: O_8  and  C_29
REMARK    8  A    between atoms: O_8  and  C_33
REMARK    9  A    between atoms: N_9  and  C_13
REMARK   10  A    between atoms: N_10  and  C_22
REMARK   11  A    between atoms: C_17  and  C_19
REMARK                            x       y       z     vdW  Elec       q    Type
REMARK                         _______ _______ _______ _____ _____    ______ ____
ROOT
ATOM      1  O   UNL     1      -3.509   3.155  24.080  0.00  0.00    -0.368 OA
ATOM      2  O   UNL     1      -2.885   5.231  26.248  0.00  0.00    -0.368 OA
ATOM     11  C   UNL     1      -2.153   4.074  25.794  0.00  0.00    +0.173 C 
ATOM     12  C   UNL     1      -3.177   3.005  25.470  0.00  0.00    +0.192 C 
ATOM     13  C   UNL     1      -1.499   4.364  24.464  0.00  0.00    +0.130 C 
ATOM     14  C   UNL     1      -4.333   3.379  26.365  0.00  0.00    +0.235 C 
ATOM     15  C   UNL     1      -2.638   4.130  23.487  0.00  0.00    +0.185 C 
ATOM     16  C   UNL     1      -4.276   4.890  26.347  0.00  0.00    +0.207 C 
ENDROOT
BRANCH  13   9
ATOM      4  O   UNL     1      -1.635   1.816  23.146  0.00  0.00    -0.270 OA
ATOM      9  N   UNL     1      -0.399   3.463  24.213  0.00  0.00    -0.304 N 
ATOM     17  C   UNL     1      -0.563   2.247  23.566  0.00  0.00    +0.244 C 
ATOM     34  H   UNL     1       0.496   3.703  24.626  0.00  0.00    +0.149 HD
BRANCH  17  19
ATOM     19  C   UNL     1       0.662   1.423  23.409  0.00  0.00    +0.037 A 
ATOM     20  C   UNL     1       0.557   0.050  23.182  0.00  0.00    +0.016 A 
ATOM     21  C   UNL     1       1.920   2.021  23.490  0.00  0.00    +0.016 A 
ATOM     23  C   UNL     1       1.708  -0.723  23.036  0.00  0.00    +0.046 A 
ATOM     24  C   UNL     1       3.071   1.248  23.344  0.00  0.00    +0.046 A 
ATOM     25  C   UNL     1       2.965  -0.124  23.116  0.00  0.00    +0.120 A 
BRANCH  25   6
ATOM      6  O   UNL     1       4.088  -0.879  22.976  0.00  0.00    -0.495 OA
ATOM     31  C   UNL     1       5.311  -0.322  23.460  0.00  0.00    +0.277 C 
ENDBRANCH  25   6
ENDBRANCH  17  19
ENDBRANCH  13   9
BRANCH  14   3
ATOM      3  O   UNL     1      -5.576   2.889  25.914  0.00  0.00    -0.442 OA
BRANCH   3  18
ATOM      5  O   UNL     1      -6.515   1.266  24.606  0.00  0.00    -0.226 OA
ATOM     10  N   UNL     1      -4.375   1.022  25.523  0.00  0.00    -0.251 N 
ATOM     18  C   UNL     1      -5.571   1.666  25.277  0.00  0.00    +0.405 C 
ATOM     35  H   UNL     1      -3.709   1.518  26.108  0.00  0.00    +0.158 HD
BRANCH  10  22
ATOM     22  C   UNL     1      -3.959  -0.248  25.060  0.00  0.00    +0.043 A 
ATOM     26  C   UNL     1      -2.673  -0.706  25.343  0.00  0.00    +0.069 A 
ATOM     27  C   UNL     1      -4.836  -1.041  24.321  0.00  0.00    +0.069 A 
ATOM     28  C   UNL     1      -4.425  -2.295  23.864  0.00  0.00    +0.125 A 
ATOM     29  C   UNL     1      -2.262  -1.960  24.886  0.00  0.00    +0.125 A 
ATOM     30  C   UNL     1      -3.139  -2.753  24.146  0.00  0.00    +0.091 A 
BRANCH  28   7
ATOM      7  O   UNL     1      -5.279  -3.068  23.140  0.00  0.00    -0.495 OA
ATOM     32  C   UNL     1      -4.702  -4.099  22.338  0.00  0.00    +0.277 C 
ENDBRANCH  28   7
BRANCH  29   8
ATOM      8  O   UNL     1      -1.007  -2.407  25.162  0.00  0.00    -0.495 OA
ATOM     33  C   UNL     1      -0.205  -1.599  26.022  0.00  0.00    +0.277 C 
ENDBRANCH  29   8
ENDBRANCH  10  22
ENDBRANCH   3  18
ENDBRANCH  14   3
TORSDOF 8
ENDMDL
MODEL 4
REMARK VINA RESULT:       3.0      1.896      5.303
REMARK  Name = 11883368
REMARK  11 active torsions:
REMARK  status: ('A' for Active; 'I' for Inactive)
REMARK    1  A    between atoms: O_3  and  C_14
REMARK    2  A    between atoms: O_3  and  C_18
REMARK    3  A    between atoms: O_6  and  C_25
REMARK    4  A    between atoms: O_6  and  C_31
REMARK    5  A    between atoms: O_7  and  C_28
REMARK    6  A    between atoms: O_7  and  C_32
REMARK    7  A    between atoms: O_8  and  C_29
REMARK    8  A    between atoms: O_8  and  C_33
REMARK    9  A    between atoms: N_9  and  C_13
REMARK   10  A    between atoms: N_10  and  C_22
REMARK   11  A    between atoms: C_17  and  C_19
REMARK                            x       y       z     vdW  Elec       q    Type
REMARK                         _______ _______ _______ _____ _____    ______ ____
ROOT
ATOM      1  O   UNL     1      -3.507   3.133  24.120  0.00  0.00    -0.368 OA
ATOM      2  O   UNL     1      -2.861   5.246  26.245  0.00  0.00    -0.368 OA
ATOM     11  C   UNL     1      -2.128   4.088  25.795  0.00  0.00    +0.173 C 
ATOM     12  C   UNL     1      -3.148   3.007  25.506  0.00  0.00    +0.192 C 
ATOM     13  C   UNL     1      -1.500   4.363  24.449  0.00  0.00    +0.130 C 
ATOM     14  C   UNL     1      -4.292   3.385  26.416  0.00  0.00    +0.235 C 
ATOM     15  C   UNL     1      -2.654   4.105  23.497  0.00  0.00    +0.185 C 
ATOM     16  C   UNL     1      -4.247   4.896  26.374  0.00  0.00    +0.207 C 
ENDROOT
BRANCH  13   9
ATOM      4  O   UNL     1      -1.634   1.807  23.148  0.00  0.00    -0.270 OA
ATOM      9  N   UNL     1      -0.398   3.468  24.193  0.00  0.00    -0.304 N 
ATOM     17  C   UNL     1      -0.561   2.246  23.554  0.00  0.00    +0.244 C 
ATOM     34  H   UNL     1       0.501   3.715  24.595  0.00  0.00    +0.149 HD
BRANCH  17  19
ATOM     19  C   UNL     1       0.668   1.429  23.389  0.00  0.00    +0.037 A 
ATOM     20  C   UNL     1       1.923   2.034  23.455  0.00  0.00    +0.016 A 
ATOM     21  C   UNL     1       0.567   0.055  23.167  0.00  0.00    +0.016 A 
ATOM     23  C   UNL     1       3.077   1.266  23.300  0.00  0.00    +0.046 A 
ATOM     24  C   UNL     1       1.720  -0.713  23.011  0.00  0.00    +0.046 A 
ATOM     25  C   UNL     1       2.975  -0.107  23.078  0.00  0.00    +0.120 A 
BRANCH  25   6
ATOM      6  O   UNL     1       4.101  -0.856  22.923  0.00  0.00    -0.495 OA
ATOM     31  C   UNL     1       5.318  -0.313  23.436  0.00  0.00    +0.277 C 
ENDBRANCH  25   6
ENDBRANCH  17  19
ENDBRANCH  13   9
BRANCH  14   3
ATOM      3  O   UNL     1      -5.539   2.879  25.995  0.00  0.00    -0.442 OA
BRANCH   3  18
ATOM      5  O   UNL     1      -6.460   1.301  24.620  0.00  0.00    -0.226 OA
ATOM     10  N   UNL     1      -4.343   1.014  25.577  0.00  0.00    -0.251 N 
ATOM     18  C   UNL     1      -5.528   1.675  25.323  0.00  0.00    +0.405 C 
ATOM     35  H   UNL     1      -3.686   1.488  26.191  0.00  0.00    +0.158 HD
BRANCH  10  22
ATOM     22  C   UNL     1      -3.926  -0.246  25.087  0.00  0.00    +0.043 A 
ATOM     26  C   UNL     1      -4.803  -1.026  24.334  0.00  0.00    +0.069 A 
ATOM     27  C   UNL     1      -2.639  -0.708  25.360  0.00  0.00    +0.069 A 
ATOM     28  C   UNL     1      -2.228  -1.952  24.878  0.00  0.00    +0.125 A 
ATOM     29  C   UNL     1      -4.392  -2.269  23.852  0.00  0.00    +0.125 A 
ATOM     30  C   UNL     1      -3.105  -2.732  24.124  0.00  0.00    +0.091 A 
BRANCH  28   7
ATOM      7  O   UNL     1      -0.973  -2.405  25.145  0.00  0.00    -0.495 OA
ATOM     32  C   UNL     1      -0.171  -1.616  26.024  0.00  0.00    +0.277 C 
ENDBRANCH  28   7
BRANCH  29   8
ATOM      8  O   UNL     1      -5.248  -3.031  23.116  0.00  0.00    -0.495 OA
ATOM     33  C   UNL     1      -4.707  -4.193  22.491  0.00  0.00    +0.277 C 
ENDBRANCH  29   8
ENDBRANCH  10  22
ENDBRANCH   3  18
ENDBRANCH  14   3
TORSDOF 8
ENDMDL
MODEL 5
REMARK VINA RESULT:       3.2      1.362      1.856
REMARK  Name = 11883368
REMARK  11 active torsions:
REMARK  status: ('A' for Active; 'I' for Inactive)
REMARK    1  A    between atoms: O_3  and  C_14
REMARK    2  A    between atoms: O_3  and  C_18
REMARK    3  A    between atoms: O_6  and  C_25
REMARK    4  A    between atoms: O_6  and  C_31
REMARK    5  A    between atoms: O_7  and  C_28
REMARK    6  A    between atoms: O_7  and  C_32
REMARK    7  A    between atoms: O_8  and  C_29
REMARK    8  A    between atoms: O_8  and  C_33
REMARK    9  A    between atoms: N_9  and  C_13
REMARK   10  A    between atoms: N_10  and  C_22
REMARK   11  A    between atoms: C_17  and  C_19
REMARK                            x       y       z     vdW  Elec       q    Type
REMARK                         _______ _______ _______ _____ _____    ______ ____
ROOT
ATOM      1  O   UNL     1      -2.444  -0.514  25.000  0.00  0.00    -0.368 OA
ATOM      2  O   UNL     1      -2.771  -3.562  24.935  0.00  0.00    -0.368 OA
ATOM     11  C   UNL     1      -1.730  -2.702  24.428  0.00  0.00    +0.173 C 
ATOM     12  C   UNL     1      -2.409  -1.450  23.909  0.00  0.00    +0.192 C 
ATOM     13  C   UNL     1      -0.869  -2.203  25.564  0.00  0.00    +0.130 C 
ATOM     14  C   UNL     1      -3.789  -1.949  23.556  0.00  0.00    +0.235 C 
ATOM     15  C   UNL     1      -1.684  -1.039  26.099  0.00  0.00    +0.185 C 
ATOM     16  C   UNL     1      -4.045  -2.972  24.640  0.00  0.00    +0.207 C 
ENDROOT
BRANCH  13   9
ATOM      4  O   UNL     1      -0.365  -0.300  23.473  0.00  0.00    -0.270 OA
ATOM      9  N   UNL     1       0.421  -1.765  25.090  0.00  0.00    -0.304 N 
ATOM     17  C   UNL     1       0.566  -0.837  24.068  0.00  0.00    +0.244 C 
ATOM     34  H   UNL     1       1.236  -2.245  25.461  0.00  0.00    +0.149 HD
BRANCH  17  19
ATOM     19  C   UNL     1       1.962  -0.511  23.678  0.00  0.00    +0.037 A 
ATOM     20  C   UNL     1       2.987  -1.424  23.926  0.00  0.00    +0.016 A 
ATOM     21  C   UNL     1       2.248   0.709  23.065  0.00  0.00    +0.016 A 
ATOM     23  C   UNL     1       4.298  -1.117  23.560  0.00  0.00    +0.046 A 
ATOM     24  C   UNL     1       3.558   1.016  22.699  0.00  0.00    +0.046 A 
ATOM     25  C   UNL     1       4.583   0.102  22.947  0.00  0.00    +0.120 A 
BRANCH  25   6
ATOM      6  O   UNL     1       5.862   0.402  22.592  0.00  0.00    -0.495 OA
ATOM     31  C   UNL     1       6.899  -0.398  23.160  0.00  0.00    +0.277 C 
ENDBRANCH  25   6
ENDBRANCH  17  19
ENDBRANCH  13   9
BRANCH  14   3
ATOM      3  O   UNL     1      -4.768  -0.935  23.541  0.00  0.00    -0.442 OA
BRANCH   3  18
ATOM      5  O   UNL     1      -5.138   0.071  25.561  0.00  0.00    -0.226 OA
ATOM     10  N   UNL     1      -3.822   1.079  23.908  0.00  0.00    -0.251 N 
ATOM     18  C   UNL     1      -4.619   0.091  24.451  0.00  0.00    +0.405 C 
ATOM     35  H   UNL     1      -3.481   0.913  22.965  0.00  0.00    +0.158 HD
BRANCH  10  22
ATOM     22  C   UNL     1      -3.420   2.297  24.501  0.00  0.00    +0.043 A 
ATOM     26  C   UNL     1      -2.067   2.548  24.731  0.00  0.00    +0.069 A 
ATOM     27  C   UNL     1      -4.376   3.248  24.857  0.00  0.00    +0.069 A 
ATOM     28  C   UNL     1      -3.980   4.450  25.444  0.00  0.00    +0.125 A 
ATOM     29  C   UNL     1      -1.671   3.751  25.318  0.00  0.00    +0.125 A 
ATOM     30  C   UNL     1      -2.627   4.701  25.674  0.00  0.00    +0.091 A 
BRANCH  28   7
ATOM      7  O   UNL     1      -4.913   5.377  25.793  0.00  0.00    -0.495 OA
ATOM     32  C   UNL     1      -6.279   5.053  25.537  0.00  0.00    +0.277 C 
ENDBRANCH  28   7
BRANCH  29   8
ATOM      8  O   UNL     1      -0.351   3.995  25.543  0.00  0.00    -0.495 OA
ATOM     33  C   UNL     1       0.450   2.892  25.963  0.00  0.00    +0.277 C 
ENDBRANCH  29   8
ENDBRANCH  10  22
ENDBRANCH   3  18
ENDBRANCH  14   3
TORSDOF 8
ENDMDL
MODEL 6
REMARK VINA RESULT:       3.2      1.361      2.692
REMARK  Name = 11883368
REMARK  11 active torsions:
REMARK  status: ('A' for Active; 'I' for Inactive)
REMARK    1  A    between atoms: O_3  and  C_14
REMARK    2  A    between atoms: O_3  and  C_18
REMARK    3  A    between atoms: O_6  and  C_25
REMARK    4  A    between atoms: O_6  and  C_31
REMARK    5  A    between atoms: O_7  and  C_28
REMARK    6  A    between atoms: O_7  and  C_32
REMARK    7  A    between atoms: O_8  and  C_29
REMARK    8  A    between atoms: O_8  and  C_33
REMARK    9  A    between atoms: N_9  and  C_13
REMARK   10  A    between atoms: N_10  and  C_22
REMARK   11  A    between atoms: C_17  and  C_19
REMARK                            x       y       z     vdW  Elec       q    Type
REMARK                         _______ _______ _______ _____ _____    ______ ____
ROOT
ATOM      1  O   UNL     1      -2.428  -0.497  24.979  0.00  0.00    -0.368 OA
ATOM      2  O   UNL     1      -2.756  -3.546  24.964  0.00  0.00    -0.368 OA
ATOM     11  C   UNL     1      -1.713  -2.694  24.445  0.00  0.00    +0.173 C 
ATOM     12  C   UNL     1      -2.390  -1.451  23.904  0.00  0.00    +0.192 C 
ATOM     13  C   UNL     1      -0.856  -2.177  25.576  0.00  0.00    +0.130 C 
ATOM     14  C   UNL     1      -3.770  -1.956  23.555  0.00  0.00    +0.235 C 
ATOM     15  C   UNL     1      -1.673  -1.004  26.089  0.00  0.00    +0.185 C 
ATOM     16  C   UNL     1      -4.029  -2.961  24.655  0.00  0.00    +0.207 C 
ENDROOT
BRANCH  13   9
ATOM      4  O   UNL     1      -0.345  -0.284  23.477  0.00  0.00    -0.270 OA
ATOM      9  N   UNL     1       0.436  -1.747  25.098  0.00  0.00    -0.304 N 
ATOM     17  C   UNL     1       0.584  -0.823  24.073  0.00  0.00    +0.244 C 
ATOM     34  H   UNL     1       1.249  -2.229  25.470  0.00  0.00    +0.149 HD
BRANCH  17  19
ATOM     19  C   UNL     1       1.981  -0.506  23.680  0.00  0.00    +0.037 A 
ATOM     20  C   UNL     1       3.000  -1.427  23.921  0.00  0.00    +0.016 A 
ATOM     21  C   UNL     1       2.274   0.715  23.071  0.00  0.00    +0.016 A 
ATOM     23  C   UNL     1       4.312  -1.128  23.552  0.00  0.00    +0.046 A 
ATOM     24  C   UNL     1       3.585   1.014  22.702  0.00  0.00    +0.046 A 
ATOM     25  C   UNL     1       4.604   0.092  22.943  0.00  0.00    +0.120 A 
BRANCH  25   6
ATOM      6  O   UNL     1       5.884   0.385  22.585  0.00  0.00    -0.495 OA
ATOM     31  C   UNL     1       6.918  -0.411  23.164  0.00  0.00    +0.277 C 
ENDBRANCH  25   6
ENDBRANCH  17  19
ENDBRANCH  13   9
BRANCH  14   3
ATOM      3  O   UNL     1      -4.749  -0.942  23.520  0.00  0.00    -0.442 OA
BRANCH   3  18
ATOM      5  O   UNL     1      -5.162   0.086  25.520  0.00  0.00    -0.226 OA
ATOM     10  N   UNL     1      -3.788   1.063  23.896  0.00  0.00    -0.251 N 
ATOM     18  C   UNL     1      -4.612   0.089  24.426  0.00  0.00    +0.405 C 
ATOM     35  H   UNL     1      -3.423   0.886  22.964  0.00  0.00    +0.158 HD
BRANCH  10  22
ATOM     22  C   UNL     1      -3.387   2.282  24.491  0.00  0.00    +0.043 A 
ATOM     26  C   UNL     1      -4.341   3.247  24.814  0.00  0.00    +0.069 A 
ATOM     27  C   UNL     1      -2.038   2.519  24.752  0.00  0.00    +0.069 A 
ATOM     28  C   UNL     1      -1.642   3.722  25.338  0.00  0.00    +0.125 A 
ATOM     29  C   UNL     1      -3.945   4.450  25.400  0.00  0.00    +0.125 A 
ATOM     30  C   UNL     1      -2.596   4.687  25.662  0.00  0.00    +0.091 A 
BRANCH  28   7
ATOM      7  O   UNL     1      -0.326   3.955  25.592  0.00  0.00    -0.495 OA
ATOM     32  C   UNL     1       0.447   2.858  26.077  0.00  0.00    +0.277 C 
ENDBRANCH  28   7
BRANCH  29   8
ATOM      8  O   UNL     1      -4.876   5.392  25.715  0.00  0.00    -0.495 OA
ATOM     33  C   UNL     1      -6.246   5.024  25.567  0.00  0.00    +0.277 C 
ENDBRANCH  29   8
ENDBRANCH  10  22
ENDBRANCH   3  18
ENDBRANCH  14   3
TORSDOF 8
ENDMDL
