MODEL 1
REMARK VINA RESULT:       3.9      0.000      0.000
REMARK  Name = 26763569
REMARK  1 active torsions:
REMARK  status: ('A' for Active; 'I' for Inactive)
REMARK    1  A    between atoms: C_16  and  C_19
REMARK                            x       y       z     vdW  Elec       q    Type
REMARK                         _______ _______ _______ _____ _____    ______ ____
ROOT
ATOM      1 BR   UNL     1      -7.314   1.745  25.616  0.00  0.00    -0.050 Br
ATOM      2  O   UNL     1       0.674   2.858  23.780  0.00  0.00    -0.273 OA
ATOM      3  O   UNL     1      -2.575  -0.630  26.065  0.00  0.00    -0.270 OA
ATOM      4  O   UNL     1       2.802   0.542  21.228  0.00  0.00    -0.270 OA
ATOM      5  N   UNL     1      -1.094   0.165  24.476  0.00  0.00    -0.283 N 
ATOM      6  N   UNL     1       1.440   0.048  23.062  0.00  0.00    -0.294 N 
ATOM      7  N   UNL     1      -1.459   3.100  24.536  0.00  0.00    -0.283 N 
ATOM      9  C   UNL     1      -0.845   1.036  23.335  0.00  0.00    +0.180 C 
ATOM     10  C   UNL     1       0.215   0.473  22.381  0.00  0.00    +0.140 C 
ATOM     11  C   UNL     1      -0.133  -0.914  24.719  0.00  0.00    +0.128 C 
ATOM     12  C   UNL     1       1.294  -0.475  24.424  0.00  0.00    +0.127 C 
ATOM     13  C   UNL     1      -0.455   2.384  23.920  0.00  0.00    +0.239 C 
ATOM     14  C   UNL     1      -2.266   0.216  25.223  0.00  0.00    +0.249 C 
ATOM     15  C   UNL     1      -3.193   1.363  25.032  0.00  0.00    +0.059 A 
ATOM     16  C   UNL     1       2.655   0.108  22.369  0.00  0.00    +0.248 C 
ATOM     17  C   UNL     1      -2.779   2.687  24.817  0.00  0.00    +0.046 A 
ATOM     18  C   UNL     1      -4.555   1.095  25.264  0.00  0.00    +0.030 A 
ATOM     20  C   UNL     1      -3.728   3.720  24.911  0.00  0.00    +0.025 A 
ATOM     21  C   UNL     1      -5.490   2.129  25.304  0.00  0.00    +0.019 A 
ATOM     22  C   UNL     1      -5.075   3.443  25.142  0.00  0.00    +0.017 A 
ATOM     27  H   UNL     1      -1.248   4.077  24.722  0.00  0.00    +0.155 HD
ENDROOT
BRANCH  16  19
ATOM      8  N   UNL     1       5.027  -2.198  24.142  0.00  0.00    -0.263 NA
ATOM     19  C   UNL     1       3.864  -0.382  23.050  0.00  0.00    +0.055 A 
ATOM     23  C   UNL     1       4.960   0.450  23.251  0.00  0.00    +0.016 A 
ATOM     24  C   UNL     1       3.946  -1.685  23.510  0.00  0.00    +0.123 A 
ATOM     25  C   UNL     1       6.089  -0.041  23.896  0.00  0.00    +0.020 A 
ATOM     26  C   UNL     1       6.072  -1.360  24.319  0.00  0.00    +0.111 A 
ENDBRANCH  16  19
TORSDOF 1
ENDMDL
