MODEL 1
REMARK VINA RESULT:       2.6      0.000      0.000
REMARK  Name = 26763581
REMARK  12 active torsions:
REMARK  status: ('A' for Active; 'I' for Inactive)
REMARK    1  A    between atoms: S_1  and  N_8
REMARK    2  A    between atoms: S_1  and  C_19
REMARK    3  A    between atoms: O_6  and  C_25
REMARK    4  A    between atoms: O_6  and  C_35
REMARK    5  A    between atoms: N_10  and  C_20
REMARK    6  A    between atoms: N_11  and  C_22
REMARK    7  A    between atoms: C_13  and  C_17
REMARK    8  A    between atoms: C_20  and  C_21
REMARK    9  A    between atoms: C_20  and  C_25
REMARK   10  A    between atoms: C_21  and  C_26
REMARK   11  A    between atoms: C_22  and  C_27
REMARK   12  A    between atoms: C_22  and  C_28
REMARK                            x       y       z     vdW  Elec       q    Type
REMARK                         _______ _______ _______ _____ _____    ______ ____
ROOT
ATOM      5  O   UNL     1       2.241   3.445  27.328  0.00  0.00    -0.253 OA
ATOM      8  N   UNL     1      -1.727   2.182  24.571  0.00  0.00    -0.162 NA
ATOM      9  N   UNL     1       0.084   2.863  26.689  0.00  0.00    -0.282 N 
ATOM     11  N   UNL     1       0.973   2.165  28.759  0.00  0.00    -0.297 N 
ATOM     13  C   UNL     1      -0.428   2.837  24.249  0.00  0.00    +0.183 C 
ATOM     14  C   UNL     1       0.169   3.603  25.428  0.00  0.00    +0.139 C 
ATOM     15  C   UNL     1      -2.257   2.493  25.924  0.00  0.00    +0.129 C 
ATOM     16  C   UNL     1      -1.188   2.184  26.962  0.00  0.00    +0.126 C 
ATOM     18  C   UNL     1       1.178   2.868  27.575  0.00  0.00    +0.303 C 
ATOM     38  H   UNL     1       0.133   1.611  28.882  0.00  0.00    +0.150 HD
ENDROOT
BRANCH  13  17
ATOM      4  O   UNL     1       1.686   1.808  23.854  0.00  0.00    -0.274 OA
ATOM     10  N   UNL     1      -0.256   0.599  23.421  0.00  0.00    -0.301 N 
ATOM     17  C   UNL     1       0.463   1.709  23.834  0.00  0.00    +0.234 C 
ATOM     37  H   UNL     1      -1.271   0.637  23.421  0.00  0.00    +0.150 HD
BRANCH  10  20
ATOM     20  C   UNL     1       0.369  -0.615  22.949  0.00  0.00    +0.186 C 
BRANCH  20  25
ATOM      7  O   UNL     1       2.207   0.075  21.540  0.00  0.00    -0.249 OA
ATOM     25  C   UNL     1       1.839  -0.407  22.606  0.00  0.00    +0.328 C 
BRANCH  25   6
ATOM      6  O   UNL     1       2.664  -0.830  23.604  0.00  0.00    -0.467 OA
ATOM     35  C   UNL     1       4.062  -0.623  23.384  0.00  0.00    +0.280 C 
ENDBRANCH  25   6
ENDBRANCH  20  25
BRANCH  20  21
ATOM     21  C   UNL     1       0.167  -1.781  23.928  0.00  0.00    +0.070 C 
BRANCH  21  26
ATOM     12  N   UNL     1      -2.689  -1.097  26.326  0.00  0.00    -0.263 NA
ATOM     26  C   UNL     1      -1.201  -1.837  24.570  0.00  0.00    -0.027 A 
ATOM     32  C   UNL     1      -2.208  -2.639  24.044  0.00  0.00    +0.006 A 
ATOM     33  C   UNL     1      -1.490  -1.093  25.702  0.00  0.00    +0.114 A 
ATOM     34  C   UNL     1      -3.455  -2.671  24.658  0.00  0.00    +0.020 A 
ATOM     36  C   UNL     1      -3.643  -1.889  25.787  0.00  0.00    +0.111 A 
ENDBRANCH  21  26
ENDBRANCH  20  21
ENDBRANCH  10  20
ENDBRANCH  13  17
BRANCH   8   1
ATOM      1  S   UNL     1      -2.880   2.102  23.311  0.00  0.00    +0.062 S 
ATOM      2  O   UNL     1      -2.942   0.745  22.810  0.00  0.00    -0.153 OA
ATOM      3  O   UNL     1      -2.674   3.218  22.411  0.00  0.00    -0.153 OA
BRANCH   1  19
ATOM     19  C   UNL     1      -4.360   2.409  24.223  0.00  0.00    +0.106 A 
ATOM     23  C   UNL     1      -4.661   3.703  24.650  0.00  0.00    +0.028 A 
ATOM     24  C   UNL     1      -5.226   1.357  24.521  0.00  0.00    +0.028 A 
ATOM     29  C   UNL     1      -5.827   3.945  25.375  0.00  0.00    +0.002 A 
ATOM     30  C   UNL     1      -6.393   1.599  25.245  0.00  0.00    +0.002 A 
ATOM     31  C   UNL     1      -6.694   2.893  25.672  0.00  0.00    +0.000 A 
ENDBRANCH   1  19
ENDBRANCH   8   1
BRANCH  11  22
ATOM     22  C   UNL     1       1.988   2.062  29.783  0.00  0.00    +0.068 C 
ATOM     27  C   UNL     1       1.364   2.221  31.164  0.00  0.00    +0.027 C 
ATOM     28  C   UNL     1       3.088   3.091  29.552  0.00  0.00    +0.027 C 
ENDBRANCH  11  22
TORSDOF 9
ENDMDL
MODEL 2
REMARK VINA RESULT:       3.4      2.563      6.506
REMARK  Name = 26763581
REMARK  12 active torsions:
REMARK  status: ('A' for Active; 'I' for Inactive)
REMARK    1  A    between atoms: S_1  and  N_8
REMARK    2  A    between atoms: S_1  and  C_19
REMARK    3  A    between atoms: O_6  and  C_25
REMARK    4  A    between atoms: O_6  and  C_35
REMARK    5  A    between atoms: N_10  and  C_20
REMARK    6  A    between atoms: N_11  and  C_22
REMARK    7  A    between atoms: C_13  and  C_17
REMARK    8  A    between atoms: C_20  and  C_21
REMARK    9  A    between atoms: C_20  and  C_25
REMARK   10  A    between atoms: C_21  and  C_26
REMARK   11  A    between atoms: C_22  and  C_27
REMARK   12  A    between atoms: C_22  and  C_28
REMARK                            x       y       z     vdW  Elec       q    Type
REMARK                         _______ _______ _______ _____ _____    ______ ____
ROOT
ATOM      5  O   UNL     1      -1.889   3.506  26.474  0.00  0.00    -0.253 OA
ATOM      8  N   UNL     1       0.662   0.650  23.269  0.00  0.00    -0.162 NA
ATOM      9  N   UNL     1      -0.336   2.786  24.903  0.00  0.00    -0.282 N 
ATOM     11  N   UNL     1      -1.147   5.000  24.890  0.00  0.00    -0.297 N 
ATOM     13  C   UNL     1      -0.235   0.342  24.419  0.00  0.00    +0.183 C 
ATOM     14  C   UNL     1      -0.253   1.442  25.478  0.00  0.00    +0.139 C 
ATOM     15  C   UNL     1       1.457   1.895  23.421  0.00  0.00    +0.129 C 
ATOM     16  C   UNL     1       0.518   3.051  23.739  0.00  0.00    +0.126 C 
ATOM     18  C   UNL     1      -1.176   3.747  25.495  0.00  0.00    +0.303 C 
ATOM     38  H   UNL     1      -0.638   5.134  24.024  0.00  0.00    +0.150 HD
ENDROOT
BRANCH  13  17
ATOM      4  O   UNL     1      -1.833   0.563  22.663  0.00  0.00    -0.274 OA
ATOM     10  N   UNL     1      -2.480  -0.450  24.657  0.00  0.00    -0.301 N 
ATOM     17  C   UNL     1      -1.585   0.168  23.799  0.00  0.00    +0.234 C 
ATOM     37  H   UNL     1      -2.173  -0.712  25.589  0.00  0.00    +0.150 HD
BRANCH  10  20
ATOM     20  C   UNL     1      -3.856  -0.714  24.306  0.00  0.00    +0.186 C 
BRANCH  20  25
ATOM      7  O   UNL     1      -5.020  -2.644  23.436  0.00  0.00    -0.249 OA
ATOM     25  C   UNL     1      -4.134  -2.205  24.161  0.00  0.00    +0.328 C 
BRANCH  25   6
ATOM      6  O   UNL     1      -3.304  -2.960  24.933  0.00  0.00    -0.467 OA
ATOM     35  C   UNL     1      -2.040  -3.289  24.348  0.00  0.00    +0.280 C 
ENDBRANCH  25   6
ENDBRANCH  20  25
BRANCH  20  21
ATOM     21  C   UNL     1      -4.835  -0.039  25.279  0.00  0.00    +0.070 C 
BRANCH  21  26
ATOM     12  N   UNL     1      -5.881   3.552  25.895  0.00  0.00    -0.263 NA
ATOM     26  C   UNL     1      -4.949   1.461  25.121  0.00  0.00    -0.027 A 
ATOM     32  C   UNL     1      -4.272   2.128  24.107  0.00  0.00    +0.006 A 
ATOM     33  C   UNL     1      -5.734   2.212  25.981  0.00  0.00    +0.114 A 
ATOM     34  C   UNL     1      -4.399   3.508  23.985  0.00  0.00    +0.020 A 
ATOM     36  C   UNL     1      -5.209   4.167  24.896  0.00  0.00    +0.111 A 
ENDBRANCH  21  26
ENDBRANCH  20  21
ENDBRANCH  10  20
ENDBRANCH  13  17
BRANCH   8   1
ATOM      1  S   UNL     1       1.468  -0.675  22.549  0.00  0.00    +0.062 S 
ATOM      2  O   UNL     1       1.421  -0.533  21.109  0.00  0.00    -0.153 OA
ATOM      3  O   UNL     1       1.033  -1.899  23.191  0.00  0.00    -0.153 OA
BRANCH   1  19
ATOM     19  C   UNL     1       3.125  -0.351  23.069  0.00  0.00    +0.106 A 
ATOM     23  C   UNL     1       3.724   0.873  22.768  0.00  0.00    +0.028 A 
ATOM     24  C   UNL     1       3.836  -1.320  23.776  0.00  0.00    +0.028 A 
ATOM     29  C   UNL     1       5.033   1.127  23.174  0.00  0.00    +0.002 A 
ATOM     30  C   UNL     1       5.144  -1.065  24.183  0.00  0.00    +0.002 A 
ATOM     31  C   UNL     1       5.743   0.158  23.883  0.00  0.00    +0.000 A 
ENDBRANCH   1  19
ENDBRANCH   8   1
BRANCH  11  22
ATOM     22  C   UNL     1      -1.947   6.108  25.363  0.00  0.00    +0.068 C 
ATOM     27  C   UNL     1      -3.015   5.612  26.330  0.00  0.00    +0.027 C 
ATOM     28  C   UNL     1      -2.568   6.858  24.192  0.00  0.00    +0.027 C 
ENDBRANCH  11  22
TORSDOF 9
ENDMDL
MODEL 3
REMARK VINA RESULT:       4.0      1.677      3.703
REMARK  Name = 26763581
REMARK  12 active torsions:
REMARK  status: ('A' for Active; 'I' for Inactive)
REMARK    1  A    between atoms: S_1  and  N_8
REMARK    2  A    between atoms: S_1  and  C_19
REMARK    3  A    between atoms: O_6  and  C_25
REMARK    4  A    between atoms: O_6  and  C_35
REMARK    5  A    between atoms: N_10  and  C_20
REMARK    6  A    between atoms: N_11  and  C_22
REMARK    7  A    between atoms: C_13  and  C_17
REMARK    8  A    between atoms: C_20  and  C_21
REMARK    9  A    between atoms: C_20  and  C_25
REMARK   10  A    between atoms: C_21  and  C_26
REMARK   11  A    between atoms: C_22  and  C_27
REMARK   12  A    between atoms: C_22  and  C_28
REMARK                            x       y       z     vdW  Elec       q    Type
REMARK                         _______ _______ _______ _____ _____    ______ ____
ROOT
ATOM      5  O   UNL     1       2.191   2.750  26.618  0.00  0.00    -0.253 OA
ATOM      8  N   UNL     1      -2.411   3.265  24.749  0.00  0.00    -0.162 NA
ATOM      9  N   UNL     1      -0.071   3.241  26.407  0.00  0.00    -0.282 N 
ATOM     11  N   UNL     1       0.829   2.492  28.454  0.00  0.00    -0.297 N 
ATOM     13  C   UNL     1      -1.066   3.129  24.123  0.00  0.00    +0.183 C 
ATOM     14  C   UNL     1       0.064   3.652  25.008  0.00  0.00    +0.139 C 
ATOM     15  C   UNL     1      -2.420   3.986  26.047  0.00  0.00    +0.129 C 
ATOM     16  C   UNL     1      -1.415   3.334  26.987  0.00  0.00    +0.126 C 
ATOM     18  C   UNL     1       1.067   2.823  27.123  0.00  0.00    +0.303 C 
ATOM     38  H   UNL     1      -0.120   2.456  28.807  0.00  0.00    +0.150 HD
ENDROOT
BRANCH  13  17
ATOM      4  O   UNL     1      -1.706   1.044  23.161  0.00  0.00    -0.274 OA
ATOM     10  N   UNL     1       0.164   1.121  24.546  0.00  0.00    -0.301 N 
ATOM     17  C   UNL     1      -0.919   1.662  23.873  0.00  0.00    +0.234 C 
ATOM     37  H   UNL     1       0.736   1.723  25.131  0.00  0.00    +0.150 HD
BRANCH  10  20
ATOM     20  C   UNL     1       0.509  -0.280  24.488  0.00  0.00    +0.186 C 
BRANCH  20  25
ATOM      7  O   UNL     1      -1.020  -2.067  23.933  0.00  0.00    -0.249 OA
ATOM     25  C   UNL     1      -0.700  -1.179  24.715  0.00  0.00    +0.328 C 
BRANCH  25   6
ATOM      6  O   UNL     1      -1.369  -0.861  25.860  0.00  0.00    -0.467 OA
ATOM     35  C   UNL     1      -2.793  -0.976  25.799  0.00  0.00    +0.280 C 
ENDBRANCH  25   6
ENDBRANCH  20  25
BRANCH  20  21
ATOM     21  C   UNL     1       1.252  -0.634  23.191  0.00  0.00    +0.070 C 
BRANCH  21  26
ATOM     12  N   UNL     1       4.951  -1.201  23.803  0.00  0.00    -0.263 NA
ATOM     26  C   UNL     1       2.745  -0.393  23.233  0.00  0.00    -0.027 A 
ATOM     32  C   UNL     1       3.292   0.798  22.770  0.00  0.00    +0.006 A 
ATOM     33  C   UNL     1       3.609  -1.352  23.735  0.00  0.00    +0.114 A 
ATOM     34  C   UNL     1       4.668   0.992  22.824  0.00  0.00    +0.020 A 
ATOM     36  C   UNL     1       5.447  -0.029  23.345  0.00  0.00    +0.111 A 
ENDBRANCH  21  26
ENDBRANCH  20  21
ENDBRANCH  10  20
ENDBRANCH  13  17
BRANCH   8   1
ATOM      1  S   UNL     1      -3.718   3.595  23.696  0.00  0.00    +0.062 S 
ATOM      2  O   UNL     1      -3.488   2.928  22.431  0.00  0.00    -0.153 OA
ATOM      3  O   UNL     1      -4.019   5.011  23.746  0.00  0.00    -0.153 OA
BRANCH   1  19
ATOM     19  C   UNL     1      -5.015   2.736  24.531  0.00  0.00    +0.106 A 
ATOM     23  C   UNL     1      -5.708   3.358  25.570  0.00  0.00    +0.028 A 
ATOM     24  C   UNL     1      -5.344   1.433  24.155  0.00  0.00    +0.028 A 
ATOM     29  C   UNL     1      -6.728   2.678  26.233  0.00  0.00    +0.002 A 
ATOM     30  C   UNL     1      -6.365   0.754  24.817  0.00  0.00    +0.002 A 
ATOM     31  C   UNL     1      -7.058   1.376  25.856  0.00  0.00    +0.000 A 
ENDBRANCH   1  19
ENDBRANCH   8   1
BRANCH  11  22
ATOM     22  C   UNL     1       1.879   2.041  29.339  0.00  0.00    +0.068 C 
ATOM     27  C   UNL     1       1.386   2.025  30.780  0.00  0.00    +0.027 C 
ATOM     28  C   UNL     1       3.118   2.915  29.189  0.00  0.00    +0.027 C 
ENDBRANCH  11  22
TORSDOF 9
ENDMDL
MODEL 4
REMARK VINA RESULT:       4.4      2.018      5.635
REMARK  Name = 26763581
REMARK  12 active torsions:
REMARK  status: ('A' for Active; 'I' for Inactive)
REMARK    1  A    between atoms: S_1  and  N_8
REMARK    2  A    between atoms: S_1  and  C_19
REMARK    3  A    between atoms: O_6  and  C_25
REMARK    4  A    between atoms: O_6  and  C_35
REMARK    5  A    between atoms: N_10  and  C_20
REMARK    6  A    between atoms: N_11  and  C_22
REMARK    7  A    between atoms: C_13  and  C_17
REMARK    8  A    between atoms: C_20  and  C_21
REMARK    9  A    between atoms: C_20  and  C_25
REMARK   10  A    between atoms: C_21  and  C_26
REMARK   11  A    between atoms: C_22  and  C_27
REMARK   12  A    between atoms: C_22  and  C_28
REMARK                            x       y       z     vdW  Elec       q    Type
REMARK                         _______ _______ _______ _____ _____    ______ ____
ROOT
ATOM      5  O   UNL     1       2.998  -1.001  24.223  0.00  0.00    -0.253 OA
ATOM      8  N   UNL     1      -1.988  -0.739  24.229  0.00  0.00    -0.162 NA
ATOM      9  N   UNL     1       0.787  -0.885  23.519  0.00  0.00    -0.282 N 
ATOM     11  N   UNL     1       2.515   0.143  22.287  0.00  0.00    -0.297 N 
ATOM     13  C   UNL     1      -0.988  -1.168  25.247  0.00  0.00    +0.183 C 
ATOM     14  C   UNL     1       0.303  -1.704  24.632  0.00  0.00    +0.139 C 
ATOM     15  C   UNL     1      -1.601  -1.022  22.824  0.00  0.00    +0.129 C 
ATOM     16  C   UNL     1      -0.223  -0.431  22.557  0.00  0.00    +0.126 C 
ATOM     18  C   UNL     1       2.162  -0.611  23.403  0.00  0.00    +0.303 C 
ATOM     38  H   UNL     1       1.795   0.542  21.695  0.00  0.00    +0.150 HD
ENDROOT
BRANCH  13  17
ATOM      4  O   UNL     1      -0.915   0.094  27.269  0.00  0.00    -0.274 OA
ATOM     10  N   UNL     1      -0.294   1.121  25.273  0.00  0.00    -0.301 N 
ATOM     17  C   UNL     1      -0.729   0.064  26.055  0.00  0.00    +0.234 C 
ATOM     37  H   UNL     1      -0.200   0.991  24.271  0.00  0.00    +0.150 HD
BRANCH  10  20
ATOM     20  C   UNL     1       0.004   2.429  25.810  0.00  0.00    +0.186 C 
BRANCH  20  25
ATOM      7  O   UNL     1      -0.313   3.746  23.809  0.00  0.00    -0.249 OA
ATOM     25  C   UNL     1      -0.619   3.544  24.979  0.00  0.00    +0.328 C 
BRANCH  25   6
ATOM      6  O   UNL     1      -1.519   4.276  25.694  0.00  0.00    -0.467 OA
ATOM     35  C   UNL     1      -1.804   5.581  25.181  0.00  0.00    +0.280 C 
ENDBRANCH  25   6
ENDBRANCH  20  25
BRANCH  20  21
ATOM     21  C   UNL     1      -0.375   2.539  27.295  0.00  0.00    +0.070 C 
BRANCH  21  26
ATOM     12  N   UNL     1       3.152   2.963  28.618  0.00  0.00    -0.263 NA
ATOM     26  C   UNL     1       0.800   2.549  28.247  0.00  0.00    -0.027 A 
ATOM     32  C   UNL     1       0.649   2.169  29.575  0.00  0.00    +0.006 A 
ATOM     33  C   UNL     1       2.061   2.934  27.821  0.00  0.00    +0.114 A 
ATOM     34  C   UNL     1       1.749   2.186  30.427  0.00  0.00    +0.020 A 
ATOM     36  C   UNL     1       2.968   2.587  29.903  0.00  0.00    +0.111 A 
ENDBRANCH  21  26
ENDBRANCH  20  21
ENDBRANCH  10  20
ENDBRANCH  13  17
BRANCH   8   1
ATOM      1  S   UNL     1      -3.635  -0.984  24.620  0.00  0.00    +0.062 S 
ATOM      2  O   UNL     1      -3.729  -1.542  25.952  0.00  0.00    -0.153 OA
ATOM      3  O   UNL     1      -4.297  -1.618  23.499  0.00  0.00    -0.153 OA
BRANCH   1  19
ATOM     19  C   UNL     1      -4.188   0.692  24.697  0.00  0.00    +0.106 A 
ATOM     23  C   UNL     1      -5.192   1.055  25.596  0.00  0.00    +0.028 A 
ATOM     24  C   UNL     1      -3.625   1.652  23.856  0.00  0.00    +0.028 A 
ATOM     29  C   UNL     1      -5.631   2.376  25.654  0.00  0.00    +0.002 A 
ATOM     30  C   UNL     1      -4.064   2.973  23.915  0.00  0.00    +0.002 A 
ATOM     31  C   UNL     1      -5.068   3.336  24.814  0.00  0.00    +0.000 A 
ENDBRANCH   1  19
ENDBRANCH   8   1
BRANCH  11  22
ATOM     22  C   UNL     1       3.882   0.522  22.008  0.00  0.00    +0.068 C 
ATOM     27  C   UNL     1       4.846  -0.392  22.754  0.00  0.00    +0.027 C 
ATOM     28  C   UNL     1       4.117   1.984  22.368  0.00  0.00    +0.027 C 
ENDBRANCH  11  22
TORSDOF 9
ENDMDL
MODEL 5
REMARK VINA RESULT:       4.8      1.979      5.380
REMARK  Name = 26763581
REMARK  12 active torsions:
REMARK  status: ('A' for Active; 'I' for Inactive)
REMARK    1  A    between atoms: S_1  and  N_8
REMARK    2  A    between atoms: S_1  and  C_19
REMARK    3  A    between atoms: O_6  and  C_25
REMARK    4  A    between atoms: O_6  and  C_35
REMARK    5  A    between atoms: N_10  and  C_20
REMARK    6  A    between atoms: N_11  and  C_22
REMARK    7  A    between atoms: C_13  and  C_17
REMARK    8  A    between atoms: C_20  and  C_21
REMARK    9  A    between atoms: C_20  and  C_25
REMARK   10  A    between atoms: C_21  and  C_26
REMARK   11  A    between atoms: C_22  and  C_27
REMARK   12  A    between atoms: C_22  and  C_28
REMARK                            x       y       z     vdW  Elec       q    Type
REMARK                         _______ _______ _______ _____ _____    ______ ____
ROOT
ATOM      5  O   UNL     1       2.661  -1.098  24.165  0.00  0.00    -0.253 OA
ATOM      8  N   UNL     1      -2.272  -0.336  24.311  0.00  0.00    -0.162 NA
ATOM      9  N   UNL     1       0.493  -0.510  23.569  0.00  0.00    -0.282 N 
ATOM     11  N   UNL     1       2.350   0.703  22.768  0.00  0.00    -0.297 N 
ATOM     13  C   UNL     1      -1.350  -1.201  25.100  0.00  0.00    +0.183 C 
ATOM     14  C   UNL     1      -0.102  -1.616  24.322  0.00  0.00    +0.139 C 
ATOM     15  C   UNL     1      -1.875  -0.141  22.893  0.00  0.00    +0.129 C 
ATOM     16  C   UNL     1      -0.438   0.360  22.842  0.00  0.00    +0.126 C 
ATOM     18  C   UNL     1       1.892  -0.357  23.545  0.00  0.00    +0.303 C 
ATOM     38  H   UNL     1       1.691   1.359  22.364  0.00  0.00    +0.150 HD
ENDROOT
BRANCH  13  17
ATOM      4  O   UNL     1      -0.579  -0.875  27.332  0.00  0.00    -0.274 OA
ATOM     10  N   UNL     1      -1.202   0.980  26.071  0.00  0.00    -0.301 N 
ATOM     17  C   UNL     1      -0.991  -0.371  26.291  0.00  0.00    +0.234 C 
ATOM     37  H   UNL     1      -1.572   1.285  25.176  0.00  0.00    +0.150 HD
BRANCH  10  20
ATOM     20  C   UNL     1      -0.955   1.991  27.072  0.00  0.00    +0.186 C 
BRANCH  20  25
ATOM      7  O   UNL     1       1.329   2.317  26.352  0.00  0.00    -0.249 OA
ATOM     25  C   UNL     1       0.535   2.237  27.282  0.00  0.00    +0.328 C 
BRANCH  25   6
ATOM      6  O   UNL     1       0.858   2.334  28.603  0.00  0.00    -0.467 OA
ATOM     35  C   UNL     1       2.210   2.708  28.885  0.00  0.00    +0.280 C 
ENDBRANCH  25   6
ENDBRANCH  20  25
BRANCH  20  21
ATOM     21  C   UNL     1      -1.715   3.292  26.774  0.00  0.00    +0.070 C 
BRANCH  21  26
ATOM     12  N   UNL     1      -0.092   3.947  23.411  0.00  0.00    -0.263 NA
ATOM     26  C   UNL     1      -1.264   4.014  25.523  0.00  0.00    -0.027 A 
ATOM     32  C   UNL     1      -1.574   5.353  25.318  0.00  0.00    +0.006 A 
ATOM     33  C   UNL     1      -0.527   3.362  24.548  0.00  0.00    +0.114 A 
ATOM     34  C   UNL     1      -1.143   5.991  24.160  0.00  0.00    +0.020 A 
ATOM     36  C   UNL     1      -0.411   5.250  23.245  0.00  0.00    +0.111 A 
ENDBRANCH  21  26
ENDBRANCH  20  21
ENDBRANCH  10  20
ENDBRANCH  13  17
BRANCH   8   1
ATOM      1  S   UNL     1      -3.946  -0.531  24.605  0.00  0.00    +0.062 S 
ATOM      2  O   UNL     1      -4.131  -1.172  25.889  0.00  0.00    -0.153 OA
ATOM      3  O   UNL     1      -4.576  -1.058  23.412  0.00  0.00    -0.153 OA
BRANCH   1  19
ATOM     19  C   UNL     1      -4.430   1.159  24.771  0.00  0.00    +0.106 A 
ATOM     23  C   UNL     1      -3.902   2.125  23.913  0.00  0.00    +0.028 A 
ATOM     24  C   UNL     1      -5.339   1.530  25.763  0.00  0.00    +0.028 A 
ATOM     29  C   UNL     1      -4.281   3.459  24.048  0.00  0.00    +0.002 A 
ATOM     30  C   UNL     1      -5.718   2.864  25.897  0.00  0.00    +0.002 A 
ATOM     31  C   UNL     1      -5.190   3.830  25.039  0.00  0.00    +0.000 A 
ENDBRANCH   1  19
ENDBRANCH   8   1
BRANCH  11  22
ATOM     22  C   UNL     1       3.756   1.011  22.629  0.00  0.00    +0.068 C 
ATOM     27  C   UNL     1       4.304   0.410  21.341  0.00  0.00    +0.027 C 
ATOM     28  C   UNL     1       4.534   0.519  23.843  0.00  0.00    +0.027 C 
ENDBRANCH  11  22
TORSDOF 9
ENDMDL
