MODEL 1
REMARK VINA RESULT:      -0.2      0.000      0.000
REMARK  Name = 71693248
REMARK  6 active torsions:
REMARK  status: ('A' for Active; 'I' for Inactive)
REMARK    1  A    between atoms: O_2  and  C_10
REMARK    2  A    between atoms: N_6  and  C_15
REMARK    3  A    between atoms: CA_7  and  C_10
REMARK    4  A    between atoms: C_8  and  C_9
REMARK    5  A    between atoms: C_18  and  C_19
REMARK    6  A    between atoms: C_19  and  C_20
REMARK                            x       y       z     vdW  Elec       q    Type
REMARK                         _______ _______ _______ _____ _____    ______ ____
ROOT
ATOM      9  C   UNL     1      -2.179   1.717  24.951  0.00  0.00    -0.017 A 
ATOM     13  C   UNL     1      -1.892   0.413  25.352  0.00  0.00    +0.008 A 
ATOM     14  C   UNL     1      -1.336   2.373  24.053  0.00  0.00    +0.008 A 
ATOM     15  C   UNL     1       0.083   0.419  23.959  0.00  0.00    +0.033 A 
ATOM     16  C   UNL     1      -0.761  -0.236  24.855  0.00  0.00    +0.023 A 
ATOM     17  C   UNL     1      -0.205   1.725  23.558  0.00  0.00    +0.023 A 
ENDROOT
BRANCH   9   8
ATOM      1  O   UNL     1      -3.288   3.811  25.159  0.00  0.00    -0.361 OA
ATOM      3  O   UNL     1      -6.660   4.845  25.809  0.00  0.00    -0.273 OA
ATOM      5  N   UNL     1      -5.835   2.766  25.296  0.00  0.00    -0.306 N 
ATOM      7  CA  UNL     1      -4.725   1.911  24.886  0.00  0.00    +0.131 C 
ATOM      8  C   UNL     1      -3.406   2.421  25.488  0.00  0.00    +0.171 C 
ATOM     11  C   UNL     1      -4.277   4.583  25.808  0.00  0.00    +0.256 C 
ATOM     12  C   UNL     1      -5.701   4.098  25.618  0.00  0.00    +0.239 C 
ATOM     26  H   UNL     1      -6.779   2.414  25.164  0.00  0.00    +0.149 HD
BRANCH   7  10
ATOM     10  C   UNL     1      -5.022   0.463  25.267  0.00  0.00    +0.181 C 
BRANCH  10   2
ATOM      2  O   UNL     1      -4.770  -0.359  24.142  0.00  0.00    -0.393 OA
ATOM     27  H   UNL     1      -3.950  -0.038  23.729  0.00  0.00    +0.209 HD
ENDBRANCH  10   2
ENDBRANCH   7  10
ENDBRANCH   9   8
BRANCH  15   6
ATOM      4  O   UNL     1       0.834  -0.295  21.142  0.00  0.00    -0.275 OA
ATOM      6  N   UNL     1       1.213  -0.230  23.463  0.00  0.00    -0.285 N 
ATOM     18  C   UNL     1       1.520  -0.542  22.128  0.00  0.00    +0.222 C 
ATOM     28  H   UNL     1       1.891  -0.501  24.171  0.00  0.00    +0.155 HD
BRANCH  18  19
ATOM     19  C   UNL     1       2.860  -1.256  22.028  0.00  0.00    +0.131 C 
BRANCH  19  20
ATOM     20  C   UNL     1       3.937  -0.629  22.874  0.00  0.00    -0.039 A 
ATOM     21  C   UNL     1       4.657  -1.409  23.779  0.00  0.00    +0.004 A 
ATOM     22  C   UNL     1       4.216   0.732  22.750  0.00  0.00    +0.004 A 
ATOM     23  C   UNL     1       5.655  -0.828  24.561  0.00  0.00    +0.000 A 
ATOM     24  C   UNL     1       5.215   1.313  23.533  0.00  0.00    +0.000 A 
ATOM     25  C   UNL     1       5.934   0.533  24.438  0.00  0.00    +0.000 A 
ENDBRANCH  19  20
ENDBRANCH  18  19
ENDBRANCH  15   6
TORSDOF 6
ENDMDL
MODEL 2
REMARK VINA RESULT:       0.8      1.268      2.363
REMARK  Name = 71693248
REMARK  6 active torsions:
REMARK  status: ('A' for Active; 'I' for Inactive)
REMARK    1  A    between atoms: O_2  and  C_10
REMARK    2  A    between atoms: N_6  and  C_15
REMARK    3  A    between atoms: CA_7  and  C_10
REMARK    4  A    between atoms: C_8  and  C_9
REMARK    5  A    between atoms: C_18  and  C_19
REMARK    6  A    between atoms: C_19  and  C_20
REMARK                            x       y       z     vdW  Elec       q    Type
REMARK                         _______ _______ _______ _____ _____    ______ ____
ROOT
ATOM      9  C   UNL     1      -2.792   1.582  24.179  0.00  0.00    -0.017 A 
ATOM     13  C   UNL     1      -2.445   2.154  22.956  0.00  0.00    +0.008 A 
ATOM     14  C   UNL     1      -1.863   0.809  24.877  0.00  0.00    +0.008 A 
ATOM     15  C   UNL     1      -0.240   1.181  23.126  0.00  0.00    +0.033 A 
ATOM     16  C   UNL     1      -1.169   1.954  22.430  0.00  0.00    +0.023 A 
ATOM     17  C   UNL     1      -0.587   0.608  24.350  0.00  0.00    +0.023 A 
ENDROOT
BRANCH   9   8
ATOM      1  O   UNL     1      -4.582   0.578  25.381  0.00  0.00    -0.361 OA
ATOM      3  O   UNL     1      -7.381   1.803  27.260  0.00  0.00    -0.273 OA
ATOM      5  N   UNL     1      -5.549   2.925  26.455  0.00  0.00    -0.306 N 
ATOM      7  CA  UNL     1      -4.239   2.912  25.810  0.00  0.00    +0.131 C 
ATOM      8  C   UNL     1      -4.176   1.799  24.752  0.00  0.00    +0.171 C 
ATOM     11  C   UNL     1      -5.944   0.614  25.752  0.00  0.00    +0.256 C 
ATOM     12  C   UNL     1      -6.355   1.816  26.580  0.00  0.00    +0.239 C 
ATOM     26  H   UNL     1      -5.802   3.746  26.998  0.00  0.00    +0.149 HD
BRANCH   7  10
ATOM     10  C   UNL     1      -3.937   4.291  25.228  0.00  0.00    +0.181 C 
BRANCH  10   2
ATOM      2  O   UNL     1      -2.603   4.634  25.556  0.00  0.00    -0.393 OA
ATOM     27  H   UNL     1      -2.602   5.574  25.807  0.00  0.00    +0.209 HD
ENDBRANCH  10   2
ENDBRANCH   7  10
ENDBRANCH   9   8
BRANCH  15   6
ATOM      4  O   UNL     1       0.878  -1.125  21.563  0.00  0.00    -0.275 OA
ATOM      6  N   UNL     1       1.036   0.981  22.599  0.00  0.00    -0.285 N 
ATOM     18  C   UNL     1       1.512  -0.122  21.870  0.00  0.00    +0.222 C 
ATOM     28  H   UNL     1       1.690   1.741  22.771  0.00  0.00    +0.155 HD
BRANCH  18  19
ATOM     19  C   UNL     1       2.971   0.067  21.483  0.00  0.00    +0.131 C 
BRANCH  19  20
ATOM     20  C   UNL     1       3.926  -0.142  22.629  0.00  0.00    -0.039 A 
ATOM     21  C   UNL     1       4.004  -1.385  23.256  0.00  0.00    +0.004 A 
ATOM     22  C   UNL     1       4.736   0.908  23.061  0.00  0.00    +0.004 A 
ATOM     23  C   UNL     1       4.889  -1.578  24.317  0.00  0.00    +0.000 A 
ATOM     24  C   UNL     1       5.622   0.715  24.122  0.00  0.00    +0.000 A 
ATOM     25  C   UNL     1       5.698  -0.528  24.749  0.00  0.00    +0.000 A 
ENDBRANCH  19  20
ENDBRANCH  18  19
ENDBRANCH  15   6
TORSDOF 6
ENDMDL
MODEL 3
REMARK VINA RESULT:       2.5     15.503     18.864
REMARK  Name = 71693248
REMARK  6 active torsions:
REMARK  status: ('A' for Active; 'I' for Inactive)
REMARK    1  A    between atoms: O_2  and  C_10
REMARK    2  A    between atoms: N_6  and  C_15
REMARK    3  A    between atoms: CA_7  and  C_10
REMARK    4  A    between atoms: C_8  and  C_9
REMARK    5  A    between atoms: C_18  and  C_19
REMARK    6  A    between atoms: C_19  and  C_20
REMARK                            x       y       z     vdW  Elec       q    Type
REMARK                         _______ _______ _______ _____ _____    ______ ____
ROOT
ATOM      9  C   UNL     1      -2.025  -9.222  11.107  0.00  0.00    -0.017 A 
ATOM     13  C   UNL     1      -2.992  -8.221  11.179  0.00  0.00    +0.008 A 
ATOM     14  C   UNL     1      -2.375 -10.501  10.675  0.00  0.00    +0.008 A 
ATOM     15  C   UNL     1      -4.662  -9.777  10.386  0.00  0.00    +0.033 A 
ATOM     16  C   UNL     1      -4.311  -8.499  10.818  0.00  0.00    +0.023 A 
ATOM     17  C   UNL     1      -3.693 -10.779  10.315  0.00  0.00    +0.023 A 
ENDROOT
BRANCH   9   8
ATOM      1  O   UNL     1       0.073  -8.402  10.340  0.00  0.00    -0.361 OA
ATOM      3  O   UNL     1       3.009  -7.074  11.914  0.00  0.00    -0.273 OA
ATOM      5  N   UNL     1       0.932  -7.494  12.797  0.00  0.00    -0.306 N 
ATOM      7  CA  UNL     1      -0.465  -7.877  12.617  0.00  0.00    +0.131 C 
ATOM      8  C   UNL     1      -0.594  -8.921  11.498  0.00  0.00    +0.171 C 
ATOM     11  C   UNL     1       1.465  -8.299  10.547  0.00  0.00    +0.256 C 
ATOM     12  C   UNL     1       1.878  -7.544  11.796  0.00  0.00    +0.239 C 
ATOM     26  H   UNL     1       1.182  -6.996  13.646  0.00  0.00    +0.149 HD
BRANCH   7  10
ATOM     10  C   UNL     1      -1.040  -8.366  13.944  0.00  0.00    +0.181 C 
BRANCH  10   2
ATOM      2  O   UNL     1      -0.986  -9.780  13.963  0.00  0.00    -0.393 OA
ATOM     27  H   UNL     1      -1.433 -10.074  14.775  0.00  0.00    +0.209 HD
ENDBRANCH  10   2
ENDBRANCH   7  10
ENDBRANCH   9   8
BRANCH  15   6
ATOM      4  O   UNL     1      -6.368  -8.607   8.211  0.00  0.00    -0.275 OA
ATOM      6  N   UNL     1      -5.981 -10.054  10.025  0.00  0.00    -0.285 N 
ATOM     18  C   UNL     1      -6.738  -9.476   8.993  0.00  0.00    +0.222 C 
ATOM     28  H   UNL     1      -6.433 -10.770  10.589  0.00  0.00    +0.155 HD
BRANCH  18  19
ATOM     19  C   UNL     1      -8.138 -10.070   8.945  0.00  0.00    +0.131 C 
BRANCH  19  20
ATOM     20  C   UNL     1      -8.906  -9.899  10.229  0.00  0.00    -0.039 A 
ATOM     21  C   UNL     1      -9.977  -9.007  10.289  0.00  0.00    +0.004 A 
ATOM     22  C   UNL     1      -8.548 -10.634  11.358  0.00  0.00    +0.004 A 
ATOM     23  C   UNL     1     -10.688  -8.849  11.479  0.00  0.00    +0.000 A 
ATOM     24  C   UNL     1      -9.259 -10.477  12.549  0.00  0.00    +0.000 A 
ATOM     25  C   UNL     1     -10.329  -9.584  12.608  0.00  0.00    +0.000 A 
ENDBRANCH  19  20
ENDBRANCH  18  19
ENDBRANCH  15   6
TORSDOF 6
ENDMDL
MODEL 4
REMARK VINA RESULT:       2.8      2.473      8.570
REMARK  Name = 71693248
REMARK  6 active torsions:
REMARK  status: ('A' for Active; 'I' for Inactive)
REMARK    1  A    between atoms: O_2  and  C_10
REMARK    2  A    between atoms: N_6  and  C_15
REMARK    3  A    between atoms: CA_7  and  C_10
REMARK    4  A    between atoms: C_8  and  C_9
REMARK    5  A    between atoms: C_18  and  C_19
REMARK    6  A    between atoms: C_19  and  C_20
REMARK                            x       y       z     vdW  Elec       q    Type
REMARK                         _______ _______ _______ _____ _____    ______ ____
ROOT
ATOM      9  C   UNL     1       1.622   0.687  23.701  0.00  0.00    -0.017 A 
ATOM     13  C   UNL     1       0.913   1.869  23.908  0.00  0.00    +0.008 A 
ATOM     14  C   UNL     1       0.978  -0.544  23.825  0.00  0.00    +0.008 A 
ATOM     15  C   UNL     1      -1.086   0.591  24.363  0.00  0.00    +0.033 A 
ATOM     16  C   UNL     1      -0.441   1.821  24.239  0.00  0.00    +0.023 A 
ATOM     17  C   UNL     1      -0.376  -0.593  24.156  0.00  0.00    +0.023 A 
ENDROOT
BRANCH   9   8
ATOM      1  O   UNL     1       3.837   0.355  24.505  0.00  0.00    -0.361 OA
ATOM      3  O   UNL     1       7.033  -0.210  22.979  0.00  0.00    -0.273 OA
ATOM      5  N   UNL     1       4.934  -0.259  22.052  0.00  0.00    -0.306 N 
ATOM      7  CA  UNL     1       3.483  -0.217  22.203  0.00  0.00    +0.131 C 
ATOM      8  C   UNL     1       3.092   0.738  23.342  0.00  0.00    +0.171 C 
ATOM     11  C   UNL     1       5.219   0.584  24.332  0.00  0.00    +0.256 C 
ATOM     12  C   UNL     1       5.822  -0.019  23.078  0.00  0.00    +0.239 C 
ATOM     26  H   UNL     1       5.311  -0.662  21.199  0.00  0.00    +0.149 HD
BRANCH   7  10
ATOM     10  C   UNL     1       2.837   0.162  20.873  0.00  0.00    +0.181 C 
BRANCH  10   2
ATOM      2  O   UNL     1       1.574  -0.472  20.789  0.00  0.00    -0.393 OA
ATOM     27  H   UNL     1       0.925   0.126  21.198  0.00  0.00    +0.209 HD
ENDBRANCH  10   2
ENDBRANCH   7  10
ENDBRANCH   9   8
BRANCH  15   6
ATOM      4  O   UNL     1      -3.128  -1.558  23.887  0.00  0.00    -0.275 OA
ATOM      6  N   UNL     1      -2.441   0.543  24.693  0.00  0.00    -0.285 N 
ATOM     18  C   UNL     1      -3.359  -0.492  24.448  0.00  0.00    +0.222 C 
ATOM     28  H   UNL     1      -2.789   1.369  25.174  0.00  0.00    +0.155 HD
BRANCH  18  19
ATOM     19  C   UNL     1      -4.740  -0.133  24.975  0.00  0.00    +0.131 C 
BRANCH  19  20
ATOM     20  C   UNL     1      -4.970   1.351  25.092  0.00  0.00    -0.039 A 
ATOM     21  C   UNL     1      -4.246   2.235  24.290  0.00  0.00    +0.004 A 
ATOM     22  C   UNL     1      -5.908   1.842  25.999  0.00  0.00    +0.004 A 
ATOM     23  C   UNL     1      -4.460   3.609  24.398  0.00  0.00    +0.000 A 
ATOM     24  C   UNL     1      -6.122   3.217  26.107  0.00  0.00    +0.000 A 
ATOM     25  C   UNL     1      -5.398   4.100  25.306  0.00  0.00    +0.000 A 
ENDBRANCH  19  20
ENDBRANCH  18  19
ENDBRANCH  15   6
TORSDOF 6
ENDMDL
MODEL 5
REMARK VINA RESULT:       3.8      2.327      8.622
REMARK  Name = 71693248
REMARK  6 active torsions:
REMARK  status: ('A' for Active; 'I' for Inactive)
REMARK    1  A    between atoms: O_2  and  C_10
REMARK    2  A    between atoms: N_6  and  C_15
REMARK    3  A    between atoms: CA_7  and  C_10
REMARK    4  A    between atoms: C_8  and  C_9
REMARK    5  A    between atoms: C_18  and  C_19
REMARK    6  A    between atoms: C_19  and  C_20
REMARK                            x       y       z     vdW  Elec       q    Type
REMARK                         _______ _______ _______ _____ _____    ______ ____
ROOT
ATOM      9  C   UNL     1       1.049   1.166  23.522  0.00  0.00    -0.017 A 
ATOM     13  C   UNL     1       1.086   2.253  24.395  0.00  0.00    +0.008 A 
ATOM     14  C   UNL     1      -0.173   0.704  23.035  0.00  0.00    +0.008 A 
ATOM     15  C   UNL     1      -1.323   2.416  24.293  0.00  0.00    +0.033 A 
ATOM     16  C   UNL     1      -0.100   2.878  24.780  0.00  0.00    +0.023 A 
ATOM     17  C   UNL     1      -1.359   1.328  23.420  0.00  0.00    +0.023 A 
ENDROOT
BRANCH   9   8
ATOM      1  O   UNL     1       3.382   1.464  23.166  0.00  0.00    -0.361 OA
ATOM      3  O   UNL     1       6.220  -0.720  22.966  0.00  0.00    -0.273 OA
ATOM      5  N   UNL     1       4.078  -1.156  23.666  0.00  0.00    -0.306 N 
ATOM      7  CA  UNL     1       2.739  -0.686  24.009  0.00  0.00    +0.131 C 
ATOM      8  C   UNL     1       2.336   0.488  23.103  0.00  0.00    +0.171 C 
ATOM     11  C   UNL     1       4.576   0.983  22.584  0.00  0.00    +0.256 C 
ATOM     12  C   UNL     1       5.052  -0.359  23.105  0.00  0.00    +0.239 C 
ATOM     26  H   UNL     1       4.369  -2.061  24.022  0.00  0.00    +0.149 HD
BRANCH   7  10
ATOM     10  C   UNL     1       1.751  -1.848  23.936  0.00  0.00    +0.181 C 
BRANCH  10   2
ATOM      2  O   UNL     1       0.843  -1.734  25.016  0.00  0.00    -0.393 OA
ATOM     27  H   UNL     1       0.998  -2.495  25.603  0.00  0.00    +0.209 HD
ENDBRANCH  10   2
ENDBRANCH   7  10
ENDBRANCH   9   8
BRANCH  15   6
ATOM      4  O   UNL     1      -1.820   5.218  25.248  0.00  0.00    -0.275 OA
ATOM      6  N   UNL     1      -2.508   3.042  24.679  0.00  0.00    -0.285 N 
ATOM     18  C   UNL     1      -2.689   4.364  25.120  0.00  0.00    +0.222 C 
ATOM     28  H   UNL     1      -3.335   2.453  24.624  0.00  0.00    +0.155 HD
BRANCH  18  19
ATOM     19  C   UNL     1      -4.151   4.637  25.440  0.00  0.00    +0.131 C 
BRANCH  19  20
ATOM     20  C   UNL     1      -4.999   3.392  25.479  0.00  0.00    -0.039 A 
ATOM     21  C   UNL     1      -5.724   3.077  26.628  0.00  0.00    +0.004 A 
ATOM     22  C   UNL     1      -5.060   2.555  24.365  0.00  0.00    +0.004 A 
ATOM     23  C   UNL     1      -6.509   1.924  26.664  0.00  0.00    +0.000 A 
ATOM     24  C   UNL     1      -5.846   1.402  24.400  0.00  0.00    +0.000 A 
ATOM     25  C   UNL     1      -6.570   1.088  25.550  0.00  0.00    +0.000 A 
ENDBRANCH  19  20
ENDBRANCH  18  19
ENDBRANCH  15   6
TORSDOF 6
ENDMDL
