MODEL 1
REMARK VINA RESULT:      -2.8      0.000      0.000
REMARK  Name = 28959871
REMARK  11 active torsions:
REMARK  status: ('A' for Active; 'I' for Inactive)
REMARK    1  A    between atoms: O_2  and  C_22
REMARK    2  A    between atoms: O_5  and  C_31
REMARK    3  A    between atoms: O_5  and  C_32
REMARK    4  A    between atoms: N_7  and  C_16
REMARK    5  A    between atoms: C_9  and  C_13
REMARK    6  A    between atoms: C_10  and  C_15
REMARK    7  A    between atoms: C_13  and  C_16
REMARK    8  A    between atoms: C_15  and  C_22
REMARK    9  A    between atoms: C_19  and  C_23
REMARK   10  A    between atoms: C_23  and  C_25
REMARK   11  A    between atoms: C_24  and  C_26
REMARK                            x       y       z     vdW  Elec       q    Type
REMARK                         _______ _______ _______ _____ _____    ______ ____
ROOT
ATOM      1  O   UNL     1      -6.197   1.785  26.381  0.00  0.00    -0.275 OA
ATOM      6  N   UNL     1      -4.710   2.769  24.893  0.00  0.00    -0.301 N 
ATOM      9  C   UNL     1      -2.458   2.957  23.857  0.00  0.00    +0.011 C 
ATOM     10  C   UNL     1      -2.206   4.217  24.725  0.00  0.00    +0.006 C 
ATOM     11  C   UNL     1      -3.970   2.778  23.624  0.00  0.00    +0.111 C 
ATOM     12  C   UNL     1      -3.038   4.189  26.018  0.00  0.00    +0.023 C 
ATOM     14  C   UNL     1      -4.518   3.960  25.720  0.00  0.00    +0.108 C 
ATOM     19  C   UNL     1      -5.567   1.756  25.321  0.00  0.00    +0.220 C 
ENDROOT
BRANCH   9  13
ATOM     13  C   UNL     1      -1.853   1.672  24.434  0.00  0.00    +0.020 C 
BRANCH  13  16
ATOM     16  C   UNL     1      -1.592   0.654  23.333  0.00  0.00    +0.085 C 
BRANCH  16   7
ATOM      4  O   UNL     1       4.138  -1.519  23.175  0.00  0.00    -0.276 OA
ATOM      7  N   UNL     1      -0.205   0.759  22.878  0.00  0.00    -0.299 NA
ATOM      8  N   UNL     1       2.606   0.211  22.949  0.00  0.00    -0.299 N 
ATOM     17  C   UNL     1       0.308  -0.559  22.478  0.00  0.00    +0.103 C 
ATOM     18  C   UNL     1       0.640   1.342  23.930  0.00  0.00    +0.103 C 
ATOM     20  C   UNL     1       1.745  -0.448  21.969  0.00  0.00    +0.123 C 
ATOM     21  C   UNL     1       2.087   1.485  23.454  0.00  0.00    +0.123 C 
ATOM     24  C   UNL     1       3.863  -0.319  23.239  0.00  0.00    +0.213 C 
ATOM     26  C   UNL     1       4.929   0.662  23.658  0.00  0.00    +0.109 C 
ENDBRANCH  16   7
ENDBRANCH  13  16
ENDBRANCH   9  13
BRANCH  10  15
ATOM     15  C   UNL     1      -0.728   4.442  25.039  0.00  0.00    +0.124 C 
BRANCH  15  22
ATOM      3  O   UNL     1       0.901   3.140  26.302  0.00  0.00    -0.251 OA
ATOM     22  C   UNL     1      -0.247   3.526  26.130  0.00  0.00    +0.305 C 
BRANCH  22   2
ATOM      2  O   UNL     1      -1.289   3.173  26.926  0.00  0.00    -0.481 OA
ATOM     33  H   UNL     1      -1.926   2.592  26.458  0.00  0.00    +0.295 HD
ENDBRANCH  22   2
ENDBRANCH  15  22
ENDBRANCH  10  15
BRANCH  19  23
ATOM     23  C   UNL     1      -5.708   0.561  24.412  0.00  0.00    +0.131 C 
BRANCH  23  25
ATOM     25  C   UNL     1      -4.597  -0.414  24.646  0.00  0.00    -0.038 A 
ATOM     27  C   UNL     1      -4.322  -1.399  23.697  0.00  0.00    +0.007 A 
ATOM     28  C   UNL     1      -3.837  -0.337  25.812  0.00  0.00    +0.007 A 
ATOM     29  C   UNL     1      -3.287  -2.307  23.915  0.00  0.00    +0.046 A 
ATOM     30  C   UNL     1      -2.801  -1.246  26.031  0.00  0.00    +0.046 A 
ATOM     31  C   UNL     1      -2.526  -2.231  25.082  0.00  0.00    +0.120 A 
BRANCH  31   5
ATOM      5  O   UNL     1      -1.515  -3.117  25.295  0.00  0.00    -0.495 OA
ATOM     32  C   UNL     1      -0.199  -2.581  25.423  0.00  0.00    +0.277 C 
ENDBRANCH  31   5
ENDBRANCH  23  25
ENDBRANCH  19  23
TORSDOF 9
ENDMDL
MODEL 2
REMARK VINA RESULT:       0.1      1.276      4.403
REMARK  Name = 28959871
REMARK  11 active torsions:
REMARK  status: ('A' for Active; 'I' for Inactive)
REMARK    1  A    between atoms: O_2  and  C_22
REMARK    2  A    between atoms: O_5  and  C_31
REMARK    3  A    between atoms: O_5  and  C_32
REMARK    4  A    between atoms: N_7  and  C_16
REMARK    5  A    between atoms: C_9  and  C_13
REMARK    6  A    between atoms: C_10  and  C_15
REMARK    7  A    between atoms: C_13  and  C_16
REMARK    8  A    between atoms: C_15  and  C_22
REMARK    9  A    between atoms: C_19  and  C_23
REMARK   10  A    between atoms: C_23  and  C_25
REMARK   11  A    between atoms: C_24  and  C_26
REMARK                            x       y       z     vdW  Elec       q    Type
REMARK                         _______ _______ _______ _____ _____    ______ ____
ROOT
ATOM      1  O   UNL     1      -6.413   1.618  24.056  0.00  0.00    -0.275 OA
ATOM      6  N   UNL     1      -4.922   0.225  25.166  0.00  0.00    -0.301 N 
ATOM      9  C   UNL     1      -2.611  -0.479  25.749  0.00  0.00    +0.011 C 
ATOM     10  C   UNL     1      -2.763  -1.663  24.760  0.00  0.00    +0.006 C 
ATOM     11  C   UNL     1      -3.996  -0.054  26.272  0.00  0.00    +0.111 C 
ATOM     12  C   UNL     1      -3.778  -1.346  23.649  0.00  0.00    +0.023 C 
ATOM     14  C   UNL     1      -5.112  -0.885  24.233  0.00  0.00    +0.108 C 
ATOM     19  C   UNL     1      -5.621   1.417  24.979  0.00  0.00    +0.220 C 
ENDROOT
BRANCH   9  13
ATOM     13  C   UNL     1      -1.869   0.730  25.166  0.00  0.00    +0.020 C 
BRANCH  13  16
ATOM     16  C   UNL     1      -1.905   0.707  23.644  0.00  0.00    +0.085 C 
BRANCH  16   7
ATOM      4  O   UNL     1       3.850  -1.321  23.052  0.00  0.00    -0.276 OA
ATOM      7  N   UNL     1      -0.551   0.864  23.113  0.00  0.00    -0.299 NA
ATOM      8  N   UNL     1       2.270   0.380  22.992  0.00  0.00    -0.299 N 
ATOM     17  C   UNL     1      -0.036  -0.424  22.626  0.00  0.00    +0.103 C 
ATOM     18  C   UNL     1       0.344   1.423  24.136  0.00  0.00    +0.103 C 
ATOM     20  C   UNL     1       1.365  -0.258  22.038  0.00  0.00    +0.123 C 
ATOM     21  C   UNL     1       1.756   1.620  23.581  0.00  0.00    +0.123 C 
ATOM     24  C   UNL     1       3.553  -0.132  23.184  0.00  0.00    +0.213 C 
ATOM     26  C   UNL     1       4.621   0.857  23.580  0.00  0.00    +0.109 C 
ENDBRANCH  16   7
ENDBRANCH  13  16
ENDBRANCH   9  13
BRANCH  10  15
ATOM     15  C   UNL     1      -1.432  -2.117  24.160  0.00  0.00    +0.124 C 
BRANCH  15  22
ATOM      3  O   UNL     1      -0.254  -3.752  25.533  0.00  0.00    -0.251 OA
ATOM     22  C   UNL     1      -0.478  -2.591  25.222  0.00  0.00    +0.305 C 
BRANCH  22   2
ATOM      2  O   UNL     1       0.122  -1.523  25.808  0.00  0.00    -0.481 OA
ATOM     33  H   UNL     1       0.713  -1.793  26.542  0.00  0.00    +0.295 HD
ENDBRANCH  22   2
ENDBRANCH  15  22
ENDBRANCH  10  15
BRANCH  19  23
ATOM     23  C   UNL     1      -5.368   2.514  25.984  0.00  0.00    +0.131 C 
BRANCH  23  25
ATOM     25  C   UNL     1      -4.118   3.263  25.644  0.00  0.00    -0.038 A 
ATOM     27  C   UNL     1      -3.850   3.610  24.320  0.00  0.00    +0.007 A 
ATOM     28  C   UNL     1      -3.221   3.615  26.653  0.00  0.00    +0.007 A 
ATOM     29  C   UNL     1      -2.684   4.307  24.004  0.00  0.00    +0.046 A 
ATOM     30  C   UNL     1      -2.056   4.313  26.337  0.00  0.00    +0.046 A 
ATOM     31  C   UNL     1      -1.787   4.659  25.013  0.00  0.00    +0.120 A 
BRANCH  31   5
ATOM      5  O   UNL     1      -0.650   5.341  24.705  0.00  0.00    -0.495 OA
ATOM     32  C   UNL     1       0.065   4.920  23.545  0.00  0.00    +0.277 C 
ENDBRANCH  31   5
ENDBRANCH  23  25
ENDBRANCH  19  23
TORSDOF 9
ENDMDL
MODEL 3
REMARK VINA RESULT:       0.8      1.678      2.377
REMARK  Name = 28959871
REMARK  11 active torsions:
REMARK  status: ('A' for Active; 'I' for Inactive)
REMARK    1  A    between atoms: O_2  and  C_22
REMARK    2  A    between atoms: O_5  and  C_31
REMARK    3  A    between atoms: O_5  and  C_32
REMARK    4  A    between atoms: N_7  and  C_16
REMARK    5  A    between atoms: C_9  and  C_13
REMARK    6  A    between atoms: C_10  and  C_15
REMARK    7  A    between atoms: C_13  and  C_16
REMARK    8  A    between atoms: C_15  and  C_22
REMARK    9  A    between atoms: C_19  and  C_23
REMARK   10  A    between atoms: C_23  and  C_25
REMARK   11  A    between atoms: C_24  and  C_26
REMARK                            x       y       z     vdW  Elec       q    Type
REMARK                         _______ _______ _______ _____ _____    ______ ____
ROOT
ATOM      1  O   UNL     1      -4.800   3.679  26.332  0.00  0.00    -0.275 OA
ATOM      6  N   UNL     1      -2.526   3.784  25.868  0.00  0.00    -0.301 N 
ATOM      9  C   UNL     1      -0.325   2.700  25.473  0.00  0.00    +0.011 C 
ATOM     10  C   UNL     1       0.092   3.110  26.909  0.00  0.00    +0.006 C 
ATOM     11  C   UNL     1      -1.393   3.675  24.940  0.00  0.00    +0.111 C 
ATOM     12  C   UNL     1      -1.129   3.262  27.831  0.00  0.00    +0.023 C 
ATOM     14  C   UNL     1      -2.169   4.201  27.223  0.00  0.00    +0.108 C 
ATOM     19  C   UNL     1      -3.862   3.555  25.541  0.00  0.00    +0.220 C 
ENDROOT
BRANCH   9  13
ATOM     13  C   UNL     1      -0.820   1.253  25.357  0.00  0.00    +0.020 C 
BRANCH  13  16
ATOM     16  C   UNL     1      -1.017   0.863  23.899  0.00  0.00    +0.085 C 
BRANCH  16   7
ATOM      4  O   UNL     1       4.542  -1.721  23.896  0.00  0.00    -0.276 OA
ATOM      7  N   UNL     1       0.282   0.645  23.263  0.00  0.00    -0.299 NA
ATOM      8  N   UNL     1       3.049  -0.091  23.182  0.00  0.00    -0.299 N 
ATOM     17  C   UNL     1       0.682  -0.765  23.376  0.00  0.00    +0.103 C 
ATOM     18  C   UNL     1       1.302   1.519  23.860  0.00  0.00    +0.103 C 
ATOM     20  C   UNL     1       2.023  -1.004  22.683  0.00  0.00    +0.123 C 
ATOM     21  C   UNL     1       2.659   1.321  23.181  0.00  0.00    +0.123 C 
ATOM     24  C   UNL     1       4.319  -0.577  23.496  0.00  0.00    +0.213 C 
ATOM     26  C   UNL     1       5.469   0.385  23.329  0.00  0.00    +0.109 C 
ENDBRANCH  16   7
ENDBRANCH  13  16
ENDBRANCH   9  13
BRANCH  10  15
ATOM     15  C   UNL     1       1.121   2.165  27.527  0.00  0.00    +0.124 C 
BRANCH  15  22
ATOM      3  O   UNL     1       2.782   3.587  28.604  0.00  0.00    -0.251 OA
ATOM     22  C   UNL     1       1.844   2.807  28.678  0.00  0.00    +0.305 C 
BRANCH  22   2
ATOM      2  O   UNL     1       1.298   2.393  29.851  0.00  0.00    -0.481 OA
ATOM     33  H   UNL     1       1.728   1.578  30.187  0.00  0.00    +0.295 HD
ENDBRANCH  22   2
ENDBRANCH  15  22
ENDBRANCH  10  15
BRANCH  19  23
ATOM     23  C   UNL     1      -4.147   3.126  24.123  0.00  0.00    +0.131 C 
BRANCH  23  25
ATOM     25  C   UNL     1      -4.152   1.633  24.014  0.00  0.00    -0.038 A 
ATOM     27  C   UNL     1      -3.600   1.013  22.894  0.00  0.00    +0.007 A 
ATOM     28  C   UNL     1      -4.707   0.862  25.035  0.00  0.00    +0.007 A 
ATOM     29  C   UNL     1      -3.605  -0.378  22.793  0.00  0.00    +0.046 A 
ATOM     30  C   UNL     1      -4.712  -0.529  24.935  0.00  0.00    +0.046 A 
ATOM     31  C   UNL     1      -4.160  -1.149  23.814  0.00  0.00    +0.120 A 
BRANCH  31   5
ATOM      5  O   UNL     1      -4.164  -2.507  23.716  0.00  0.00    -0.495 OA
ATOM     32  C   UNL     1      -3.295  -3.223  24.592  0.00  0.00    +0.277 C 
ENDBRANCH  31   5
ENDBRANCH  23  25
ENDBRANCH  19  23
TORSDOF 9
ENDMDL
