MODEL 1
REMARK VINA RESULT:       2.3      0.000      0.000
REMARK  Name = 51138093
REMARK  11 active torsions:
REMARK  status: ('A' for Active; 'I' for Inactive)
REMARK    1  A    between atoms: N_3  and  C_20
REMARK    2  A    between atoms: N_4  and  C_25
REMARK    3  A    between atoms: N_5  and  C_29
REMARK    4  A    between atoms: C_7  and  C_13
REMARK    5  A    between atoms: C_9  and  C_18
REMARK    6  A    between atoms: C_13  and  C_15
REMARK    7  A    between atoms: C_15  and  C_22
REMARK    8  A    between atoms: C_15  and  C_23
REMARK    9  A    between atoms: C_20  and  C_24
REMARK   10  A    between atoms: C_25  and  C_26
REMARK   11  A    between atoms: C_25  and  C_27
REMARK                            x       y       z     vdW  Elec       q    Type
REMARK                         _______ _______ _______ _____ _____    ______ ____
ROOT
ATOM      2  N   UNL     1      -2.890   1.466  25.182  0.00  0.00    -0.299 NA
ATOM      3  N   UNL     1       1.472   0.033  23.076  0.00  0.00    -0.339 N 
ATOM      7  C   UNL     1      -2.550   0.181  25.806  0.00  0.00    +0.085 C 
ATOM      8  C   UNL     1      -1.352  -0.560  25.202  0.00  0.00    -0.021 A 
ATOM      9  C   UNL     1      -1.865   2.493  25.307  0.00  0.00    +0.145 C 
ATOM     10  C   UNL     1      -0.370   0.024  24.352  0.00  0.00    +0.008 A 
ATOM     11  C   UNL     1      -0.159   1.347  23.829  0.00  0.00    -0.020 A 
ATOM     12  C   UNL     1      -0.988   2.566  24.058  0.00  0.00    +0.065 C 
ATOM     14  C   UNL     1       0.687  -0.762  23.877  0.00  0.00    +0.050 A 
ATOM     16  C   UNL     1       0.976   1.303  23.045  0.00  0.00    +0.091 A 
ATOM     17  C   UNL     1      -1.139  -1.915  25.565  0.00  0.00    +0.006 A 
ATOM     19  C   UNL     1       0.853  -2.108  24.208  0.00  0.00    +0.026 A 
ATOM     21  C   UNL     1      -0.076  -2.669  25.075  0.00  0.00    +0.002 A 
ATOM     31  H   UNL     1      -3.166   1.337  24.209  0.00  0.00    +0.123 HD
ENDROOT
BRANCH   9  18
ATOM      1  O   UNL     1      -2.045   4.834  25.733  0.00  0.00    -0.274 OA
ATOM      4  N   UNL     1      -3.976   3.620  25.268  0.00  0.00    -0.312 N 
ATOM     18  C   UNL     1      -2.615   3.781  25.456  0.00  0.00    +0.231 C 
ATOM     32  H   UNL     1      -4.331   2.713  24.977  0.00  0.00    +0.149 HD
BRANCH   4  25
ATOM     25  C   UNL     1      -4.924   4.707  25.379  0.00  0.00    +0.067 C 
ATOM     26  C   UNL     1      -6.307   4.169  25.722  0.00  0.00    +0.027 C 
ATOM     27  C   UNL     1      -4.952   5.524  24.094  0.00  0.00    +0.027 C 
ENDBRANCH   4  25
ENDBRANCH   9  18
BRANCH   7  13
ATOM     13  C   UNL     1      -3.849  -0.642  25.735  0.00  0.00    +0.026 C 
BRANCH  13  15
ATOM     15  C   UNL     1      -4.354  -0.840  24.303  0.00  0.00    -0.015 C 
ATOM     22  C   UNL     1      -4.200  -2.313  23.914  0.00  0.00    +0.007 C 
ATOM     23  C   UNL     1      -3.619   0.040  23.291  0.00  0.00    +0.007 C 
ENDBRANCH  13  15
ENDBRANCH   7  13
BRANCH   3  20
ATOM     20  C   UNL     1       2.665  -0.392  22.376  0.00  0.00    +0.196 C 
BRANCH  20  24
ATOM      5  N   UNL     1       4.701  -0.908  23.766  0.00  0.00    -0.336 N 
ATOM      6  N   UNL     1       4.464   1.204  23.121  0.00  0.00    -0.239 NA
ATOM     24  C   UNL     1       3.941  -0.002  23.079  0.00  0.00    +0.129 A 
ATOM     28  C   UNL     1       5.776  -0.238  24.277  0.00  0.00    +0.106 A 
ATOM     29  C   UNL     1       4.433  -2.317  23.929  0.00  0.00    +0.150 C 
ATOM     30  C   UNL     1       5.607   1.064  23.866  0.00  0.00    +0.130 A 
ENDBRANCH  20  24
ENDBRANCH   3  20
TORSDOF 6
ENDMDL
MODEL 2
REMARK VINA RESULT:       2.7      1.966      7.436
REMARK  Name = 51138093
REMARK  11 active torsions:
REMARK  status: ('A' for Active; 'I' for Inactive)
REMARK    1  A    between atoms: N_3  and  C_20
REMARK    2  A    between atoms: N_4  and  C_25
REMARK    3  A    between atoms: N_5  and  C_29
REMARK    4  A    between atoms: C_7  and  C_13
REMARK    5  A    between atoms: C_9  and  C_18
REMARK    6  A    between atoms: C_13  and  C_15
REMARK    7  A    between atoms: C_15  and  C_22
REMARK    8  A    between atoms: C_15  and  C_23
REMARK    9  A    between atoms: C_20  and  C_24
REMARK   10  A    between atoms: C_25  and  C_26
REMARK   11  A    between atoms: C_25  and  C_27
REMARK                            x       y       z     vdW  Elec       q    Type
REMARK                         _______ _______ _______ _____ _____    ______ ____
ROOT
ATOM      2  N   UNL     1       0.477  -0.926  23.436  0.00  0.00    -0.299 NA
ATOM      3  N   UNL     1      -1.929   3.039  25.436  0.00  0.00    -0.339 N 
ATOM      7  C   UNL     1      -0.954  -1.174  23.213  0.00  0.00    +0.085 C 
ATOM      8  C   UNL     1      -1.917  -0.196  23.894  0.00  0.00    -0.021 A 
ATOM      9  C   UNL     1       0.967   0.334  22.896  0.00  0.00    +0.145 C 
ATOM     10  C   UNL     1      -1.558   1.079  24.417  0.00  0.00    +0.008 A 
ATOM     11  C   UNL     1      -0.329   1.825  24.479  0.00  0.00    -0.020 A 
ATOM     12  C   UNL     1       1.013   1.424  23.965  0.00  0.00    +0.065 C 
ATOM     14  C   UNL     1      -2.539   1.886  25.005  0.00  0.00    +0.050 A 
ATOM     16  C   UNL     1      -0.603   3.016  25.120  0.00  0.00    +0.091 A 
ATOM     17  C   UNL     1      -3.294  -0.530  23.952  0.00  0.00    +0.006 A 
ATOM     19  C   UNL     1      -3.883   1.518  25.095  0.00  0.00    +0.026 A 
ATOM     21  C   UNL     1      -4.247   0.296  24.544  0.00  0.00    +0.002 A 
ATOM     31  H   UNL     1       0.713  -1.020  24.423  0.00  0.00    +0.123 HD
ENDROOT
BRANCH   9  18
ATOM      1  O   UNL     1       2.619  -0.145  21.242  0.00  0.00    -0.274 OA
ATOM      4  N   UNL     1       3.267   0.006  23.473  0.00  0.00    -0.312 N 
ATOM     18  C   UNL     1       2.360   0.046  22.428  0.00  0.00    +0.231 C 
ATOM     32  H   UNL     1       2.951   0.245  24.409  0.00  0.00    +0.149 HD
BRANCH   4  25
ATOM     25  C   UNL     1       4.673  -0.274  23.291  0.00  0.00    +0.067 C 
ATOM     26  C   UNL     1       5.020  -1.636  23.876  0.00  0.00    +0.027 C 
ATOM     27  C   UNL     1       5.523   0.827  23.912  0.00  0.00    +0.027 C 
ENDBRANCH   4  25
ENDBRANCH   9  18
BRANCH   7  13
ATOM     13  C   UNL     1      -1.172  -2.629  23.665  0.00  0.00    +0.026 C 
BRANCH  13  15
ATOM     15  C   UNL     1      -1.322  -2.767  25.183  0.00  0.00    -0.015 C 
ATOM     22  C   UNL     1      -2.810  -2.854  25.536  0.00  0.00    +0.007 C 
ATOM     23  C   UNL     1      -0.678  -1.609  25.947  0.00  0.00    +0.007 C 
ENDBRANCH  13  15
ENDBRANCH   7  13
BRANCH   3  20
ATOM     20  C   UNL     1      -2.586   4.139  26.111  0.00  0.00    +0.196 C 
BRANCH  20  24
ATOM      5  N   UNL     1      -4.629   4.596  24.712  0.00  0.00    -0.336 N 
ATOM      6  N   UNL     1      -4.997   3.812  26.757  0.00  0.00    -0.239 NA
ATOM     24  C   UNL     1      -4.077   4.171  25.888  0.00  0.00    +0.129 A 
ATOM     28  C   UNL     1      -5.986   4.502  24.838  0.00  0.00    +0.106 A 
ATOM     29  C   UNL     1      -3.923   5.062  23.542  0.00  0.00    +0.150 C 
ATOM     30  C   UNL     1      -6.189   4.015  26.109  0.00  0.00    +0.130 A 
ENDBRANCH  20  24
ENDBRANCH   3  20
TORSDOF 6
ENDMDL
MODEL 3
REMARK VINA RESULT:       3.6      1.250      1.622
REMARK  Name = 51138093
REMARK  11 active torsions:
REMARK  status: ('A' for Active; 'I' for Inactive)
REMARK    1  A    between atoms: N_3  and  C_20
REMARK    2  A    between atoms: N_4  and  C_25
REMARK    3  A    between atoms: N_5  and  C_29
REMARK    4  A    between atoms: C_7  and  C_13
REMARK    5  A    between atoms: C_9  and  C_18
REMARK    6  A    between atoms: C_13  and  C_15
REMARK    7  A    between atoms: C_15  and  C_22
REMARK    8  A    between atoms: C_15  and  C_23
REMARK    9  A    between atoms: C_20  and  C_24
REMARK   10  A    between atoms: C_25  and  C_26
REMARK   11  A    between atoms: C_25  and  C_27
REMARK                            x       y       z     vdW  Elec       q    Type
REMARK                         _______ _______ _______ _____ _____    ______ ____
ROOT
ATOM      2  N   UNL     1      -3.484   1.922  24.648  0.00  0.00    -0.299 NA
ATOM      3  N   UNL     1       0.797  -0.475  23.448  0.00  0.00    -0.339 N 
ATOM      7  C   UNL     1      -3.593   0.587  25.252  0.00  0.00    +0.085 C 
ATOM      8  C   UNL     1      -2.490  -0.408  24.877  0.00  0.00    -0.021 A 
ATOM      9  C   UNL     1      -2.308   2.678  25.053  0.00  0.00    +0.145 C 
ATOM     10  C   UNL     1      -1.236  -0.064  24.295  0.00  0.00    +0.008 A 
ATOM     11  C   UNL     1      -0.620   1.178  23.910  0.00  0.00    -0.020 A 
ATOM     12  C   UNL     1      -1.181   2.555  24.029  0.00  0.00    +0.065 C 
ATOM     14  C   UNL     1      -0.306  -1.071  24.012  0.00  0.00    +0.050 A 
ATOM     16  C   UNL     1       0.621   0.876  23.388  0.00  0.00    +0.091 A 
ATOM     17  C   UNL     1      -2.676  -1.778  25.194  0.00  0.00    +0.006 A 
ATOM     19  C   UNL     1      -0.528  -2.421  24.289  0.00  0.00    +0.026 A 
ATOM     21  C   UNL     1      -1.729  -2.757  24.899  0.00  0.00    +0.002 A 
ATOM     31  H   UNL     1      -3.557   1.869  23.633  0.00  0.00    +0.123 HD
ENDROOT
BRANCH   9  18
ATOM      1  O   UNL     1      -2.003   5.010  25.457  0.00  0.00    -0.274 OA
ATOM      4  N   UNL     1      -4.093   4.248  24.771  0.00  0.00    -0.312 N 
ATOM     18  C   UNL     1      -2.760   4.105  25.115  0.00  0.00    +0.231 C 
ATOM     32  H   UNL     1      -4.607   3.436  24.440  0.00  0.00    +0.149 HD
BRANCH   4  25
ATOM     25  C   UNL     1      -4.778   5.521  24.772  0.00  0.00    +0.067 C 
ATOM     26  C   UNL     1      -6.203   5.355  25.284  0.00  0.00    +0.027 C 
ATOM     27  C   UNL     1      -4.760   6.139  23.379  0.00  0.00    +0.027 C 
ENDBRANCH   4  25
ENDBRANCH   9  18
BRANCH   7  13
ATOM     13  C   UNL     1      -4.995   0.093  24.853  0.00  0.00    +0.026 C 
BRANCH  13  15
ATOM     15  C   UNL     1      -6.119   0.958  25.429  0.00  0.00    -0.015 C 
ATOM     22  C   UNL     1      -6.726   1.807  24.309  0.00  0.00    +0.007 C 
ATOM     23  C   UNL     1      -5.643   1.865  26.564  0.00  0.00    +0.007 C 
ENDBRANCH  13  15
ENDBRANCH   7  13
BRANCH   3  20
ATOM     20  C   UNL     1       1.988  -1.162  22.997  0.00  0.00    +0.196 C 
BRANCH  20  24
ATOM      5  N   UNL     1       4.420  -0.741  23.496  0.00  0.00    -0.336 N 
ATOM      6  N   UNL     1       3.299   0.948  22.590  0.00  0.00    -0.239 NA
ATOM     24  C   UNL     1       3.221  -0.294  23.015  0.00  0.00    +0.129 A 
ATOM     28  C   UNL     1       5.319   0.279  23.369  0.00  0.00    +0.106 A 
ATOM     29  C   UNL     1       4.702  -2.048  24.040  0.00  0.00    +0.150 C 
ATOM     30  C   UNL     1       4.604   1.311  22.807  0.00  0.00    +0.130 A 
ENDBRANCH  20  24
ENDBRANCH   3  20
TORSDOF 6
ENDMDL
