MODEL 1
REMARK VINA RESULT:      -2.7      0.000      0.000
REMARK  Name = 28962466
REMARK  12 active torsions:
REMARK  status: ('A' for Active; 'I' for Inactive)
REMARK    1  A    between atoms: O_1  and  C_10
REMARK    2  A    between atoms: O_4  and  C_26
REMARK    3  A    between atoms: O_4  and  C_31
REMARK    4  A    between atoms: N_5  and  C_14
REMARK    5  A    between atoms: N_6  and  C_24
REMARK    6  A    between atoms: C_7  and  C_17
REMARK    7  A    between atoms: C_9  and  C_19
REMARK    8  A    between atoms: C_13  and  C_18
REMARK    9  A    between atoms: C_18  and  C_20
REMARK   10  A    between atoms: C_18  and  C_21
REMARK   11  A    between atoms: C_22  and  C_23
REMARK   12  A    between atoms: C_24  and  C_25
REMARK                            x       y       z     vdW  Elec       q    Type
REMARK                         _______ _______ _______ _____ _____    ______ ____
ROOT
ATOM      7  C   UNL     1      -2.176  -1.017  25.117  0.00  0.00    -0.027 C 
ATOM      8  C   UNL     1      -2.179   0.209  24.144  0.00  0.00    +0.028 C 
ATOM      9  C   UNL     1      -0.723   0.766  23.945  0.00  0.00    +0.012 C 
ATOM     10  C   UNL     1      -3.246   1.260  24.563  0.00  0.00    +0.122 C 
ATOM     11  C   UNL     1      -3.603  -1.611  25.202  0.00  0.00    +0.007 C 
ATOM     12  C   UNL     1      -1.244  -2.111  24.548  0.00  0.00    +0.009 C 
ATOM     13  C   UNL     1      -4.651   0.640  24.748  0.00  0.00    +0.029 C 
ATOM     14  C   UNL     1       0.221  -0.362  23.443  0.00  0.00    +0.076 C 
ATOM     15  C   UNL     1      -4.644  -0.593  25.651  0.00  0.00    +0.007 C 
ATOM     16  C   UNL     1       0.177  -1.621  24.309  0.00  0.00    +0.023 C 
ATOM     17  C   UNL     1      -1.708  -0.640  26.546  0.00  0.00    +0.011 C 
ATOM     19  C   UNL     1      -0.649   1.957  22.974  0.00  0.00    +0.010 C 
ENDROOT
BRANCH  14   5
ATOM      3  O   UNL     1       1.935  -0.354  21.100  0.00  0.00    -0.276 OA
ATOM      5  N   UNL     1       1.595   0.088  23.359  0.00  0.00    -0.312 N 
ATOM     22  C   UNL     1       2.332   0.051  22.189  0.00  0.00    +0.210 C 
ATOM     23  C   UNL     1       3.721   0.600  22.375  0.00  0.00    +0.109 C 
ATOM     32  H   UNL     1       2.050   0.390  24.217  0.00  0.00    +0.149 HD
ENDBRANCH  14   5
BRANCH  10   1
ATOM      1  O   UNL     1      -3.368   2.249  23.540  0.00  0.00    -0.391 OA
ATOM     33  H   UNL     1      -3.936   1.891  22.838  0.00  0.00    +0.210 HD
ENDBRANCH  10   1
BRANCH  13  18
ATOM     18  C   UNL     1      -5.657   1.663  25.287  0.00  0.00    +0.077 C 
ATOM     20  C   UNL     1      -6.846   1.782  24.341  0.00  0.00    +0.017 C 
BRANCH  18  21
ATOM      2  O   UNL     1      -5.170   3.975  24.752  0.00  0.00    -0.276 OA
ATOM      6  N   UNL     1      -4.112   3.013  26.579  0.00  0.00    -0.311 N 
ATOM     21  C   UNL     1      -4.970   3.011  25.489  0.00  0.00    +0.216 C 
ATOM     34  H   UNL     1      -4.042   2.191  27.171  0.00  0.00    +0.149 HD
BRANCH   6  24
ATOM     24  C   UNL     1      -3.347   4.175  26.968  0.00  0.00    +0.143 C 
BRANCH  24  25
ATOM     25  C   UNL     1      -2.259   4.487  25.983  0.00  0.00    +0.011 A 
ATOM     26  C   UNL     1      -1.100   3.712  25.930  0.00  0.00    +0.125 A 
ATOM     27  C   UNL     1      -2.414   5.568  25.115  0.00  0.00    +0.009 A 
ATOM     28  C   UNL     1      -0.098   4.016  25.008  0.00  0.00    +0.046 A 
ATOM     29  C   UNL     1      -1.413   5.872  24.193  0.00  0.00    +0.001 A 
ATOM     30  C   UNL     1      -0.255   5.096  24.140  0.00  0.00    +0.004 A 
BRANCH  26   4
ATOM      4  O   UNL     1      -0.931   2.653  26.771  0.00  0.00    -0.495 OA
ATOM     31  C   UNL     1       0.408   2.301  27.107  0.00  0.00    +0.277 C 
ENDBRANCH  26   4
ENDBRANCH  24  25
ENDBRANCH   6  24
ENDBRANCH  18  21
ENDBRANCH  13  18
TORSDOF 7
ENDMDL
