MODEL 1
REMARK VINA RESULT:      -6.2      0.000      0.000
REMARK  Name = 40778256
REMARK  11 active torsions:
REMARK  status: ('A' for Active; 'I' for Inactive)
REMARK    1  A    between atoms: O_2  and  C_8
REMARK    2  A    between atoms: O_3  and  C_9
REMARK    3  A    between atoms: N_5  and  C_12
REMARK    4  A    between atoms: N_5  and  C_15
REMARK    5  A    between atoms: N_6  and  C_16
REMARK    6  A    between atoms: C_10  and  C_12
REMARK    7  A    between atoms: C_11  and  C_13
REMARK    8  A    between atoms: C_13  and  C_14
REMARK    9  A    between atoms: C_15  and  C_17
REMARK   10  A    between atoms: C_16  and  C_18
REMARK   11  A    between atoms: C_16  and  C_19
REMARK                            x       y       z     vdW  Elec       q    Type
REMARK                         _______ _______ _______ _____ _____    ______ ____
ROOT
ATOM      1  O   UNL     1      -2.131   2.286  23.030  0.00  0.00    -0.366 OA
ATOM      8  C   UNL     1      -0.833   2.695  24.981  0.00  0.00    +0.175 C 
ATOM      9  C   UNL     1      -2.304   2.816  25.321  0.00  0.00    +0.175 C 
ATOM     10  C   UNL     1      -0.874   1.941  23.657  0.00  0.00    +0.163 C 
ATOM     11  C   UNL     1      -2.913   3.065  23.952  0.00  0.00    +0.158 C 
ENDROOT
BRANCH   8   2
ATOM      2  O   UNL     1      -0.273   3.985  24.739  0.00  0.00    -0.387 OA
ATOM     24  H   UNL     1      -0.060   4.037  23.791  0.00  0.00    +0.210 HD
ENDBRANCH   8   2
BRANCH   9   3
ATOM      3  O   UNL     1      -2.585   3.864  26.225  0.00  0.00    -0.387 OA
ATOM     25  H   UNL     1      -2.196   4.676  25.859  0.00  0.00    +0.210 HD
ENDBRANCH   9   3
BRANCH  10  12
ATOM     12  C   UNL     1      -0.840   0.429  23.831  0.00  0.00    +0.115 C 
BRANCH  12   5
ATOM      5  N   UNL     1       0.515  -0.038  24.087  0.00  0.00    -0.308 NA
ATOM     26  H   UNL     1       0.982   0.615  24.717  0.00  0.00    +0.122 HD
BRANCH   5  15
ATOM     15  C   UNL     1       1.269  -0.156  22.846  0.00  0.00    +0.136 C 
BRANCH  15  17
ATOM      7  N   UNL     1       3.284  -1.296  23.594  0.00  0.00    -0.259 NA
ATOM     17  C   UNL     1       2.755  -0.159  23.091  0.00  0.00    +0.055 A 
ATOM     20  C   UNL     1       3.493   0.975  22.795  0.00  0.00    +0.024 A 
ATOM     21  C   UNL     1       4.863   0.940  23.031  0.00  0.00    +0.003 A 
ATOM     22  C   UNL     1       4.619  -1.293  23.810  0.00  0.00    +0.111 A 
ATOM     23  C   UNL     1       5.444  -0.212  23.548  0.00  0.00    +0.020 A 
ENDBRANCH  15  17
ENDBRANCH   5  15
ENDBRANCH  12   5
ENDBRANCH  10  12
BRANCH  11  13
ATOM     13  C   UNL     1      -4.372   2.656  23.858  0.00  0.00    +0.130 C 
BRANCH  13  14
ATOM      4  O   UNL     1      -5.383   1.504  25.729  0.00  0.00    -0.276 OA
ATOM      6  N   UNL     1      -4.112   0.293  24.207  0.00  0.00    -0.313 N 
ATOM     14  C   UNL     1      -4.694   1.446  24.715  0.00  0.00    +0.216 C 
ATOM     27  H   UNL     1      -3.608   0.346  23.325  0.00  0.00    +0.149 HD
BRANCH   6  16
ATOM     16  C   UNL     1      -4.256  -1.003  24.828  0.00  0.00    +0.067 C 
ATOM     18  C   UNL     1      -3.216  -1.182  25.926  0.00  0.00    +0.027 C 
ATOM     19  C   UNL     1      -4.154  -2.110  23.787  0.00  0.00    +0.027 C 
ENDBRANCH   6  16
ENDBRANCH  13  14
ENDBRANCH  11  13
TORSDOF 9
ENDMDL
MODEL 2
REMARK VINA RESULT:      -5.8      1.932      3.711
REMARK  Name = 40778256
REMARK  11 active torsions:
REMARK  status: ('A' for Active; 'I' for Inactive)
REMARK    1  A    between atoms: O_2  and  C_8
REMARK    2  A    between atoms: O_3  and  C_9
REMARK    3  A    between atoms: N_5  and  C_12
REMARK    4  A    between atoms: N_5  and  C_15
REMARK    5  A    between atoms: N_6  and  C_16
REMARK    6  A    between atoms: C_10  and  C_12
REMARK    7  A    between atoms: C_11  and  C_13
REMARK    8  A    between atoms: C_13  and  C_14
REMARK    9  A    between atoms: C_15  and  C_17
REMARK   10  A    between atoms: C_16  and  C_18
REMARK   11  A    between atoms: C_16  and  C_19
REMARK                            x       y       z     vdW  Elec       q    Type
REMARK                         _______ _______ _______ _____ _____    ______ ____
ROOT
ATOM      1  O   UNL     1      -2.366   0.075  25.733  0.00  0.00    -0.366 OA
ATOM      8  C   UNL     1      -2.282  -1.851  24.340  0.00  0.00    +0.175 C 
ATOM      9  C   UNL     1      -3.492  -1.017  23.973  0.00  0.00    +0.175 C 
ATOM     10  C   UNL     1      -1.439  -0.857  25.130  0.00  0.00    +0.163 C 
ATOM     11  C   UNL     1      -3.688  -0.193  25.235  0.00  0.00    +0.158 C 
ENDROOT
BRANCH   8   2
ATOM      2  O   UNL     1      -2.659  -2.910  25.220  0.00  0.00    -0.387 OA
ATOM     24  H   UNL     1      -3.217  -3.524  24.713  0.00  0.00    +0.210 HD
ENDBRANCH   8   2
BRANCH   9   3
ATOM      3  O   UNL     1      -4.632  -1.790  23.664  0.00  0.00    -0.387 OA
ATOM     25  H   UNL     1      -5.271  -1.669  24.386  0.00  0.00    +0.210 HD
ENDBRANCH   9   3
BRANCH  10  12
ATOM     12  C   UNL     1      -0.481  -0.060  24.254  0.00  0.00    +0.115 C 
BRANCH  12   5
ATOM      5  N   UNL     1       0.599  -0.903  23.759  0.00  0.00    -0.308 NA
ATOM     26  H   UNL     1       1.209  -1.157  24.536  0.00  0.00    +0.122 HD
BRANCH   5  15
ATOM     15  C   UNL     1       1.366  -0.215  22.729  0.00  0.00    +0.136 C 
BRANCH  15  17
ATOM      7  N   UNL     1       3.362  -1.315  23.580  0.00  0.00    -0.259 NA
ATOM     17  C   UNL     1       2.837  -0.188  23.050  0.00  0.00    +0.055 A 
ATOM     20  C   UNL     1       3.567   0.960  22.791  0.00  0.00    +0.024 A 
ATOM     21  C   UNL     1       4.924   0.952  23.097  0.00  0.00    +0.003 A 
ATOM     22  C   UNL     1       4.684  -1.286  23.865  0.00  0.00    +0.111 A 
ATOM     23  C   UNL     1       5.500  -0.189  23.644  0.00  0.00    +0.020 A 
ENDBRANCH  15  17
ENDBRANCH   5  15
ENDBRANCH  12   5
ENDBRANCH  10  12
BRANCH  11  13
ATOM     13  C   UNL     1      -4.419   1.115  24.993  0.00  0.00    +0.130 C 
BRANCH  13  14
ATOM      4  O   UNL     1      -3.632   2.454  23.138  0.00  0.00    -0.276 OA
ATOM      6  N   UNL     1      -2.643   2.717  25.225  0.00  0.00    -0.313 N 
ATOM     14  C   UNL     1      -3.541   2.158  24.327  0.00  0.00    +0.216 C 
ATOM     27  H   UNL     1      -2.692   2.442  26.203  0.00  0.00    +0.149 HD
BRANCH   6  16
ATOM     16  C   UNL     1      -1.687   3.735  24.855  0.00  0.00    +0.067 C 
ATOM     18  C   UNL     1      -0.300   3.369  25.364  0.00  0.00    +0.027 C 
ATOM     19  C   UNL     1      -2.126   5.096  25.380  0.00  0.00    +0.027 C 
ENDBRANCH   6  16
ENDBRANCH  13  14
ENDBRANCH  11  13
TORSDOF 9
ENDMDL
MODEL 3
REMARK VINA RESULT:      -5.3      2.238      7.068
REMARK  Name = 40778256
REMARK  11 active torsions:
REMARK  status: ('A' for Active; 'I' for Inactive)
REMARK    1  A    between atoms: O_2  and  C_8
REMARK    2  A    between atoms: O_3  and  C_9
REMARK    3  A    between atoms: N_5  and  C_12
REMARK    4  A    between atoms: N_5  and  C_15
REMARK    5  A    between atoms: N_6  and  C_16
REMARK    6  A    between atoms: C_10  and  C_12
REMARK    7  A    between atoms: C_11  and  C_13
REMARK    8  A    between atoms: C_13  and  C_14
REMARK    9  A    between atoms: C_15  and  C_17
REMARK   10  A    between atoms: C_16  and  C_18
REMARK   11  A    between atoms: C_16  and  C_19
REMARK                            x       y       z     vdW  Elec       q    Type
REMARK                         _______ _______ _______ _____ _____    ______ ____
ROOT
ATOM      1  O   UNL     1      -0.600  -1.538  23.999  0.00  0.00    -0.366 OA
ATOM      8  C   UNL     1      -1.477  -0.565  25.985  0.00  0.00    +0.175 C 
ATOM      9  C   UNL     1      -0.850   0.516  25.130  0.00  0.00    +0.175 C 
ATOM     10  C   UNL     1      -1.646  -1.703  24.985  0.00  0.00    +0.163 C 
ATOM     11  C   UNL     1       0.082  -0.296  24.247  0.00  0.00    +0.158 C 
ENDROOT
BRANCH   8   2
ATOM      2  O   UNL     1      -0.561  -0.993  26.993  0.00  0.00    -0.387 OA
ATOM     24  H   UNL     1      -0.177  -1.837  26.697  0.00  0.00    +0.210 HD
ENDBRANCH   8   2
BRANCH   9   3
ATOM      3  O   UNL     1      -0.155   1.490  25.880  0.00  0.00    -0.387 OA
ATOM     25  H   UNL     1      -0.816   2.014  26.361  0.00  0.00    +0.210 HD
ENDBRANCH   9   3
BRANCH  10  12
ATOM     12  C   UNL     1      -2.983  -1.663  24.257  0.00  0.00    +0.115 C 
BRANCH  12   5
ATOM      5  N   UNL     1      -4.005  -1.027  25.076  0.00  0.00    -0.308 NA
ATOM     26  H   UNL     1      -4.564  -1.746  25.535  0.00  0.00    +0.122 HD
BRANCH   5  15
ATOM     15  C   UNL     1      -4.865  -0.173  24.266  0.00  0.00    +0.136 C 
BRANCH  15  17
ATOM      7  N   UNL     1      -3.668   1.929  24.002  0.00  0.00    -0.259 NA
ATOM     17  C   UNL     1      -4.690   1.283  24.607  0.00  0.00    +0.055 A 
ATOM     20  C   UNL     1      -5.564   1.879  25.501  0.00  0.00    +0.024 A 
ATOM     21  C   UNL     1      -5.377   3.226  25.793  0.00  0.00    +0.003 A 
ATOM     22  C   UNL     1      -3.517   3.236  24.312  0.00  0.00    +0.111 A 
ATOM     23  C   UNL     1      -4.336   3.925  25.192  0.00  0.00    +0.020 A 
ENDBRANCH  15  17
ENDBRANCH   5  15
ENDBRANCH  12   5
ENDBRANCH  10  12
BRANCH  11  13
ATOM     13  C   UNL     1       0.406   0.382  22.928  0.00  0.00    +0.130 C 
BRANCH  13  14
ATOM      4  O   UNL     1       1.905  -0.392  21.195  0.00  0.00    -0.276 OA
ATOM      6  N   UNL     1       2.742  -0.011  23.329  0.00  0.00    -0.313 N 
ATOM     14  C   UNL     1       1.746  -0.051  22.364  0.00  0.00    +0.216 C 
ATOM     27  H   UNL     1       2.514   0.344  24.255  0.00  0.00    +0.149 HD
BRANCH   6  16
ATOM     16  C   UNL     1       4.114  -0.375  23.063  0.00  0.00    +0.067 C 
ATOM     18  C   UNL     1       4.493  -1.623  23.849  0.00  0.00    +0.027 C 
ATOM     19  C   UNL     1       5.048   0.785  23.387  0.00  0.00    +0.027 C 
ENDBRANCH   6  16
ENDBRANCH  13  14
ENDBRANCH  11  13
TORSDOF 9
ENDMDL
MODEL 4
REMARK VINA RESULT:      -5.2      2.009      3.425
REMARK  Name = 40778256
REMARK  11 active torsions:
REMARK  status: ('A' for Active; 'I' for Inactive)
REMARK    1  A    between atoms: O_2  and  C_8
REMARK    2  A    between atoms: O_3  and  C_9
REMARK    3  A    between atoms: N_5  and  C_12
REMARK    4  A    between atoms: N_5  and  C_15
REMARK    5  A    between atoms: N_6  and  C_16
REMARK    6  A    between atoms: C_10  and  C_12
REMARK    7  A    between atoms: C_11  and  C_13
REMARK    8  A    between atoms: C_13  and  C_14
REMARK    9  A    between atoms: C_15  and  C_17
REMARK   10  A    between atoms: C_16  and  C_18
REMARK   11  A    between atoms: C_16  and  C_19
REMARK                            x       y       z     vdW  Elec       q    Type
REMARK                         _______ _______ _______ _____ _____    ______ ____
ROOT
ATOM      1  O   UNL     1      -1.968   0.585  25.253  0.00  0.00    -0.366 OA
ATOM      8  C   UNL     1      -0.721  -1.357  24.675  0.00  0.00    +0.175 C 
ATOM      9  C   UNL     1      -2.182  -1.579  24.341  0.00  0.00    +0.175 C 
ATOM     10  C   UNL     1      -0.656   0.159  24.818  0.00  0.00    +0.163 C 
ATOM     11  C   UNL     1      -2.857  -0.545  25.226  0.00  0.00    +0.158 C 
ENDROOT
BRANCH   8   2
ATOM      2  O   UNL     1      -0.409  -1.936  25.941  0.00  0.00    -0.387 OA
ATOM     24  H   UNL     1       0.333  -1.432  26.316  0.00  0.00    +0.210 HD
ENDBRANCH   8   2
BRANCH   9   3
ATOM      3  O   UNL     1      -2.627  -2.889  24.622  0.00  0.00    -0.387 OA
ATOM     25  H   UNL     1      -2.825  -3.318  23.773  0.00  0.00    +0.210 HD
ENDBRANCH   9   3
BRANCH  10  12
ATOM     12  C   UNL     1      -0.345   0.869  23.508  0.00  0.00    +0.115 C 
BRANCH  12   5
ATOM      5  N   UNL     1       1.078   1.154  23.391  0.00  0.00    -0.308 NA
ATOM     26  H   UNL     1       1.203   2.073  22.965  0.00  0.00    +0.122 HD
BRANCH   5  15
ATOM     15  C   UNL     1       1.749   0.140  22.589  0.00  0.00    +0.136 C 
BRANCH  15  17
ATOM      7  N   UNL     1       3.453  -1.325  23.523  0.00  0.00    -0.259 NA
ATOM     17  C   UNL     1       3.164  -0.093  23.049  0.00  0.00    +0.055 A 
ATOM     20  C   UNL     1       4.083   0.941  22.966  0.00  0.00    +0.024 A 
ATOM     21  C   UNL     1       5.382   0.694  23.397  0.00  0.00    +0.003 A 
ATOM     22  C   UNL     1       4.725  -1.528  23.933  0.00  0.00    +0.111 A 
ATOM     23  C   UNL     1       5.717  -0.562  23.891  0.00  0.00    +0.020 A 
ENDBRANCH  15  17
ENDBRANCH   5  15
ENDBRANCH  12   5
ENDBRANCH  10  12
BRANCH  11  13
ATOM     13  C   UNL     1      -4.220  -0.113  24.716  0.00  0.00    +0.130 C 
BRANCH  13  14
ATOM      4  O   UNL     1      -5.671   1.530  25.737  0.00  0.00    -0.276 OA
ATOM      6  N   UNL     1      -3.605   2.202  24.912  0.00  0.00    -0.313 N 
ATOM     14  C   UNL     1      -4.603   1.278  25.187  0.00  0.00    +0.216 C 
ATOM     27  H   UNL     1      -2.733   1.875  24.505  0.00  0.00    +0.149 HD
BRANCH   6  16
ATOM     16  C   UNL     1      -3.711   3.602  25.252  0.00  0.00    +0.067 C 
ATOM     18  C   UNL     1      -4.200   4.402  24.053  0.00  0.00    +0.027 C 
ATOM     19  C   UNL     1      -2.376   4.131  25.761  0.00  0.00    +0.027 C 
ENDBRANCH   6  16
ENDBRANCH  13  14
ENDBRANCH  11  13
TORSDOF 9
ENDMDL
MODEL 5
REMARK VINA RESULT:      -5.1      3.091      5.281
REMARK  Name = 40778256
REMARK  11 active torsions:
REMARK  status: ('A' for Active; 'I' for Inactive)
REMARK    1  A    between atoms: O_2  and  C_8
REMARK    2  A    between atoms: O_3  and  C_9
REMARK    3  A    between atoms: N_5  and  C_12
REMARK    4  A    between atoms: N_5  and  C_15
REMARK    5  A    between atoms: N_6  and  C_16
REMARK    6  A    between atoms: C_10  and  C_12
REMARK    7  A    between atoms: C_11  and  C_13
REMARK    8  A    between atoms: C_13  and  C_14
REMARK    9  A    between atoms: C_15  and  C_17
REMARK   10  A    between atoms: C_16  and  C_18
REMARK   11  A    between atoms: C_16  and  C_19
REMARK                            x       y       z     vdW  Elec       q    Type
REMARK                         _______ _______ _______ _____ _____    ______ ____
ROOT
ATOM      1  O   UNL     1      -1.182   2.957  23.674  0.00  0.00    -0.366 OA
ATOM      8  C   UNL     1       0.238   1.243  24.514  0.00  0.00    +0.175 C 
ATOM      9  C   UNL     1      -0.260   2.092  25.665  0.00  0.00    +0.175 C 
ATOM     10  C   UNL     1      -0.742   1.606  23.404  0.00  0.00    +0.163 C 
ATOM     11  C   UNL     1      -0.660   3.371  24.949  0.00  0.00    +0.158 C 
ENDROOT
BRANCH   8   2
ATOM      2  O   UNL     1       1.540   1.669  24.112  0.00  0.00    -0.387 OA
ATOM     24  H   UNL     1       1.908   2.203  24.838  0.00  0.00    +0.210 HD
ENDBRANCH   8   2
BRANCH   9   3
ATOM      3  O   UNL     1       0.719   2.323  26.655  0.00  0.00    -0.387 OA
ATOM     25  H   UNL     1       0.757   1.532  27.217  0.00  0.00    +0.210 HD
ENDBRANCH   9   3
BRANCH  10  12
ATOM     12  C   UNL     1      -1.973   0.710  23.380  0.00  0.00    +0.115 C 
BRANCH  12   5
ATOM      5  N   UNL     1      -3.185   1.493  23.180  0.00  0.00    -0.308 NA
ATOM     26  H   UNL     1      -3.072   2.406  23.619  0.00  0.00    +0.122 HD
BRANCH   5  15
ATOM     15  C   UNL     1      -4.344   0.812  23.743  0.00  0.00    +0.136 C 
BRANCH  15  17
ATOM      7  N   UNL     1      -3.482  -0.434  25.647  0.00  0.00    -0.259 NA
ATOM     17  C   UNL     1      -3.967  -0.496  24.387  0.00  0.00    +0.055 A 
ATOM     20  C   UNL     1      -4.132  -1.674  23.676  0.00  0.00    +0.024 A 
ATOM     21  C   UNL     1      -3.777  -2.865  24.300  0.00  0.00    +0.003 A 
ATOM     22  C   UNL     1      -3.146  -1.612  26.219  0.00  0.00    +0.111 A 
ATOM     23  C   UNL     1      -3.273  -2.842  25.595  0.00  0.00    +0.020 A 
ENDBRANCH  15  17
ENDBRANCH   5  15
ENDBRANCH  12   5
ENDBRANCH  10  12
BRANCH  11  13
ATOM     13  C   UNL     1      -1.710   4.176  25.694  0.00  0.00    +0.130 C 
BRANCH  13  14
ATOM      4  O   UNL     1      -3.313   4.509  23.913  0.00  0.00    -0.276 OA
ATOM      6  N   UNL     1      -4.006   3.496  25.887  0.00  0.00    -0.313 N 
ATOM     14  C   UNL     1      -3.078   4.092  25.044  0.00  0.00    +0.216 C 
ATOM     27  H   UNL     1      -3.692   3.132  26.783  0.00  0.00    +0.149 HD
BRANCH   6  16
ATOM     16  C   UNL     1      -5.388   3.292  25.520  0.00  0.00    +0.067 C 
ATOM     18  C   UNL     1      -6.168   4.593  25.652  0.00  0.00    +0.027 C 
ATOM     19  C   UNL     1      -6.010   2.189  26.367  0.00  0.00    +0.027 C 
ENDBRANCH   6  16
ENDBRANCH  13  14
ENDBRANCH  11  13
TORSDOF 9
ENDMDL
MODEL 6
REMARK VINA RESULT:      -5.0      2.164      6.564
REMARK  Name = 40778256
REMARK  11 active torsions:
REMARK  status: ('A' for Active; 'I' for Inactive)
REMARK    1  A    between atoms: O_2  and  C_8
REMARK    2  A    between atoms: O_3  and  C_9
REMARK    3  A    between atoms: N_5  and  C_12
REMARK    4  A    between atoms: N_5  and  C_15
REMARK    5  A    between atoms: N_6  and  C_16
REMARK    6  A    between atoms: C_10  and  C_12
REMARK    7  A    between atoms: C_11  and  C_13
REMARK    8  A    between atoms: C_13  and  C_14
REMARK    9  A    between atoms: C_15  and  C_17
REMARK   10  A    between atoms: C_16  and  C_18
REMARK   11  A    between atoms: C_16  and  C_19
REMARK                            x       y       z     vdW  Elec       q    Type
REMARK                         _______ _______ _______ _____ _____    ______ ____
ROOT
ATOM      1  O   UNL     1      -3.107   0.702  24.123  0.00  0.00    -0.366 OA
ATOM      8  C   UNL     1      -4.051  -1.413  24.665  0.00  0.00    +0.175 C 
ATOM      9  C   UNL     1      -2.694  -1.284  25.325  0.00  0.00    +0.175 C 
ATOM     10  C   UNL     1      -4.375   0.036  24.321  0.00  0.00    +0.163 C 
ATOM     11  C   UNL     1      -2.046  -0.201  24.479  0.00  0.00    +0.158 C 
ENDROOT
BRANCH   8   2
ATOM      2  O   UNL     1      -3.940  -2.144  23.444  0.00  0.00    -0.387 OA
ATOM     24  H   UNL     1      -4.842  -2.294  23.112  0.00  0.00    +0.210 HD
ENDBRANCH   8   2
BRANCH   9   3
ATOM      3  O   UNL     1      -1.949  -2.483  25.312  0.00  0.00    -0.387 OA
ATOM     25  H   UNL     1      -2.536  -3.187  24.989  0.00  0.00    +0.210 HD
ENDBRANCH   9   3
BRANCH  10  12
ATOM     12  C   UNL     1      -5.115   0.763  25.436  0.00  0.00    +0.115 C 
BRANCH  12   5
ATOM      5  N   UNL     1      -5.911   1.862  24.906  0.00  0.00    -0.308 NA
ATOM     26  H   UNL     1      -5.692   1.989  23.918  0.00  0.00    +0.122 HD
BRANCH   5  15
ATOM     15  C   UNL     1      -5.646   3.095  25.635  0.00  0.00    +0.136 C 
BRANCH  15  17
ATOM      7  N   UNL     1      -3.876   3.871  24.158  0.00  0.00    -0.259 NA
ATOM     17  C   UNL     1      -4.235   3.578  25.428  0.00  0.00    +0.055 A 
ATOM     20  C   UNL     1      -3.391   3.697  26.520  0.00  0.00    +0.024 A 
ATOM     21  C   UNL     1      -2.095   4.147  26.295  0.00  0.00    +0.003 A 
ATOM     22  C   UNL     1      -2.608   4.305  23.978  0.00  0.00    +0.111 A 
ATOM     23  C   UNL     1      -1.688   4.459  25.002  0.00  0.00    +0.020 A 
ENDBRANCH  15  17
ENDBRANCH   5  15
ENDBRANCH  12   5
ENDBRANCH  10  12
BRANCH  11  13
ATOM     13  C   UNL     1      -0.951   0.558  25.208  0.00  0.00    +0.130 C 
BRANCH  13  14
ATOM      4  O   UNL     1       0.518   2.208  24.223  0.00  0.00    -0.276 OA
ATOM      6  N   UNL     1       0.650   0.002  23.504  0.00  0.00    -0.313 N 
ATOM     14  C   UNL     1       0.144   1.039  24.274  0.00  0.00    +0.216 C 
ATOM     27  H   UNL     1       0.309  -0.942  23.668  0.00  0.00    +0.149 HD
BRANCH   6  16
ATOM     16  C   UNL     1       1.701   0.182  22.529  0.00  0.00    +0.067 C 
ATOM     18  C   UNL     1       1.411  -0.640  21.281  0.00  0.00    +0.027 C 
ATOM     19  C   UNL     1       3.053  -0.182  23.127  0.00  0.00    +0.027 C 
ENDBRANCH   6  16
ENDBRANCH  13  14
ENDBRANCH  11  13
TORSDOF 9
ENDMDL
MODEL 7
REMARK VINA RESULT:      -4.9      1.675      5.880
REMARK  Name = 40778256
REMARK  11 active torsions:
REMARK  status: ('A' for Active; 'I' for Inactive)
REMARK    1  A    between atoms: O_2  and  C_8
REMARK    2  A    between atoms: O_3  and  C_9
REMARK    3  A    between atoms: N_5  and  C_12
REMARK    4  A    between atoms: N_5  and  C_15
REMARK    5  A    between atoms: N_6  and  C_16
REMARK    6  A    between atoms: C_10  and  C_12
REMARK    7  A    between atoms: C_11  and  C_13
REMARK    8  A    between atoms: C_13  and  C_14
REMARK    9  A    between atoms: C_15  and  C_17
REMARK   10  A    between atoms: C_16  and  C_18
REMARK   11  A    between atoms: C_16  and  C_19
REMARK                            x       y       z     vdW  Elec       q    Type
REMARK                         _______ _______ _______ _____ _____    ______ ____
ROOT
ATOM      1  O   UNL     1      -2.199   3.110  26.340  0.00  0.00    -0.366 OA
ATOM      8  C   UNL     1      -2.085   4.752  24.623  0.00  0.00    +0.175 C 
ATOM      9  C   UNL     1      -1.159   3.603  24.282  0.00  0.00    +0.175 C 
ATOM     10  C   UNL     1      -2.987   4.129  25.683  0.00  0.00    +0.163 C 
ATOM     11  C   UNL     1      -0.947   2.968  25.646  0.00  0.00    +0.158 C 
ENDROOT
BRANCH   8   2
ATOM      2  O   UNL     1      -1.353   5.814  25.232  0.00  0.00    -0.387 OA
ATOM     24  H   UNL     1      -1.995   6.386  25.688  0.00  0.00    +0.210 HD
ENDBRANCH   8   2
BRANCH   9   3
ATOM      3  O   UNL     1       0.057   4.019  23.698  0.00  0.00    -0.387 OA
ATOM     25  H   UNL     1       0.760   3.451  24.053  0.00  0.00    +0.210 HD
ENDBRANCH   9   3
BRANCH  10  12
ATOM     12  C   UNL     1      -4.221   3.459  25.096  0.00  0.00    +0.115 C 
BRANCH  12   5
ATOM      5  N   UNL     1      -4.270   2.048  25.454  0.00  0.00    -0.308 NA
ATOM     26  H   UNL     1      -3.441   1.810  25.998  0.00  0.00    +0.122 HD
BRANCH   5  15
ATOM     15  C   UNL     1      -4.341   1.210  24.264  0.00  0.00    +0.136 C 
BRANCH  15  17
ATOM      7  N   UNL     1      -3.392  -0.463  25.753  0.00  0.00    -0.259 NA
ATOM     17  C   UNL     1      -3.990  -0.223  24.566  0.00  0.00    +0.055 A 
ATOM     20  C   UNL     1      -4.292  -1.205  23.636  0.00  0.00    +0.024 A 
ATOM     21  C   UNL     1      -3.957  -2.519  23.946  0.00  0.00    +0.003 A 
ATOM     22  C   UNL     1      -3.081  -1.752  26.019  0.00  0.00    +0.111 A 
ATOM     23  C   UNL     1      -3.339  -2.806  25.158  0.00  0.00    +0.020 A 
ENDBRANCH  15  17
ENDBRANCH   5  15
ENDBRANCH  12   5
ENDBRANCH  10  12
BRANCH  11  13
ATOM     13  C   UNL     1      -0.565   1.501  25.575  0.00  0.00    +0.130 C 
BRANCH  13  14
ATOM      4  O   UNL     1      -0.925   0.699  23.322  0.00  0.00    -0.276 OA
ATOM      6  N   UNL     1       1.240   1.172  24.024  0.00  0.00    -0.313 N 
ATOM     14  C   UNL     1      -0.135   1.077  24.183  0.00  0.00    +0.216 C 
ATOM     27  H   UNL     1       1.796   1.554  24.784  0.00  0.00    +0.149 HD
BRANCH   6  16
ATOM     16  C   UNL     1       1.917   0.829  22.795  0.00  0.00    +0.067 C 
ATOM     18  C   UNL     1       1.530  -0.576  22.352  0.00  0.00    +0.027 C 
ATOM     19  C   UNL     1       3.426   0.957  22.961  0.00  0.00    +0.027 C 
ENDBRANCH   6  16
ENDBRANCH  13  14
ENDBRANCH  11  13
TORSDOF 9
ENDMDL
MODEL 8
REMARK VINA RESULT:      -4.9      2.986      5.272
REMARK  Name = 40778256
REMARK  11 active torsions:
REMARK  status: ('A' for Active; 'I' for Inactive)
REMARK    1  A    between atoms: O_2  and  C_8
REMARK    2  A    between atoms: O_3  and  C_9
REMARK    3  A    between atoms: N_5  and  C_12
REMARK    4  A    between atoms: N_5  and  C_15
REMARK    5  A    between atoms: N_6  and  C_16
REMARK    6  A    between atoms: C_10  and  C_12
REMARK    7  A    between atoms: C_11  and  C_13
REMARK    8  A    between atoms: C_13  and  C_14
REMARK    9  A    between atoms: C_15  and  C_17
REMARK   10  A    between atoms: C_16  and  C_18
REMARK   11  A    between atoms: C_16  and  C_19
REMARK                            x       y       z     vdW  Elec       q    Type
REMARK                         _______ _______ _______ _____ _____    ______ ____
ROOT
ATOM      1  O   UNL     1      -2.095  -0.159  25.721  0.00  0.00    -0.366 OA
ATOM      8  C   UNL     1      -1.165  -1.977  24.502  0.00  0.00    +0.175 C 
ATOM      9  C   UNL     1      -2.656  -1.912  24.248  0.00  0.00    +0.175 C 
ATOM     10  C   UNL     1      -0.878  -0.592  25.070  0.00  0.00    +0.163 C 
ATOM     11  C   UNL     1      -3.135  -1.114  25.449  0.00  0.00    +0.158 C 
ENDROOT
BRANCH   8   2
ATOM      2  O   UNL     1      -0.877  -2.940  25.516  0.00  0.00    -0.387 OA
ATOM     24  H   UNL     1       0.014  -2.748  25.854  0.00  0.00    +0.210 HD
ENDBRANCH   8   2
BRANCH   9   3
ATOM      3  O   UNL     1      -3.268  -3.182  24.178  0.00  0.00    -0.387 OA
ATOM     25  H   UNL     1      -3.770  -3.218  23.346  0.00  0.00    +0.210 HD
ENDBRANCH   9   3
BRANCH  10  12
ATOM     12  C   UNL     1      -0.534   0.433  23.997  0.00  0.00    +0.115 C 
BRANCH  12   5
ATOM      5  N   UNL     1       0.528   1.323  24.445  0.00  0.00    -0.308 NA
ATOM     26  H   UNL     1       1.398   0.797  24.520  0.00  0.00    +0.122 HD
BRANCH   5  15
ATOM     15  C   UNL     1       0.198   1.921  25.732  0.00  0.00    +0.136 C 
BRANCH  15  17
ATOM      7  N   UNL     1      -1.771   3.234  26.298  0.00  0.00    -0.259 NA
ATOM     17  C   UNL     1      -0.632   3.168  25.574  0.00  0.00    +0.055 A 
ATOM     20  C   UNL     1      -0.199   4.166  24.716  0.00  0.00    +0.024 A 
ATOM     21  C   UNL     1      -0.987   5.306  24.594  0.00  0.00    +0.003 A 
ATOM     22  C   UNL     1      -2.511   4.356  26.153  0.00  0.00    +0.111 A 
ATOM     23  C   UNL     1      -2.166   5.410  25.323  0.00  0.00    +0.020 A 
ENDBRANCH  15  17
ENDBRANCH   5  15
ENDBRANCH  12   5
ENDBRANCH  10  12
BRANCH  11  13
ATOM     13  C   UNL     1      -4.446  -0.387  25.206  0.00  0.00    +0.130 C 
BRANCH  13  14
ATOM      4  O   UNL     1      -4.705   2.000  25.500  0.00  0.00    -0.276 OA
ATOM      6  N   UNL     1      -3.489   1.208  23.685  0.00  0.00    -0.313 N 
ATOM     14  C   UNL     1      -4.244   1.072  24.841  0.00  0.00    +0.216 C 
ATOM     27  H   UNL     1      -3.106   0.373  23.248  0.00  0.00    +0.149 HD
BRANCH   6  16
ATOM     16  C   UNL     1      -3.148   2.489  23.111  0.00  0.00    +0.067 C 
ATOM     18  C   UNL     1      -4.354   3.418  23.138  0.00  0.00    +0.027 C 
ATOM     19  C   UNL     1      -2.617   2.317  21.694  0.00  0.00    +0.027 C 
ENDBRANCH   6  16
ENDBRANCH  13  14
ENDBRANCH  11  13
TORSDOF 9
ENDMDL
MODEL 9
REMARK VINA RESULT:      -4.5      2.311      6.694
REMARK  Name = 40778256
REMARK  11 active torsions:
REMARK  status: ('A' for Active; 'I' for Inactive)
REMARK    1  A    between atoms: O_2  and  C_8
REMARK    2  A    between atoms: O_3  and  C_9
REMARK    3  A    between atoms: N_5  and  C_12
REMARK    4  A    between atoms: N_5  and  C_15
REMARK    5  A    between atoms: N_6  and  C_16
REMARK    6  A    between atoms: C_10  and  C_12
REMARK    7  A    between atoms: C_11  and  C_13
REMARK    8  A    between atoms: C_13  and  C_14
REMARK    9  A    between atoms: C_15  and  C_17
REMARK   10  A    between atoms: C_16  and  C_18
REMARK   11  A    between atoms: C_16  and  C_19
REMARK                            x       y       z     vdW  Elec       q    Type
REMARK                         _______ _______ _______ _____ _____    ______ ____
ROOT
ATOM      1  O   UNL     1      -2.214  -0.161  23.536  0.00  0.00    -0.366 OA
ATOM      8  C   UNL     1      -2.330  -1.562  25.455  0.00  0.00    +0.175 C 
ATOM      9  C   UNL     1      -0.940  -0.971  25.348  0.00  0.00    +0.175 C 
ATOM     10  C   UNL     1      -3.135  -0.648  24.539  0.00  0.00    +0.163 C 
ATOM     11  C   UNL     1      -0.884  -0.590  23.878  0.00  0.00    +0.158 C 
ENDROOT
BRANCH   8   2
ATOM      2  O   UNL     1      -2.353  -2.877  24.901  0.00  0.00    -0.387 OA
ATOM     24  H   UNL     1      -2.665  -3.480  25.598  0.00  0.00    +0.210 HD
ENDBRANCH   8   2
BRANCH   9   3
ATOM      3  O   UNL     1       0.083  -1.878  25.699  0.00  0.00    -0.387 OA
ATOM     25  H   UNL     1       0.845  -1.356  25.999  0.00  0.00    +0.210 HD
ENDBRANCH   9   3
BRANCH  10  12
ATOM     12  C   UNL     1      -3.717   0.559  25.262  0.00  0.00    +0.115 C 
BRANCH  12   5
ATOM      5  N   UNL     1      -5.005   0.938  24.695  0.00  0.00    -0.308 NA
ATOM     26  H   UNL     1      -5.160   0.414  23.834  0.00  0.00    +0.122 HD
BRANCH   5  15
ATOM     15  C   UNL     1      -5.054   2.368  24.423  0.00  0.00    +0.136 C 
BRANCH  15  17
ATOM      7  N   UNL     1      -2.756   2.914  23.838  0.00  0.00    -0.259 NA
ATOM     17  C   UNL     1      -3.748   3.045  24.746  0.00  0.00    +0.055 A 
ATOM     20  C   UNL     1      -3.627   3.755  25.930  0.00  0.00    +0.024 A 
ATOM     21  C   UNL     1      -2.409   4.370  26.198  0.00  0.00    +0.003 A 
ATOM     22  C   UNL     1      -1.587   3.525  24.133  0.00  0.00    +0.111 A 
ATOM     23  C   UNL     1      -1.364   4.258  25.288  0.00  0.00    +0.020 A 
ENDBRANCH  15  17
ENDBRANCH   5  15
ENDBRANCH  12   5
ENDBRANCH  10  12
BRANCH  11  13
ATOM     13  C   UNL     1       0.105   0.524  23.581  0.00  0.00    +0.130 C 
BRANCH  13  14
ATOM      4  O   UNL     1       1.209  -0.317  21.600  0.00  0.00    -0.276 OA
ATOM      6  N   UNL     1       2.463   0.070  23.518  0.00  0.00    -0.313 N 
ATOM     14  C   UNL     1       1.295   0.045  22.770  0.00  0.00    +0.216 C 
ATOM     27  H   UNL     1       2.433   0.445  24.463  0.00  0.00    +0.149 HD
BRANCH   6  16
ATOM     16  C   UNL     1       3.746  -0.336  22.991  0.00  0.00    +0.067 C 
ATOM     18  C   UNL     1       4.330  -1.463  23.832  0.00  0.00    +0.027 C 
ATOM     19  C   UNL     1       4.697   0.852  22.925  0.00  0.00    +0.027 C 
ENDBRANCH   6  16
ENDBRANCH  13  14
ENDBRANCH  11  13
TORSDOF 9
ENDMDL
MODEL 10
REMARK VINA RESULT:      -4.4      2.442      5.803
REMARK  Name = 40778256
REMARK  11 active torsions:
REMARK  status: ('A' for Active; 'I' for Inactive)
REMARK    1  A    between atoms: O_2  and  C_8
REMARK    2  A    between atoms: O_3  and  C_9
REMARK    3  A    between atoms: N_5  and  C_12
REMARK    4  A    between atoms: N_5  and  C_15
REMARK    5  A    between atoms: N_6  and  C_16
REMARK    6  A    between atoms: C_10  and  C_12
REMARK    7  A    between atoms: C_11  and  C_13
REMARK    8  A    between atoms: C_13  and  C_14
REMARK    9  A    between atoms: C_15  and  C_17
REMARK   10  A    between atoms: C_16  and  C_18
REMARK   11  A    between atoms: C_16  and  C_19
REMARK                            x       y       z     vdW  Elec       q    Type
REMARK                         _______ _______ _______ _____ _____    ______ ____
ROOT
ATOM      1  O   UNL     1      -0.842   0.791  23.914  0.00  0.00    -0.366 OA
ATOM      8  C   UNL     1       1.071  -0.316  23.033  0.00  0.00    +0.175 C 
ATOM      9  C   UNL     1       1.515   0.865  23.872  0.00  0.00    +0.175 C 
ATOM     10  C   UNL     1      -0.368  -0.510  23.495  0.00  0.00    +0.163 C 
ATOM     11  C   UNL     1       0.258   1.718  23.885  0.00  0.00    +0.158 C 
ENDROOT
BRANCH   8   2
ATOM      2  O   UNL     1       1.049   0.039  21.651  0.00  0.00    -0.387 OA
ATOM     24  H   UNL     1       1.349  -0.737  21.147  0.00  0.00    +0.210 HD
ENDBRANCH   8   2
BRANCH   9   3
ATOM      3  O   UNL     1       2.618   1.556  23.326  0.00  0.00    -0.387 OA
ATOM     25  H   UNL     1       2.518   1.547  22.359  0.00  0.00    +0.210 HD
ENDBRANCH   9   3
BRANCH  10  12
ATOM     12  C   UNL     1      -0.490  -1.455  24.683  0.00  0.00    +0.115 C 
BRANCH  12   5
ATOM      5  N   UNL     1      -1.048  -2.738  24.276  0.00  0.00    -0.308 NA
ATOM     26  H   UNL     1      -1.194  -2.735  23.267  0.00  0.00    +0.122 HD
BRANCH   5  15
ATOM     15  C   UNL     1      -2.307  -2.999  24.960  0.00  0.00    +0.136 C 
BRANCH  15  17
ATOM      7  N   UNL     1      -3.240  -1.039  26.057  0.00  0.00    -0.259 NA
ATOM     17  C   UNL     1      -3.216  -1.798  24.940  0.00  0.00    +0.055 A 
ATOM     20  C   UNL     1      -3.964  -1.533  23.805  0.00  0.00    +0.024 A 
ATOM     21  C   UNL     1      -4.792  -0.415  23.817  0.00  0.00    +0.003 A 
ATOM     22  C   UNL     1      -4.057   0.039  26.033  0.00  0.00    +0.111 A 
ATOM     23  C   UNL     1      -4.845   0.391  24.949  0.00  0.00    +0.020 A 
ENDBRANCH  15  17
ENDBRANCH   5  15
ENDBRANCH  12   5
ENDBRANCH  10  12
BRANCH  11  13
ATOM     13  C   UNL     1       0.173   2.648  25.082  0.00  0.00    +0.130 C 
BRANCH  13  14
ATOM      4  O   UNL     1      -0.700   4.900  24.951  0.00  0.00    -0.276 OA
ATOM      6  N   UNL     1      -2.166   3.105  24.782  0.00  0.00    -0.313 N 
ATOM     14  C   UNL     1      -0.918   3.692  24.933  0.00  0.00    +0.216 C 
ATOM     27  H   UNL     1      -2.228   2.092  24.722  0.00  0.00    +0.149 HD
BRANCH   6  16
ATOM     16  C   UNL     1      -3.382   3.868  24.622  0.00  0.00    +0.067 C 
ATOM     18  C   UNL     1      -4.247   3.753  25.870  0.00  0.00    +0.027 C 
ATOM     19  C   UNL     1      -4.141   3.413  23.382  0.00  0.00    +0.027 C 
ENDBRANCH   6  16
ENDBRANCH  13  14
ENDBRANCH  11  13
TORSDOF 9
ENDMDL
