MODEL 1
REMARK VINA RESULT:      -4.9      0.000      0.000
REMARK  Name = 28962241
REMARK  11 active torsions:
REMARK  status: ('A' for Active; 'I' for Inactive)
REMARK    1  A    between atoms: O_2  and  C_10
REMARK    2  A    between atoms: O_3  and  C_16
REMARK    3  A    between atoms: N_5  and  C_8
REMARK    4  A    between atoms: N_5  and  C_17
REMARK    5  A    between atoms: N_5  and  C_21
REMARK    6  A    between atoms: N_6  and  C_12
REMARK    7  A    between atoms: C_9  and  C_12
REMARK    8  A    between atoms: C_11  and  C_16
REMARK    9  A    between atoms: C_13  and  C_20
REMARK   10  A    between atoms: C_17  and  C_22
REMARK   11  A    between atoms: C_22  and  C_23
REMARK                            x       y       z     vdW  Elec       q    Type
REMARK                         _______ _______ _______ _____ _____    ______ ____
ROOT
ATOM      1  O   UNL     1      -4.528   2.919  23.895  0.00  0.00    -0.365 OA
ATOM      8  C   UNL     1      -2.644   4.161  24.649  0.00  0.00    +0.118 C 
ATOM      9  C   UNL     1      -3.170   3.252  23.532  0.00  0.00    +0.155 C 
ATOM     10  C   UNL     1      -3.485   3.753  25.848  0.00  0.00    +0.165 C 
ATOM     11  C   UNL     1      -4.829   3.503  25.176  0.00  0.00    +0.174 C 
ENDROOT
BRANCH  10   2
ATOM      2  O   UNL     1      -2.998   2.556  26.443  0.00  0.00    -0.388 OA
ATOM     29  H   UNL     1      -3.715   1.901  26.413  0.00  0.00    +0.210 HD
ENDBRANCH  10   2
BRANCH   8   5
ATOM      5  N   UNL     1      -1.207   4.147  24.866  0.00  0.00    -0.297 NA
ATOM     21  C   UNL     1      -0.641   5.488  24.699  0.00  0.00    +0.105 C 
BRANCH   5  17
ATOM     17  C   UNL     1      -0.551   3.208  23.950  0.00  0.00    +0.090 C 
BRANCH  17  22
ATOM     22  C   UNL     1       0.478   2.352  24.689  0.00  0.00    +0.071 C 
BRANCH  22  23
ATOM      7  N   UNL     1       2.503   1.682  23.512  0.00  0.00    -0.260 NA
ATOM     23  C   UNL     1       1.198   1.418  23.749  0.00  0.00    +0.042 A 
ATOM     24  C   UNL     1       0.507   0.357  23.186  0.00  0.00    +0.023 A 
ATOM     25  C   UNL     1       1.200  -0.487  22.324  0.00  0.00    +0.003 A 
ATOM     26  C   UNL     1       3.143   0.841  22.670  0.00  0.00    +0.111 A 
ATOM     27  C   UNL     1       2.543  -0.247  22.056  0.00  0.00    +0.020 A 
ENDBRANCH  22  23
ENDBRANCH  17  22
ENDBRANCH   5  17
ENDBRANCH   8   5
BRANCH   9  12
ATOM     12  C   UNL     1      -2.426   1.939  23.311  0.00  0.00    +0.137 C 
BRANCH  12   6
ATOM      4  O   UNL     1      -1.705   0.319  25.609  0.00  0.00    -0.276 OA
ATOM      6  N   UNL     1      -3.155   0.835  23.860  0.00  0.00    -0.313 N 
ATOM     20  C   UNL     1      -2.734   0.110  24.970  0.00  0.00    +0.216 C 
ATOM     28  H   UNL     1      -4.027   0.579  23.407  0.00  0.00    +0.149 HD
BRANCH  20  13
ATOM     13  C   UNL     1      -3.693  -0.976  25.350  0.00  0.00    +0.075 C 
ATOM     14  C   UNL     1      -2.941  -2.290  25.590  0.00  0.00    +0.013 C 
ATOM     15  C   UNL     1      -4.679  -1.248  24.213  0.00  0.00    +0.013 C 
ATOM     18  C   UNL     1      -3.581  -3.312  24.656  0.00  0.00    +0.001 C 
ATOM     19  C   UNL     1      -4.123  -2.478  23.510  0.00  0.00    +0.001 C 
ENDBRANCH  20  13
ENDBRANCH  12   6
ENDBRANCH   9  12
BRANCH  11  16
ATOM     16  C   UNL     1      -5.777   2.590  25.932  0.00  0.00    +0.190 C 
BRANCH  16   3
ATOM      3  O   UNL     1      -6.599   1.908  24.999  0.00  0.00    -0.392 OA
ATOM     30  H   UNL     1      -7.389   1.606  25.479  0.00  0.00    +0.210 HD
ENDBRANCH  16   3
ENDBRANCH  11  16
TORSDOF 10
ENDMDL
MODEL 2
REMARK VINA RESULT:      -4.4      2.130      5.240
REMARK  Name = 28962241
REMARK  11 active torsions:
REMARK  status: ('A' for Active; 'I' for Inactive)
REMARK    1  A    between atoms: O_2  and  C_10
REMARK    2  A    between atoms: O_3  and  C_16
REMARK    3  A    between atoms: N_5  and  C_8
REMARK    4  A    between atoms: N_5  and  C_17
REMARK    5  A    between atoms: N_5  and  C_21
REMARK    6  A    between atoms: N_6  and  C_12
REMARK    7  A    between atoms: C_9  and  C_12
REMARK    8  A    between atoms: C_11  and  C_16
REMARK    9  A    between atoms: C_13  and  C_20
REMARK   10  A    between atoms: C_17  and  C_22
REMARK   11  A    between atoms: C_22  and  C_23
REMARK                            x       y       z     vdW  Elec       q    Type
REMARK                         _______ _______ _______ _____ _____    ______ ____
ROOT
ATOM      1  O   UNL     1       0.656   1.376  25.253  0.00  0.00    -0.365 OA
ATOM      8  C   UNL     1      -0.328   3.514  24.895  0.00  0.00    +0.118 C 
ATOM      9  C   UNL     1      -0.199   2.352  25.889  0.00  0.00    +0.155 C 
ATOM     10  C   UNL     1      -0.088   2.844  23.552  0.00  0.00    +0.165 C 
ATOM     11  C   UNL     1       0.990   1.835  23.929  0.00  0.00    +0.174 C 
ENDROOT
BRANCH  10   2
ATOM      2  O   UNL     1      -1.253   2.173  23.088  0.00  0.00    -0.388 OA
ATOM     29  H   UNL     1      -1.996   2.796  23.150  0.00  0.00    +0.210 HD
ENDBRANCH  10   2
BRANCH   8   5
ATOM      5  N   UNL     1      -1.545   4.303  24.986  0.00  0.00    -0.297 NA
ATOM     21  C   UNL     1      -1.258   5.727  24.786  0.00  0.00    +0.105 C 
BRANCH   5  17
ATOM     17  C   UNL     1      -2.203   4.100  26.280  0.00  0.00    +0.090 C 
BRANCH  17  22
ATOM     22  C   UNL     1      -3.661   4.562  26.231  0.00  0.00    +0.071 C 
BRANCH  22  23
ATOM      7  N   UNL     1      -5.545   3.065  26.602  0.00  0.00    -0.260 NA
ATOM     23  C   UNL     1      -4.574   3.463  25.751  0.00  0.00    +0.042 A 
ATOM     24  C   UNL     1      -4.382   2.926  24.487  0.00  0.00    +0.023 A 
ATOM     25  C   UNL     1      -5.242   1.914  24.073  0.00  0.00    +0.003 A 
ATOM     26  C   UNL     1      -6.361   2.080  26.165  0.00  0.00    +0.111 A 
ATOM     27  C   UNL     1      -6.253   1.478  24.922  0.00  0.00    +0.020 A 
ENDBRANCH  22  23
ENDBRANCH  17  22
ENDBRANCH   5  17
ENDBRANCH   8   5
BRANCH   9  12
ATOM     12  C   UNL     1      -1.489   1.637  26.278  0.00  0.00    +0.137 C 
BRANCH  12   6
ATOM      4  O   UNL     1      -0.878  -1.198  26.166  0.00  0.00    -0.276 OA
ATOM      6  N   UNL     1      -1.884   0.702  25.269  0.00  0.00    -0.313 N 
ATOM     20  C   UNL     1      -1.545  -0.647  25.294  0.00  0.00    +0.216 C 
ATOM     28  H   UNL     1      -2.446   1.053  24.499  0.00  0.00    +0.149 HD
BRANCH  20  13
ATOM     13  C   UNL     1      -2.108  -1.407  24.132  0.00  0.00    +0.075 C 
ATOM     14  C   UNL     1      -3.555  -0.977  23.865  0.00  0.00    +0.013 C 
ATOM     15  C   UNL     1      -2.156  -2.905  24.438  0.00  0.00    +0.013 C 
ATOM     18  C   UNL     1      -4.386  -2.255  23.925  0.00  0.00    +0.001 C 
ATOM     19  C   UNL     1      -3.598  -3.167  24.846  0.00  0.00    +0.001 C 
ENDBRANCH  20  13
ENDBRANCH  12   6
ENDBRANCH   9  12
BRANCH  11  16
ATOM     16  C   UNL     1       1.119   0.640  23.003  0.00  0.00    +0.190 C 
BRANCH  16   3
ATOM      3  O   UNL     1       2.490   0.443  22.697  0.00  0.00    -0.392 OA
ATOM     30  H   UNL     1       2.543  -0.310  22.085  0.00  0.00    +0.210 HD
ENDBRANCH  16   3
ENDBRANCH  11  16
TORSDOF 10
ENDMDL
MODEL 3
REMARK VINA RESULT:      -4.4      1.961      4.356
REMARK  Name = 28962241
REMARK  11 active torsions:
REMARK  status: ('A' for Active; 'I' for Inactive)
REMARK    1  A    between atoms: O_2  and  C_10
REMARK    2  A    between atoms: O_3  and  C_16
REMARK    3  A    between atoms: N_5  and  C_8
REMARK    4  A    between atoms: N_5  and  C_17
REMARK    5  A    between atoms: N_5  and  C_21
REMARK    6  A    between atoms: N_6  and  C_12
REMARK    7  A    between atoms: C_9  and  C_12
REMARK    8  A    between atoms: C_11  and  C_16
REMARK    9  A    between atoms: C_13  and  C_20
REMARK   10  A    between atoms: C_17  and  C_22
REMARK   11  A    between atoms: C_22  and  C_23
REMARK                            x       y       z     vdW  Elec       q    Type
REMARK                         _______ _______ _______ _____ _____    ______ ____
ROOT
ATOM      1  O   UNL     1      -2.189  -0.287  26.161  0.00  0.00    -0.365 OA
ATOM      8  C   UNL     1      -0.343  -0.500  24.675  0.00  0.00    +0.118 C 
ATOM      9  C   UNL     1      -0.856   0.219  25.930  0.00  0.00    +0.155 C 
ATOM     10  C   UNL     1      -1.622  -0.852  23.934  0.00  0.00    +0.165 C 
ATOM     11  C   UNL     1      -2.537  -1.199  25.102  0.00  0.00    +0.174 C 
ENDROOT
BRANCH  10   2
ATOM      2  O   UNL     1      -2.135   0.265  23.219  0.00  0.00    -0.388 OA
ATOM     29  H   UNL     1      -3.103   0.250  23.305  0.00  0.00    +0.210 HD
ENDBRANCH  10   2
BRANCH   8   5
ATOM      5  N   UNL     1       0.653   0.211  23.890  0.00  0.00    -0.297 NA
ATOM     21  C   UNL     1       0.209   1.578  23.601  0.00  0.00    +0.105 C 
BRANCH   5  17
ATOM     17  C   UNL     1       0.936  -0.500  22.640  0.00  0.00    +0.090 C 
BRANCH  17  22
ATOM     22  C   UNL     1       2.163   0.088  21.942  0.00  0.00    +0.071 C 
BRANCH  22  23
ATOM      7  N   UNL     1       3.586  -1.346  23.301  0.00  0.00    -0.260 NA
ATOM     23  C   UNL     1       3.415  -0.122  22.754  0.00  0.00    +0.042 A 
ATOM     24  C   UNL     1       4.314   0.923  22.897  0.00  0.00    +0.023 A 
ATOM     25  C   UNL     1       5.460   0.697  23.652  0.00  0.00    +0.003 A 
ATOM     26  C   UNL     1       4.711  -1.529  24.027  0.00  0.00    +0.111 A 
ATOM     27  C   UNL     1       5.669  -0.550  24.231  0.00  0.00    +0.020 A 
ENDBRANCH  22  23
ENDBRANCH  17  22
ENDBRANCH   5  17
ENDBRANCH   8   5
BRANCH   9  12
ATOM     12  C   UNL     1      -0.955   1.739  25.855  0.00  0.00    +0.137 C 
BRANCH  12   6
ATOM      4  O   UNL     1      -1.892   4.451  25.422  0.00  0.00    -0.276 OA
ATOM      6  N   UNL     1      -2.241   2.149  25.376  0.00  0.00    -0.313 N 
ATOM     20  C   UNL     1      -2.607   3.478  25.197  0.00  0.00    +0.216 C 
ATOM     28  H   UNL     1      -2.912   1.419  25.155  0.00  0.00    +0.149 HD
BRANCH  20  13
ATOM     13  C   UNL     1      -3.999   3.628  24.662  0.00  0.00    +0.075 C 
ATOM     14  C   UNL     1      -4.987   3.872  25.809  0.00  0.00    +0.013 C 
ATOM     15  C   UNL     1      -4.453   2.340  23.972  0.00  0.00    +0.013 C 
ATOM     18  C   UNL     1      -6.042   2.776  25.689  0.00  0.00    +0.001 C 
ATOM     19  C   UNL     1      -5.313   1.633  25.009  0.00  0.00    +0.001 C 
ENDBRANCH  20  13
ENDBRANCH  12   6
ENDBRANCH   9  12
BRANCH  11  16
ATOM     16  C   UNL     1      -4.025  -1.095  24.820  0.00  0.00    +0.190 C 
BRANCH  16   3
ATOM      3  O   UNL     1      -4.309  -1.766  23.603  0.00  0.00    -0.392 OA
ATOM     30  H   UNL     1      -4.520  -1.086  22.942  0.00  0.00    +0.210 HD
ENDBRANCH  16   3
ENDBRANCH  11  16
TORSDOF 10
ENDMDL
MODEL 4
REMARK VINA RESULT:      -4.4      2.161      4.114
REMARK  Name = 28962241
REMARK  11 active torsions:
REMARK  status: ('A' for Active; 'I' for Inactive)
REMARK    1  A    between atoms: O_2  and  C_10
REMARK    2  A    between atoms: O_3  and  C_16
REMARK    3  A    between atoms: N_5  and  C_8
REMARK    4  A    between atoms: N_5  and  C_17
REMARK    5  A    between atoms: N_5  and  C_21
REMARK    6  A    between atoms: N_6  and  C_12
REMARK    7  A    between atoms: C_9  and  C_12
REMARK    8  A    between atoms: C_11  and  C_16
REMARK    9  A    between atoms: C_13  and  C_20
REMARK   10  A    between atoms: C_17  and  C_22
REMARK   11  A    between atoms: C_22  and  C_23
REMARK                            x       y       z     vdW  Elec       q    Type
REMARK                         _______ _______ _______ _____ _____    ______ ____
ROOT
ATOM      1  O   UNL     1      -0.796   3.179  23.920  0.00  0.00    -0.365 OA
ATOM      8  C   UNL     1      -0.167   0.944  24.446  0.00  0.00    +0.118 C 
ATOM      9  C   UNL     1      -0.549   1.896  23.304  0.00  0.00    +0.155 C 
ATOM     10  C   UNL     1      -0.847   1.569  25.654  0.00  0.00    +0.165 C 
ATOM     11  C   UNL     1      -0.659   3.049  25.348  0.00  0.00    +0.174 C 
ENDROOT
BRANCH  10   2
ATOM      2  O   UNL     1      -2.231   1.244  25.698  0.00  0.00    -0.388 OA
ATOM     29  H   UNL     1      -2.311   0.281  25.601  0.00  0.00    +0.210 HD
ENDBRANCH  10   2
BRANCH   8   5
ATOM      5  N   UNL     1      -0.455  -0.464  24.231  0.00  0.00    -0.297 NA
ATOM     21  C   UNL     1      -0.855  -1.111  25.484  0.00  0.00    +0.105 C 
BRANCH   5  17
ATOM     17  C   UNL     1       0.707  -1.152  23.659  0.00  0.00    +0.090 C 
BRANCH  17  22
ATOM     22  C   UNL     1       1.488  -0.224  22.727  0.00  0.00    +0.071 C 
BRANCH  22  23
ATOM      7  N   UNL     1       3.468  -1.335  23.607  0.00  0.00    -0.260 NA
ATOM     23  C   UNL     1       2.956  -0.207  23.067  0.00  0.00    +0.042 A 
ATOM     24  C   UNL     1       3.697   0.937  22.814  0.00  0.00    +0.023 A 
ATOM     25  C   UNL     1       5.050   0.920  23.138  0.00  0.00    +0.003 A 
ATOM     26  C   UNL     1       4.785  -1.314  23.908  0.00  0.00    +0.111 A 
ATOM     27  C   UNL     1       5.612  -0.223  23.696  0.00  0.00    +0.020 A 
ENDBRANCH  22  23
ENDBRANCH  17  22
ENDBRANCH   5  17
ENDBRANCH   8   5
BRANCH   9  12
ATOM     12  C   UNL     1      -1.791   1.534  22.498  0.00  0.00    +0.137 C 
BRANCH  12   6
ATOM      4  O   UNL     1      -4.069   0.381  23.879  0.00  0.00    -0.276 OA
ATOM      6  N   UNL     1      -2.946   2.220  22.995  0.00  0.00    -0.313 N 
ATOM     20  C   UNL     1      -3.997   1.585  23.649  0.00  0.00    +0.216 C 
ATOM     28  H   UNL     1      -2.986   3.226  22.860  0.00  0.00    +0.149 HD
BRANCH  20  13
ATOM     13  C   UNL     1      -5.066   2.539  24.087  0.00  0.00    +0.075 C 
ATOM     14  C   UNL     1      -4.491   3.569  25.066  0.00  0.00    +0.013 C 
ATOM     15  C   UNL     1      -6.172   1.801  24.842  0.00  0.00    +0.013 C 
ATOM     18  C   UNL     1      -5.346   3.468  26.326  0.00  0.00    +0.001 C 
ATOM     19  C   UNL     1      -5.858   2.040  26.312  0.00  0.00    +0.001 C 
ENDBRANCH  20  13
ENDBRANCH  12   6
ENDBRANCH   9  12
BRANCH  11  16
ATOM     16  C   UNL     1      -1.638   3.987  26.031  0.00  0.00    +0.190 C 
BRANCH  16   3
ATOM      3  O   UNL     1      -1.593   5.249  25.384  0.00  0.00    -0.392 OA
ATOM     30  H   UNL     1      -2.320   5.783  25.747  0.00  0.00    +0.210 HD
ENDBRANCH  16   3
ENDBRANCH  11  16
TORSDOF 10
ENDMDL
MODEL 5
REMARK VINA RESULT:      -4.2      1.450      2.107
REMARK  Name = 28962241
REMARK  11 active torsions:
REMARK  status: ('A' for Active; 'I' for Inactive)
REMARK    1  A    between atoms: O_2  and  C_10
REMARK    2  A    between atoms: O_3  and  C_16
REMARK    3  A    between atoms: N_5  and  C_8
REMARK    4  A    between atoms: N_5  and  C_17
REMARK    5  A    between atoms: N_5  and  C_21
REMARK    6  A    between atoms: N_6  and  C_12
REMARK    7  A    between atoms: C_9  and  C_12
REMARK    8  A    between atoms: C_11  and  C_16
REMARK    9  A    between atoms: C_13  and  C_20
REMARK   10  A    between atoms: C_17  and  C_22
REMARK   11  A    between atoms: C_22  and  C_23
REMARK                            x       y       z     vdW  Elec       q    Type
REMARK                         _______ _______ _______ _____ _____    ______ ____
ROOT
ATOM      1  O   UNL     1      -3.857   3.516  23.503  0.00  0.00    -0.365 OA
ATOM      8  C   UNL     1      -1.744   2.898  24.408  0.00  0.00    +0.118 C 
ATOM      9  C   UNL     1      -2.651   2.791  23.175  0.00  0.00    +0.155 C 
ATOM     10  C   UNL     1      -2.733   3.103  25.545  0.00  0.00    +0.165 C 
ATOM     11  C   UNL     1      -3.767   3.989  24.861  0.00  0.00    +0.174 C 
ENDROOT
BRANCH  10   2
ATOM      2  O   UNL     1      -3.323   1.875  25.950  0.00  0.00    -0.388 OA
ATOM     29  H   UNL     1      -2.686   1.166  25.761  0.00  0.00    +0.210 HD
ENDBRANCH  10   2
BRANCH   8   5
ATOM      5  N   UNL     1      -0.793   1.817  24.601  0.00  0.00    -0.297 NA
ATOM     21  C   UNL     1      -0.164   1.906  25.922  0.00  0.00    +0.105 C 
BRANCH   5  17
ATOM     17  C   UNL     1       0.234   1.833  23.554  0.00  0.00    +0.090 C 
BRANCH  17  22
ATOM     22  C   UNL     1       0.646   0.411  23.171  0.00  0.00    +0.071 C 
BRANCH  22  23
ATOM      7  N   UNL     1       2.622  -0.966  23.529  0.00  0.00    -0.260 NA
ATOM     23  C   UNL     1       2.144   0.248  23.176  0.00  0.00    +0.042 A 
ATOM     24  C   UNL     1       2.944   1.324  22.825  0.00  0.00    +0.023 A 
ATOM     25  C   UNL     1       4.323   1.142  22.839  0.00  0.00    +0.003 A 
ATOM     26  C   UNL     1       3.966  -1.106  23.530  0.00  0.00    +0.111 A 
ATOM     27  C   UNL     1       4.852  -0.094  23.197  0.00  0.00    +0.020 A 
ENDBRANCH  22  23
ENDBRANCH  17  22
ENDBRANCH   5  17
ENDBRANCH   8   5
BRANCH   9  12
ATOM     12  C   UNL     1      -3.069   1.386  22.754  0.00  0.00    +0.137 C 
BRANCH  12   6
ATOM      4  O   UNL     1      -4.971  -0.116  24.352  0.00  0.00    -0.276 OA
ATOM      6  N   UNL     1      -2.780   0.432  23.781  0.00  0.00    -0.313 N 
ATOM     20  C   UNL     1      -3.758  -0.246  24.501  0.00  0.00    +0.216 C 
ATOM     28  H   UNL     1      -1.802   0.246  23.984  0.00  0.00    +0.149 HD
BRANCH  20  13
ATOM     13  C   UNL     1      -3.183  -1.204  25.499  0.00  0.00    +0.075 C 
ATOM     14  C   UNL     1      -1.697  -0.906  25.727  0.00  0.00    +0.013 C 
ATOM     15  C   UNL     1      -3.256  -2.639  24.973  0.00  0.00    +0.013 C 
ATOM     18  C   UNL     1      -0.960  -2.207  25.425  0.00  0.00    +0.001 C 
ATOM     19  C   UNL     1      -1.861  -2.921  24.435  0.00  0.00    +0.001 C 
ENDBRANCH  20  13
ENDBRANCH  12   6
ENDBRANCH   9  12
BRANCH  11  16
ATOM     16  C   UNL     1      -5.150   3.980  25.486  0.00  0.00    +0.190 C 
BRANCH  16   3
ATOM      3  O   UNL     1      -5.777   2.740  25.198  0.00  0.00    -0.392 OA
ATOM     30  H   UNL     1      -6.704   2.931  24.977  0.00  0.00    +0.210 HD
ENDBRANCH  16   3
ENDBRANCH  11  16
TORSDOF 10
ENDMDL
MODEL 6
REMARK VINA RESULT:      -3.8      1.804      4.860
REMARK  Name = 28962241
REMARK  11 active torsions:
REMARK  status: ('A' for Active; 'I' for Inactive)
REMARK    1  A    between atoms: O_2  and  C_10
REMARK    2  A    between atoms: O_3  and  C_16
REMARK    3  A    between atoms: N_5  and  C_8
REMARK    4  A    between atoms: N_5  and  C_17
REMARK    5  A    between atoms: N_5  and  C_21
REMARK    6  A    between atoms: N_6  and  C_12
REMARK    7  A    between atoms: C_9  and  C_12
REMARK    8  A    between atoms: C_11  and  C_16
REMARK    9  A    between atoms: C_13  and  C_20
REMARK   10  A    between atoms: C_17  and  C_22
REMARK   11  A    between atoms: C_22  and  C_23
REMARK                            x       y       z     vdW  Elec       q    Type
REMARK                         _______ _______ _______ _____ _____    ______ ____
ROOT
ATOM      1  O   UNL     1      -1.652   3.279  25.352  0.00  0.00    -0.365 OA
ATOM      8  C   UNL     1      -3.921   2.572  25.240  0.00  0.00    +0.118 C 
ATOM      9  C   UNL     1      -2.470   2.149  24.978  0.00  0.00    +0.155 C 
ATOM     10  C   UNL     1      -3.865   4.086  25.120  0.00  0.00    +0.165 C 
ATOM     11  C   UNL     1      -2.507   4.367  25.751  0.00  0.00    +0.174 C 
ENDROOT
BRANCH  10   2
ATOM      2  O   UNL     1      -3.874   4.502  23.760  0.00  0.00    -0.388 OA
ATOM     29  H   UNL     1      -3.136   5.122  23.637  0.00  0.00    +0.210 HD
ENDBRANCH  10   2
BRANCH   8   5
ATOM      5  N   UNL     1      -4.936   1.922  24.427  0.00  0.00    -0.297 NA
ATOM     21  C   UNL     1      -6.234   1.932  25.108  0.00  0.00    +0.105 C 
BRANCH   5  17
ATOM     17  C   UNL     1      -4.546   0.546  24.108  0.00  0.00    +0.090 C 
BRANCH  17  22
ATOM     22  C   UNL     1      -4.286  -0.259  25.383  0.00  0.00    +0.071 C 
BRANCH  22  23
ATOM      7  N   UNL     1      -1.971  -0.766  25.942  0.00  0.00    -0.260 NA
ATOM     23  C   UNL     1      -3.068  -1.136  25.245  0.00  0.00    +0.042 A 
ATOM     24  C   UNL     1      -3.128  -2.256  24.431  0.00  0.00    +0.023 A 
ATOM     25  C   UNL     1      -1.988  -3.045  24.325  0.00  0.00    +0.003 A 
ATOM     26  C   UNL     1      -0.883  -1.558  25.816  0.00  0.00    +0.111 A 
ATOM     27  C   UNL     1      -0.840  -2.696  25.028  0.00  0.00    +0.020 A 
ENDBRANCH  22  23
ENDBRANCH  17  22
ENDBRANCH   5  17
ENDBRANCH   8   5
BRANCH   9  12
ATOM     12  C   UNL     1      -2.112   1.788  23.540  0.00  0.00    +0.137 C 
BRANCH  12   6
ATOM      4  O   UNL     1       0.624   2.598  24.070  0.00  0.00    -0.276 OA
ATOM      6  N   UNL     1      -0.938   0.970  23.491  0.00  0.00    -0.313 N 
ATOM     20  C   UNL     1       0.342   1.443  23.761  0.00  0.00    +0.216 C 
ATOM     28  H   UNL     1      -1.060  -0.009  23.248  0.00  0.00    +0.149 HD
BRANCH  20  13
ATOM     13  C   UNL     1       1.387   0.373  23.663  0.00  0.00    +0.075 C 
ATOM     14  C   UNL     1       2.701   0.960  23.133  0.00  0.00    +0.013 C 
ATOM     15  C   UNL     1       0.964  -0.704  22.662  0.00  0.00    +0.013 C 
ATOM     18  C   UNL     1       3.054   0.139  21.897  0.00  0.00    +0.001 C 
ATOM     19  C   UNL     1       1.714  -0.355  21.384  0.00  0.00    +0.001 C 
ENDBRANCH  20  13
ENDBRANCH  12   6
ENDBRANCH   9  12
BRANCH  11  16
ATOM     16  C   UNL     1      -1.862   5.683  25.354  0.00  0.00    +0.190 C 
BRANCH  16   3
ATOM      3  O   UNL     1      -0.618   5.413  24.727  0.00  0.00    -0.392 OA
ATOM     30  H   UNL     1      -0.094   6.231  24.765  0.00  0.00    +0.210 HD
ENDBRANCH  16   3
ENDBRANCH  11  16
TORSDOF 10
ENDMDL
MODEL 7
REMARK VINA RESULT:      -3.5      2.149      5.519
REMARK  Name = 28962241
REMARK  11 active torsions:
REMARK  status: ('A' for Active; 'I' for Inactive)
REMARK    1  A    between atoms: O_2  and  C_10
REMARK    2  A    between atoms: O_3  and  C_16
REMARK    3  A    between atoms: N_5  and  C_8
REMARK    4  A    between atoms: N_5  and  C_17
REMARK    5  A    between atoms: N_5  and  C_21
REMARK    6  A    between atoms: N_6  and  C_12
REMARK    7  A    between atoms: C_9  and  C_12
REMARK    8  A    between atoms: C_11  and  C_16
REMARK    9  A    between atoms: C_13  and  C_20
REMARK   10  A    between atoms: C_17  and  C_22
REMARK   11  A    between atoms: C_22  and  C_23
REMARK                            x       y       z     vdW  Elec       q    Type
REMARK                         _______ _______ _______ _____ _____    ______ ____
ROOT
ATOM      1  O   UNL     1       0.088   0.070  22.159  0.00  0.00    -0.365 OA
ATOM      8  C   UNL     1      -0.315   0.564  24.451  0.00  0.00    +0.118 C 
ATOM      9  C   UNL     1      -0.943   0.546  23.051  0.00  0.00    +0.155 C 
ATOM     10  C   UNL     1       1.168   0.724  24.160  0.00  0.00    +0.165 C 
ATOM     11  C   UNL     1       1.302  -0.131  22.906  0.00  0.00    +0.174 C 
ENDROOT
BRANCH  10   2
ATOM      2  O   UNL     1       1.500   2.077  23.874  0.00  0.00    -0.388 OA
ATOM     29  H   UNL     1       1.871   2.105  22.976  0.00  0.00    +0.210 HD
ENDBRANCH  10   2
BRANCH   8   5
ATOM      5  N   UNL     1      -0.870   1.524  25.391  0.00  0.00    -0.297 NA
ATOM     21  C   UNL     1       0.194   2.171  26.163  0.00  0.00    +0.105 C 
BRANCH   5  17
ATOM     17  C   UNL     1      -1.824   0.875  26.296  0.00  0.00    +0.090 C 
BRANCH  17  22
ATOM     22  C   UNL     1      -1.547  -0.625  26.400  0.00  0.00    +0.071 C 
BRANCH  22  23
ATOM      7  N   UNL     1      -1.829  -2.525  24.903  0.00  0.00    -0.260 NA
ATOM     23  C   UNL     1      -2.388  -1.412  25.428  0.00  0.00    +0.042 A 
ATOM     24  C   UNL     1      -3.667  -0.970  25.126  0.00  0.00    +0.023 A 
ATOM     25  C   UNL     1      -4.418  -1.719  24.226  0.00  0.00    +0.003 A 
ATOM     26  C   UNL     1      -2.589  -3.227  24.033  0.00  0.00    +0.111 A 
ATOM     27  C   UNL     1      -3.876  -2.870  23.665  0.00  0.00    +0.020 A 
ENDBRANCH  22  23
ENDBRANCH  17  22
ENDBRANCH   5  17
ENDBRANCH   8   5
BRANCH   9  12
ATOM     12  C   UNL     1      -1.433   1.882  22.504  0.00  0.00    +0.137 C 
BRANCH  12   6
ATOM      4  O   UNL     1      -2.326   3.925  24.363  0.00  0.00    -0.276 OA
ATOM      6  N   UNL     1      -2.775   2.150  22.923  0.00  0.00    -0.313 N 
ATOM     20  C   UNL     1      -3.116   3.154  23.823  0.00  0.00    +0.216 C 
ATOM     28  H   UNL     1      -3.512   1.569  22.532  0.00  0.00    +0.149 HD
BRANCH  20  13
ATOM     13  C   UNL     1      -4.592   3.235  24.069  0.00  0.00    +0.075 C 
ATOM     14  C   UNL     1      -4.869   3.892  25.426  0.00  0.00    +0.013 C 
ATOM     15  C   UNL     1      -5.205   1.836  24.137  0.00  0.00    +0.013 C 
ATOM     18  C   UNL     1      -5.722   2.895  26.205  0.00  0.00    +0.001 C 
ATOM     19  C   UNL     1      -5.336   1.547  25.626  0.00  0.00    +0.001 C 
ENDBRANCH  20  13
ENDBRANCH  12   6
ENDBRANCH   9  12
BRANCH  11  16
ATOM     16  C   UNL     1       2.494   0.188  22.022  0.00  0.00    +0.190 C 
BRANCH  16   3
ATOM      3  O   UNL     1       3.582   0.583  22.843  0.00  0.00    -0.392 OA
ATOM     30  H   UNL     1       3.774  -0.158  23.441  0.00  0.00    +0.210 HD
ENDBRANCH  16   3
ENDBRANCH  11  16
TORSDOF 10
ENDMDL
MODEL 8
REMARK VINA RESULT:      -3.4      2.339      3.186
REMARK  Name = 28962241
REMARK  11 active torsions:
REMARK  status: ('A' for Active; 'I' for Inactive)
REMARK    1  A    between atoms: O_2  and  C_10
REMARK    2  A    between atoms: O_3  and  C_16
REMARK    3  A    between atoms: N_5  and  C_8
REMARK    4  A    between atoms: N_5  and  C_17
REMARK    5  A    between atoms: N_5  and  C_21
REMARK    6  A    between atoms: N_6  and  C_12
REMARK    7  A    between atoms: C_9  and  C_12
REMARK    8  A    between atoms: C_11  and  C_16
REMARK    9  A    between atoms: C_13  and  C_20
REMARK   10  A    between atoms: C_17  and  C_22
REMARK   11  A    between atoms: C_22  and  C_23
REMARK                            x       y       z     vdW  Elec       q    Type
REMARK                         _______ _______ _______ _____ _____    ______ ____
ROOT
ATOM      1  O   UNL     1      -4.192   2.726  23.462  0.00  0.00    -0.365 OA
ATOM      8  C   UNL     1      -2.727   4.118  24.720  0.00  0.00    +0.118 C 
ATOM      9  C   UNL     1      -2.840   3.236  23.470  0.00  0.00    +0.155 C 
ATOM     10  C   UNL     1      -3.779   3.534  25.648  0.00  0.00    +0.165 C 
ATOM     11  C   UNL     1      -4.872   3.180  24.647  0.00  0.00    +0.174 C 
ENDROOT
BRANCH  10   2
ATOM      2  O   UNL     1      -3.306   2.361  26.299  0.00  0.00    -0.388 OA
ATOM     29  H   UNL     1      -4.039   2.001  26.827  0.00  0.00    +0.210 HD
ENDBRANCH  10   2
BRANCH   8   5
ATOM      5  N   UNL     1      -1.398   4.251  25.294  0.00  0.00    -0.297 NA
ATOM     21  C   UNL     1      -0.372   4.198  24.249  0.00  0.00    +0.105 C 
BRANCH   5  17
ATOM     17  C   UNL     1      -1.154   3.205  26.292  0.00  0.00    +0.090 C 
BRANCH  17  22
ATOM     22  C   UNL     1       0.286   2.696  26.210  0.00  0.00    +0.071 C 
BRANCH  22  23
ATOM      7  N   UNL     1       2.268   2.929  27.604  0.00  0.00    -0.260 NA
ATOM     23  C   UNL     1       0.942   2.673  27.567  0.00  0.00    +0.042 A 
ATOM     24  C   UNL     1       0.173   2.400  28.687  0.00  0.00    +0.023 A 
ATOM     25  C   UNL     1       0.808   2.387  29.925  0.00  0.00    +0.003 A 
ATOM     26  C   UNL     1       2.851   2.909  28.824  0.00  0.00    +0.111 A 
ATOM     27  C   UNL     1       2.172   2.645  30.003  0.00  0.00    +0.020 A 
ENDBRANCH  22  23
ENDBRANCH  17  22
ENDBRANCH   5  17
ENDBRANCH   8   5
BRANCH   9  12
ATOM     12  C   UNL     1      -1.904   2.035  23.394  0.00  0.00    +0.137 C 
BRANCH  12   6
ATOM      4  O   UNL     1      -0.476  -0.198  24.579  0.00  0.00    -0.276 OA
ATOM      6  N   UNL     1      -2.465   0.900  24.062  0.00  0.00    -0.313 N 
ATOM     20  C   UNL     1      -1.702  -0.130  24.604  0.00  0.00    +0.216 C 
ATOM     28  H   UNL     1      -3.477   0.858  24.143  0.00  0.00    +0.149 HD
BRANCH  20  13
ATOM     13  C   UNL     1      -2.538  -1.181  25.269  0.00  0.00    +0.075 C 
ATOM     14  C   UNL     1      -2.247  -2.557  24.659  0.00  0.00    +0.013 C 
ATOM     15  C   UNL     1      -4.026  -0.915  25.035  0.00  0.00    +0.013 C 
ATOM     18  C   UNL     1      -3.592  -3.093  24.180  0.00  0.00    +0.001 C 
ATOM     19  C   UNL     1      -4.407  -1.846  23.892  0.00  0.00    +0.001 C 
ENDBRANCH  20  13
ENDBRANCH  12   6
ENDBRANCH   9  12
BRANCH  11  16
ATOM     16  C   UNL     1      -5.854   2.115  25.101  0.00  0.00    +0.190 C 
BRANCH  16   3
ATOM      3  O   UNL     1      -6.262   2.402  26.428  0.00  0.00    -0.392 OA
ATOM     30  H   UNL     1      -5.481   2.729  26.905  0.00  0.00    +0.210 HD
ENDBRANCH  16   3
ENDBRANCH  11  16
TORSDOF 10
ENDMDL
MODEL 9
REMARK VINA RESULT:      -3.4      2.290      6.083
REMARK  Name = 28962241
REMARK  11 active torsions:
REMARK  status: ('A' for Active; 'I' for Inactive)
REMARK    1  A    between atoms: O_2  and  C_10
REMARK    2  A    between atoms: O_3  and  C_16
REMARK    3  A    between atoms: N_5  and  C_8
REMARK    4  A    between atoms: N_5  and  C_17
REMARK    5  A    between atoms: N_5  and  C_21
REMARK    6  A    between atoms: N_6  and  C_12
REMARK    7  A    between atoms: C_9  and  C_12
REMARK    8  A    between atoms: C_11  and  C_16
REMARK    9  A    between atoms: C_13  and  C_20
REMARK   10  A    between atoms: C_17  and  C_22
REMARK   11  A    between atoms: C_22  and  C_23
REMARK                            x       y       z     vdW  Elec       q    Type
REMARK                         _______ _______ _______ _____ _____    ______ ____
ROOT
ATOM      1  O   UNL     1       1.954   1.631  23.656  0.00  0.00    -0.365 OA
ATOM      8  C   UNL     1      -0.269   1.018  23.065  0.00  0.00    +0.118 C 
ATOM      9  C   UNL     1       0.580   2.043  23.829  0.00  0.00    +0.155 C 
ATOM     10  C   UNL     1       0.606  -0.225  23.073  0.00  0.00    +0.165 C 
ATOM     11  C   UNL     1       1.985   0.401  22.907  0.00  0.00    +0.174 C 
ENDROOT
BRANCH  10   2
ATOM      2  O   UNL     1       0.521  -0.915  24.314  0.00  0.00    -0.388 OA
ATOM     29  H   UNL     1       0.357  -1.852  24.118  0.00  0.00    +0.210 HD
ENDBRANCH  10   2
BRANCH   8   5
ATOM      5  N   UNL     1      -1.626   0.824  23.546  0.00  0.00    -0.297 NA
ATOM     21  C   UNL     1      -2.552   1.744  22.879  0.00  0.00    +0.105 C 
BRANCH   5  17
ATOM     17  C   UNL     1      -1.696   1.008  24.999  0.00  0.00    +0.090 C 
BRANCH  17  22
ATOM     22  C   UNL     1      -2.955   0.356  25.573  0.00  0.00    +0.071 C 
BRANCH  22  23
ATOM      7  N   UNL     1      -2.260  -1.933  25.116  0.00  0.00    -0.260 NA
ATOM     23  C   UNL     1      -3.214  -0.991  24.948  0.00  0.00    +0.042 A 
ATOM     24  C   UNL     1      -4.393  -1.197  24.248  0.00  0.00    +0.023 A 
ATOM     25  C   UNL     1      -4.603  -2.451  23.684  0.00  0.00    +0.003 A 
ATOM     26  C   UNL     1      -2.499  -3.138  24.555  0.00  0.00    +0.111 A 
ATOM     27  C   UNL     1      -3.643  -3.446  23.835  0.00  0.00    +0.020 A 
ENDBRANCH  22  23
ENDBRANCH  17  22
ENDBRANCH   5  17
ENDBRANCH   8   5
BRANCH   9  12
ATOM     12  C   UNL     1       0.329   2.159  25.328  0.00  0.00    +0.137 C 
BRANCH  12   6
ATOM      4  O   UNL     1      -0.215   4.815  24.289  0.00  0.00    -0.276 OA
ATOM      6  N   UNL     1      -0.812   2.982  25.597  0.00  0.00    -0.313 N 
ATOM     20  C   UNL     1      -0.993   4.250  25.054  0.00  0.00    +0.216 C 
ATOM     28  H   UNL     1      -1.523   2.607  26.218  0.00  0.00    +0.149 HD
BRANCH  20  13
ATOM     13  C   UNL     1      -2.282   4.883  25.479  0.00  0.00    +0.075 C 
ATOM     14  C   UNL     1      -2.984   4.009  26.526  0.00  0.00    +0.013 C 
ATOM     15  C   UNL     1      -3.246   4.992  24.297  0.00  0.00    +0.013 C 
ATOM     18  C   UNL     1      -4.373   3.721  25.964  0.00  0.00    +0.001 C 
ATOM     19  C   UNL     1      -4.189   3.808  24.460  0.00  0.00    +0.001 C 
ENDBRANCH  20  13
ENDBRANCH  12   6
ENDBRANCH   9  12
BRANCH  11  16
ATOM     16  C   UNL     1       3.149  -0.447  23.386  0.00  0.00    +0.190 C 
BRANCH  16   3
ATOM      3  O   UNL     1       4.320   0.354  23.417  0.00  0.00    -0.392 OA
ATOM     30  H   UNL     1       4.705   0.333  22.525  0.00  0.00    +0.210 HD
ENDBRANCH  16   3
ENDBRANCH  11  16
TORSDOF 10
ENDMDL
MODEL 10
REMARK VINA RESULT:      -3.4      2.442      6.556
REMARK  Name = 28962241
REMARK  11 active torsions:
REMARK  status: ('A' for Active; 'I' for Inactive)
REMARK    1  A    between atoms: O_2  and  C_10
REMARK    2  A    between atoms: O_3  and  C_16
REMARK    3  A    between atoms: N_5  and  C_8
REMARK    4  A    between atoms: N_5  and  C_17
REMARK    5  A    between atoms: N_5  and  C_21
REMARK    6  A    between atoms: N_6  and  C_12
REMARK    7  A    between atoms: C_9  and  C_12
REMARK    8  A    between atoms: C_11  and  C_16
REMARK    9  A    between atoms: C_13  and  C_20
REMARK   10  A    between atoms: C_17  and  C_22
REMARK   11  A    between atoms: C_22  and  C_23
REMARK                            x       y       z     vdW  Elec       q    Type
REMARK                         _______ _______ _______ _____ _____    ______ ____
ROOT
ATOM      1  O   UNL     1      -0.347  -0.265  23.587  0.00  0.00    -0.365 OA
ATOM      8  C   UNL     1      -1.517   1.690  24.276  0.00  0.00    +0.118 C 
ATOM      9  C   UNL     1      -0.388   1.164  23.379  0.00  0.00    +0.155 C 
ATOM     10  C   UNL     1      -1.588   0.650  25.383  0.00  0.00    +0.165 C 
ATOM     11  C   UNL     1      -1.316  -0.623  24.590  0.00  0.00    +0.174 C 
ENDROOT
BRANCH  10   2
ATOM      2  O   UNL     1      -0.571   0.854  26.356  0.00  0.00    -0.388 OA
ATOM     29  H   UNL     1       0.251   1.066  25.882  0.00  0.00    +0.210 HD
ENDBRANCH  10   2
BRANCH   8   5
ATOM      5  N   UNL     1      -1.391   3.066  24.725  0.00  0.00    -0.297 NA
ATOM     21  C   UNL     1      -1.578   3.160  26.176  0.00  0.00    +0.105 C 
BRANCH   5  17
ATOM     17  C   UNL     1      -2.357   3.929  24.038  0.00  0.00    +0.090 C 
BRANCH  17  22
ATOM     22  C   UNL     1      -3.472   3.101  23.398  0.00  0.00    +0.071 C 
BRANCH  22  23
ATOM      7  N   UNL     1      -4.999   3.685  25.203  0.00  0.00    -0.260 NA
ATOM     23  C   UNL     1      -4.516   2.703  24.410  0.00  0.00    +0.042 A 
ATOM     24  C   UNL     1      -4.926   1.381  24.476  0.00  0.00    +0.023 A 
ATOM     25  C   UNL     1      -5.892   1.046  25.420  0.00  0.00    +0.003 A 
ATOM     26  C   UNL     1      -5.935   3.322  26.107  0.00  0.00    +0.111 A 
ATOM     27  C   UNL     1      -6.411   2.030  26.254  0.00  0.00    +0.020 A 
ENDBRANCH  22  23
ENDBRANCH  17  22
ENDBRANCH   5  17
ENDBRANCH   8   5
BRANCH   9  12
ATOM     12  C   UNL     1       1.011   1.702  23.655  0.00  0.00    +0.137 C 
BRANCH  12   6
ATOM      4  O   UNL     1       3.712   2.238  22.736  0.00  0.00    -0.276 OA
ATOM      6  N   UNL     1       2.012   0.745  23.292  0.00  0.00    -0.313 N 
ATOM     20  C   UNL     1       3.288   1.092  22.859  0.00  0.00    +0.216 C 
ATOM     28  H   UNL     1       1.766  -0.238  23.361  0.00  0.00    +0.149 HD
BRANCH  20  13
ATOM     13  C   UNL     1       4.145  -0.103  22.567  0.00  0.00    +0.075 C 
ATOM     14  C   UNL     1       3.648  -1.319  23.358  0.00  0.00    +0.013 C 
ATOM     15  C   UNL     1       5.585   0.143  23.019  0.00  0.00    +0.013 C 
ATOM     18  C   UNL     1       4.846  -1.805  24.169  0.00  0.00    +0.001 C 
ATOM     19  C   UNL     1       5.690  -0.560  24.365  0.00  0.00    +0.001 C 
ENDBRANCH  20  13
ENDBRANCH  12   6
ENDBRANCH   9  12
BRANCH  11  16
ATOM     16  C   UNL     1      -0.792  -1.795  25.398  0.00  0.00    +0.190 C 
BRANCH  16   3
ATOM      3  O   UNL     1       0.625  -1.734  25.429  0.00  0.00    -0.392 OA
ATOM     30  H   UNL     1       0.939  -2.547  25.859  0.00  0.00    +0.210 HD
ENDBRANCH  16   3
ENDBRANCH  11  16
TORSDOF 10
ENDMDL
