MODEL 1
REMARK VINA RESULT:      -5.3      0.000      0.000
REMARK  Name = 56774055
REMARK  10 active torsions:
REMARK  status: ('A' for Active; 'I' for Inactive)
REMARK    1  A    between atoms: N_3  and  C_7
REMARK    2  A    between atoms: N_3  and  C_12
REMARK    3  A    between atoms: C_5  and  C_10
REMARK    4  A    between atoms: C_5  and  C_11
REMARK    5  A    between atoms: C_6  and  C_9
REMARK    6  A    between atoms: C_9  and  C_13
REMARK    7  A    between atoms: C_19  and  C_20
REMARK    8  A    between atoms: C_20  and  C_21
REMARK    9  A    between atoms: C_20  and  C_22
REMARK   10  A    between atoms: C_20  and  C_23
REMARK                            x       y       z     vdW  Elec       q    Type
REMARK                         _______ _______ _______ _____ _____    ______ ____
ROOT
ATOM      5  C   UNL     1      -0.917   4.287  24.773  0.00  0.00    -0.016 C 
ATOM      6  C   UNL     1      -0.357   3.340  25.855  0.00  0.00    +0.004 C 
ATOM      7  C   UNL     1      -2.228   4.318  25.587  0.00  0.00    +0.060 C 
ATOM      8  C   UNL     1      -1.818   2.942  26.154  0.00  0.00    +0.023 C 
ATOM     10  C   UNL     1      -0.964   3.675  23.389  0.00  0.00    +0.013 C 
ATOM     11  C   UNL     1      -0.261   5.654  24.693  0.00  0.00    +0.013 C 
ENDROOT
BRANCH   7   3
ATOM      3  N   UNL     1      -3.396   4.146  24.718  0.00  0.00    -0.310 NA
ATOM     24  H   UNL     1      -3.171   3.983  23.737  0.00  0.00    +0.122 HD
BRANCH   3  12
ATOM      1  O   UNL     1      -6.634   1.496  25.063  0.00  0.00    -0.380 OA
ATOM     12  C   UNL     1      -4.210   3.041  25.219  0.00  0.00    +0.058 C 
ATOM     14  C   UNL     1      -4.446   1.991  24.129  0.00  0.00    +0.047 C 
ATOM     15  C   UNL     1      -5.551   3.563  25.744  0.00  0.00    +0.047 C 
ATOM     16  C   UNL     1      -5.405   0.916  24.627  0.00  0.00    +0.161 C 
ATOM     17  C   UNL     1      -6.449   2.400  26.153  0.00  0.00    +0.161 C 
ENDBRANCH   3  12
ENDBRANCH   7   3
BRANCH   6   9
ATOM      9  C   UNL     1       0.521   2.202  25.387  0.00  0.00    +0.063 C 
BRANCH   9  13
ATOM      2  O   UNL     1      -1.105  -0.447  23.551  0.00  0.00    -0.359 OA
ATOM      4  N   UNL     1      -0.199   0.602  23.655  0.00  0.00    -0.083 NA
ATOM     13  C   UNL     1      -0.327   1.047  24.909  0.00  0.00    +0.084 A 
ATOM     18  C   UNL     1      -1.289   0.325  25.636  0.00  0.00    +0.071 A 
ATOM     19  C   UNL     1      -1.748  -0.602  24.738  0.00  0.00    +0.143 A 
BRANCH  19  20
ATOM     20  C   UNL     1      -2.747  -1.674  24.806  0.00  0.00    +0.023 C 
ATOM     21  C   UNL     1      -3.930  -1.589  23.770  0.00  0.00    +0.019 C 
ATOM     22  C   UNL     1      -2.113  -3.089  24.562  0.00  0.00    +0.019 C 
ATOM     23  C   UNL     1      -3.454  -1.733  26.206  0.00  0.00    +0.019 C 
ENDBRANCH  19  20
ENDBRANCH   9  13
ENDBRANCH   6   9
TORSDOF 5
ENDMDL
MODEL 2
REMARK VINA RESULT:      -5.0      2.188      4.973
REMARK  Name = 56774055
REMARK  10 active torsions:
REMARK  status: ('A' for Active; 'I' for Inactive)
REMARK    1  A    between atoms: N_3  and  C_7
REMARK    2  A    between atoms: N_3  and  C_12
REMARK    3  A    between atoms: C_5  and  C_10
REMARK    4  A    between atoms: C_5  and  C_11
REMARK    5  A    between atoms: C_6  and  C_9
REMARK    6  A    between atoms: C_9  and  C_13
REMARK    7  A    between atoms: C_19  and  C_20
REMARK    8  A    between atoms: C_20  and  C_21
REMARK    9  A    between atoms: C_20  and  C_22
REMARK   10  A    between atoms: C_20  and  C_23
REMARK                            x       y       z     vdW  Elec       q    Type
REMARK                         _______ _______ _______ _____ _____    ______ ____
ROOT
ATOM      5  C   UNL     1      -1.260   3.817  24.981  0.00  0.00    -0.016 C 
ATOM      6  C   UNL     1      -2.518   3.481  24.155  0.00  0.00    +0.004 C 
ATOM      7  C   UNL     1      -0.439   3.138  23.865  0.00  0.00    +0.060 C 
ATOM      8  C   UNL     1      -1.708   2.325  23.533  0.00  0.00    +0.023 C 
ATOM     10  C   UNL     1      -1.240   3.180  26.354  0.00  0.00    +0.013 C 
ATOM     11  C   UNL     1      -0.934   5.295  25.111  0.00  0.00    +0.013 C 
ENDROOT
BRANCH   7   3
ATOM      3  N   UNL     1       0.572   2.235  24.424  0.00  0.00    -0.310 NA
ATOM     24  H   UNL     1       0.206   1.551  25.086  0.00  0.00    +0.122 HD
BRANCH   3  12
ATOM      1  O   UNL     1       2.924  -0.634  22.460  0.00  0.00    -0.380 OA
ATOM     12  C   UNL     1       1.252   1.540  23.334  0.00  0.00    +0.058 C 
ATOM     14  C   UNL     1       0.725   0.110  23.178  0.00  0.00    +0.047 C 
ATOM     15  C   UNL     1       2.764   1.518  23.577  0.00  0.00    +0.047 C 
ATOM     16  C   UNL     1       1.536  -0.642  22.129  0.00  0.00    +0.161 C 
ATOM     17  C   UNL     1       3.462   0.688  22.505  0.00  0.00    +0.161 C 
ENDBRANCH   3  12
ENDBRANCH   7   3
BRANCH   6   9
ATOM      9  C   UNL     1      -3.748   3.046  24.920  0.00  0.00    +0.063 C 
BRANCH   9  13
ATOM      2  O   UNL     1      -4.942  -0.347  24.624  0.00  0.00    -0.359 OA
ATOM      4  N   UNL     1      -5.141   1.027  24.671  0.00  0.00    -0.083 NA
ATOM     13  C   UNL     1      -3.921   1.549  24.829  0.00  0.00    +0.084 A 
ATOM     18  C   UNL     1      -2.922   0.561  24.887  0.00  0.00    +0.071 A 
ATOM     19  C   UNL     1      -3.616  -0.612  24.754  0.00  0.00    +0.143 A 
BRANCH  19  20
ATOM     20  C   UNL     1      -3.226  -2.027  24.725  0.00  0.00    +0.023 C 
ATOM     21  C   UNL     1      -1.785  -2.339  24.172  0.00  0.00    +0.019 C 
ATOM     22  C   UNL     1      -3.248  -2.675  26.154  0.00  0.00    +0.019 C 
ATOM     23  C   UNL     1      -4.186  -2.884  23.827  0.00  0.00    +0.019 C 
ENDBRANCH  19  20
ENDBRANCH   9  13
ENDBRANCH   6   9
TORSDOF 5
ENDMDL
MODEL 3
REMARK VINA RESULT:      -4.5      1.914      4.340
REMARK  Name = 56774055
REMARK  10 active torsions:
REMARK  status: ('A' for Active; 'I' for Inactive)
REMARK    1  A    between atoms: N_3  and  C_7
REMARK    2  A    between atoms: N_3  and  C_12
REMARK    3  A    between atoms: C_5  and  C_10
REMARK    4  A    between atoms: C_5  and  C_11
REMARK    5  A    between atoms: C_6  and  C_9
REMARK    6  A    between atoms: C_9  and  C_13
REMARK    7  A    between atoms: C_19  and  C_20
REMARK    8  A    between atoms: C_20  and  C_21
REMARK    9  A    between atoms: C_20  and  C_22
REMARK   10  A    between atoms: C_20  and  C_23
REMARK                            x       y       z     vdW  Elec       q    Type
REMARK                         _______ _______ _______ _____ _____    ______ ____
ROOT
ATOM      5  C   UNL     1      -4.875   3.745  25.322  0.00  0.00    -0.016 C 
ATOM      6  C   UNL     1      -5.224   2.505  24.475  0.00  0.00    +0.004 C 
ATOM      7  C   UNL     1      -3.874   4.127  24.212  0.00  0.00    +0.060 C 
ATOM      8  C   UNL     1      -3.817   2.627  23.853  0.00  0.00    +0.023 C 
ATOM     10  C   UNL     1      -4.315   3.415  26.690  0.00  0.00    +0.013 C 
ATOM     11  C   UNL     1      -5.983   4.773  25.471  0.00  0.00    +0.013 C 
ENDROOT
BRANCH   7   3
ATOM      3  N   UNL     1      -2.582   4.531  24.777  0.00  0.00    -0.310 NA
ATOM     24  H   UNL     1      -2.644   4.973  25.694  0.00  0.00    +0.122 HD
BRANCH   3  12
ATOM      1  O   UNL     1       0.898   2.271  25.408  0.00  0.00    -0.380 OA
ATOM     12  C   UNL     1      -1.707   3.365  24.859  0.00  0.00    +0.058 C 
ATOM     14  C   UNL     1      -1.184   3.166  26.285  0.00  0.00    +0.047 C 
ATOM     15  C   UNL     1      -0.534   3.510  23.885  0.00  0.00    +0.047 C 
ATOM     16  C   UNL     1      -0.170   2.029  26.324  0.00  0.00    +0.161 C 
ATOM     17  C   UNL     1       0.444   2.353  24.057  0.00  0.00    +0.161 C 
ENDBRANCH   3  12
ENDBRANCH   7   3
BRANCH   6   9
ATOM      9  C   UNL     1      -5.473   1.211  25.217  0.00  0.00    +0.063 C 
BRANCH   9  13
ATOM      2  O   UNL     1      -3.579  -1.590  23.957  0.00  0.00    -0.359 OA
ATOM      4  N   UNL     1      -4.755  -0.866  24.100  0.00  0.00    -0.083 NA
ATOM     13  C   UNL     1      -4.425   0.187  24.854  0.00  0.00    +0.084 A 
ATOM     18  C   UNL     1      -3.065   0.181  25.212  0.00  0.00    +0.071 A 
ATOM     19  C   UNL     1      -2.579  -0.957  24.624  0.00  0.00    +0.143 A 
BRANCH  19  20
ATOM     20  C   UNL     1      -1.256  -1.590  24.576  0.00  0.00    +0.023 C 
ATOM     21  C   UNL     1      -0.483  -1.689  25.945  0.00  0.00    +0.019 C 
ATOM     22  C   UNL     1      -1.328  -3.069  24.057  0.00  0.00    +0.019 C 
ATOM     23  C   UNL     1      -0.271  -0.825  23.623  0.00  0.00    +0.019 C 
ENDBRANCH  19  20
ENDBRANCH   9  13
ENDBRANCH   6   9
TORSDOF 5
ENDMDL
MODEL 4
REMARK VINA RESULT:      -3.7      1.738      4.721
REMARK  Name = 56774055
REMARK  10 active torsions:
REMARK  status: ('A' for Active; 'I' for Inactive)
REMARK    1  A    between atoms: N_3  and  C_7
REMARK    2  A    between atoms: N_3  and  C_12
REMARK    3  A    between atoms: C_5  and  C_10
REMARK    4  A    between atoms: C_5  and  C_11
REMARK    5  A    between atoms: C_6  and  C_9
REMARK    6  A    between atoms: C_9  and  C_13
REMARK    7  A    between atoms: C_19  and  C_20
REMARK    8  A    between atoms: C_20  and  C_21
REMARK    9  A    between atoms: C_20  and  C_22
REMARK   10  A    between atoms: C_20  and  C_23
REMARK                            x       y       z     vdW  Elec       q    Type
REMARK                         _______ _______ _______ _____ _____    ______ ____
ROOT
ATOM      5  C   UNL     1       0.488   1.395  24.249  0.00  0.00    -0.016 C 
ATOM      6  C   UNL     1      -0.566   2.076  23.352  0.00  0.00    +0.004 C 
ATOM      7  C   UNL     1      -0.343   0.102  24.113  0.00  0.00    +0.060 C 
ATOM      8  C   UNL     1      -1.564   1.006  23.843  0.00  0.00    +0.023 C 
ATOM     10  C   UNL     1       0.609   2.010  25.628  0.00  0.00    +0.013 C 
ATOM     11  C   UNL     1       1.873   1.251  23.643  0.00  0.00    +0.013 C 
ENDROOT
BRANCH   7   3
ATOM      3  N   UNL     1      -0.517  -0.557  25.411  0.00  0.00    -0.310 NA
ATOM     24  H   UNL     1      -0.482   0.074  26.212  0.00  0.00    +0.122 HD
BRANCH   3  12
ATOM      1  O   UNL     1      -4.229  -1.985  24.070  0.00  0.00    -0.380 OA
ATOM     12  C   UNL     1      -1.786  -1.279  25.419  0.00  0.00    +0.058 C 
ATOM     14  C   UNL     1      -1.834  -2.324  24.301  0.00  0.00    +0.047 C 
ATOM     15  C   UNL     1      -2.956  -0.300  25.273  0.00  0.00    +0.047 C 
ATOM     16  C   UNL     1      -3.212  -2.973  24.239  0.00  0.00    +0.161 C 
ATOM     17  C   UNL     1      -4.273  -1.061  25.158  0.00  0.00    +0.161 C 
ENDBRANCH   3  12
ENDBRANCH   7   3
BRANCH   6   9
ATOM      9  C   UNL     1      -0.948   3.498  23.696  0.00  0.00    +0.063 C 
BRANCH   9  13
ATOM      2  O   UNL     1      -3.516   3.946  26.192  0.00  0.00    -0.359 OA
ATOM      4  N   UNL     1      -2.219   4.104  25.719  0.00  0.00    -0.083 NA
ATOM     13  C   UNL     1      -2.214   3.517  24.519  0.00  0.00    +0.084 A 
ATOM     18  C   UNL     1      -3.468   2.975  24.184  0.00  0.00    +0.071 A 
ATOM     19  C   UNL     1      -4.250   3.272  25.269  0.00  0.00    +0.143 A 
BRANCH  19  20
ATOM     20  C   UNL     1      -5.655   3.016  25.609  0.00  0.00    +0.023 C 
ATOM     21  C   UNL     1      -5.917   2.300  26.987  0.00  0.00    +0.019 C 
ATOM     22  C   UNL     1      -6.493   4.339  25.687  0.00  0.00    +0.019 C 
ATOM     23  C   UNL     1      -6.359   2.098  24.548  0.00  0.00    +0.019 C 
ENDBRANCH  19  20
ENDBRANCH   9  13
ENDBRANCH   6   9
TORSDOF 5
ENDMDL
MODEL 5
REMARK VINA RESULT:      -3.5      1.640      4.823
REMARK  Name = 56774055
REMARK  10 active torsions:
REMARK  status: ('A' for Active; 'I' for Inactive)
REMARK    1  A    between atoms: N_3  and  C_7
REMARK    2  A    between atoms: N_3  and  C_12
REMARK    3  A    between atoms: C_5  and  C_10
REMARK    4  A    between atoms: C_5  and  C_11
REMARK    5  A    between atoms: C_6  and  C_9
REMARK    6  A    between atoms: C_9  and  C_13
REMARK    7  A    between atoms: C_19  and  C_20
REMARK    8  A    between atoms: C_20  and  C_21
REMARK    9  A    between atoms: C_20  and  C_22
REMARK   10  A    between atoms: C_20  and  C_23
REMARK                            x       y       z     vdW  Elec       q    Type
REMARK                         _______ _______ _______ _____ _____    ______ ____
ROOT
ATOM      5  C   UNL     1      -3.474  -2.087  24.737  0.00  0.00    -0.016 C 
ATOM      6  C   UNL     1      -2.465  -1.695  23.639  0.00  0.00    +0.004 C 
ATOM      7  C   UNL     1      -4.402  -0.994  24.169  0.00  0.00    +0.060 C 
ATOM      8  C   UNL     1      -3.131  -0.303  23.631  0.00  0.00    +0.023 C 
ATOM     10  C   UNL     1      -2.950  -1.901  26.146  0.00  0.00    +0.013 C 
ATOM     11  C   UNL     1      -4.079  -3.475  24.609  0.00  0.00    +0.013 C 
ENDROOT
BRANCH   7   3
ATOM      3  N   UNL     1      -4.973  -0.172  25.240  0.00  0.00    -0.310 NA
ATOM     24  H   UNL     1      -4.419  -0.152  26.097  0.00  0.00    +0.122 HD
BRANCH   3  12
ATOM      1  O   UNL     1      -4.494   3.986  24.927  0.00  0.00    -0.380 OA
ATOM     12  C   UNL     1      -5.162   1.192  24.753  0.00  0.00    +0.058 C 
ATOM     14  C   UNL     1      -3.857   1.761  24.187  0.00  0.00    +0.047 C 
ATOM     15  C   UNL     1      -5.682   2.092  25.878  0.00  0.00    +0.047 C 
ATOM     16  C   UNL     1      -4.038   3.226  23.807  0.00  0.00    +0.161 C 
ATOM     17  C   UNL     1      -5.763   3.539  25.404  0.00  0.00    +0.161 C 
ENDBRANCH   3  12
ENDBRANCH   7   3
BRANCH   6   9
ATOM      9  C   UNL     1      -1.001  -1.688  24.019  0.00  0.00    +0.063 C 
BRANCH   9  13
ATOM      2  O   UNL     1       0.574   1.557  24.136  0.00  0.00    -0.359 OA
ATOM      4  N   UNL     1       0.401   0.292  23.587  0.00  0.00    -0.083 NA
ATOM     13  C   UNL     1      -0.546  -0.283  24.333  0.00  0.00    +0.084 A 
ATOM     18  C   UNL     1      -1.005   0.563  25.358  0.00  0.00    +0.071 A 
ATOM     19  C   UNL     1      -0.269   1.706  25.190  0.00  0.00    +0.143 A 
BRANCH  19  20
ATOM     20  C   UNL     1      -0.218   2.994  25.893  0.00  0.00    +0.023 C 
ATOM     21  C   UNL     1       0.837   3.110  27.056  0.00  0.00    +0.019 C 
ATOM     22  C   UNL     1       0.130   4.180  24.926  0.00  0.00    +0.019 C 
ATOM     23  C   UNL     1      -1.589   3.350  26.568  0.00  0.00    +0.019 C 
ENDBRANCH  19  20
ENDBRANCH   9  13
ENDBRANCH   6   9
TORSDOF 5
ENDMDL
MODEL 6
REMARK VINA RESULT:      -3.1      1.808      5.767
REMARK  Name = 56774055
REMARK  10 active torsions:
REMARK  status: ('A' for Active; 'I' for Inactive)
REMARK    1  A    between atoms: N_3  and  C_7
REMARK    2  A    between atoms: N_3  and  C_12
REMARK    3  A    between atoms: C_5  and  C_10
REMARK    4  A    between atoms: C_5  and  C_11
REMARK    5  A    between atoms: C_6  and  C_9
REMARK    6  A    between atoms: C_9  and  C_13
REMARK    7  A    between atoms: C_19  and  C_20
REMARK    8  A    between atoms: C_20  and  C_21
REMARK    9  A    between atoms: C_20  and  C_22
REMARK   10  A    between atoms: C_20  and  C_23
REMARK                            x       y       z     vdW  Elec       q    Type
REMARK                         _______ _______ _______ _____ _____    ______ ____
ROOT
ATOM      5  C   UNL     1      -1.843  -1.855  24.432  0.00  0.00    -0.016 C 
ATOM      6  C   UNL     1      -3.176  -1.625  25.173  0.00  0.00    +0.004 C 
ATOM      7  C   UNL     1      -1.134  -1.365  25.712  0.00  0.00    +0.060 C 
ATOM      8  C   UNL     1      -2.427  -0.590  26.039  0.00  0.00    +0.023 C 
ATOM     10  C   UNL     1      -1.687  -1.018  23.179  0.00  0.00    +0.013 C 
ATOM     11  C   UNL     1      -1.510  -3.302  24.110  0.00  0.00    +0.013 C 
ENDROOT
BRANCH   7   3
ATOM      3  N   UNL     1      -0.071  -0.406  25.396  0.00  0.00    -0.310 NA
ATOM     24  H   UNL     1       0.459  -0.627  24.553  0.00  0.00    +0.122 HD
BRANCH   3  12
ATOM      1  O   UNL     1      -0.260   3.767  24.990  0.00  0.00    -0.380 OA
ATOM     12  C   UNL     1      -0.649   0.929  25.271  0.00  0.00    +0.058 C 
ATOM     14  C   UNL     1      -0.258   1.576  23.939  0.00  0.00    +0.047 C 
ATOM     15  C   UNL     1      -0.200   1.815  26.436  0.00  0.00    +0.047 C 
ATOM     16  C   UNL     1      -0.756   3.016  23.882  0.00  0.00    +0.161 C 
ATOM     17  C   UNL     1      -0.702   3.242  26.242  0.00  0.00    +0.161 C 
ENDBRANCH   3  12
ENDBRANCH   7   3
BRANCH   6   9
ATOM      9  C   UNL     1      -4.324  -1.059  24.368  0.00  0.00    +0.063 C 
BRANCH   9  13
ATOM      2  O   UNL     1      -5.622   1.962  25.855  0.00  0.00    -0.359 OA
ATOM      4  N   UNL     1      -5.620   0.586  25.668  0.00  0.00    -0.083 NA
ATOM     13  C   UNL     1      -4.626   0.354  24.807  0.00  0.00    +0.084 A 
ATOM     18  C   UNL     1      -3.970   1.536  24.419  0.00  0.00    +0.071 A 
ATOM     19  C   UNL     1      -4.635   2.517  25.105  0.00  0.00    +0.143 A 
BRANCH  19  20
ATOM     20  C   UNL     1      -4.494   3.976  25.184  0.00  0.00    +0.023 C 
ATOM     21  C   UNL     1      -3.531   4.522  26.305  0.00  0.00    +0.019 C 
ATOM     22  C   UNL     1      -3.933   4.588  23.852  0.00  0.00    +0.019 C 
ATOM     23  C   UNL     1      -5.865   4.685  25.463  0.00  0.00    +0.019 C 
ENDBRANCH  19  20
ENDBRANCH   9  13
ENDBRANCH   6   9
TORSDOF 5
ENDMDL
MODEL 7
REMARK VINA RESULT:      -3.0      2.836      6.884
REMARK  Name = 56774055
REMARK  10 active torsions:
REMARK  status: ('A' for Active; 'I' for Inactive)
REMARK    1  A    between atoms: N_3  and  C_7
REMARK    2  A    between atoms: N_3  and  C_12
REMARK    3  A    between atoms: C_5  and  C_10
REMARK    4  A    between atoms: C_5  and  C_11
REMARK    5  A    between atoms: C_6  and  C_9
REMARK    6  A    between atoms: C_9  and  C_13
REMARK    7  A    between atoms: C_19  and  C_20
REMARK    8  A    between atoms: C_20  and  C_21
REMARK    9  A    between atoms: C_20  and  C_22
REMARK   10  A    between atoms: C_20  and  C_23
REMARK                            x       y       z     vdW  Elec       q    Type
REMARK                         _______ _______ _______ _____ _____    ______ ____
ROOT
ATOM      5  C   UNL     1      -0.367  -1.776  24.737  0.00  0.00    -0.016 C 
ATOM      6  C   UNL     1      -1.243  -0.808  25.559  0.00  0.00    +0.004 C 
ATOM      7  C   UNL     1       0.481  -0.551  24.339  0.00  0.00    +0.060 C 
ATOM      8  C   UNL     1      -0.775   0.307  24.600  0.00  0.00    +0.023 C 
ATOM     10  C   UNL     1      -1.118  -2.499  23.638  0.00  0.00    +0.013 C 
ATOM     11  C   UNL     1       0.431  -2.787  25.544  0.00  0.00    +0.013 C 
ENDROOT
BRANCH   7   3
ATOM      3  N   UNL     1       0.768  -0.549  22.901  0.00  0.00    -0.310 NA
ATOM     24  H   UNL     1       0.260   0.160  22.371  0.00  0.00    +0.122 HD
BRANCH   3  12
ATOM      1  O   UNL     1       4.760   0.438  23.743  0.00  0.00    -0.380 OA
ATOM     12  C   UNL     1       2.203  -0.370  22.697  0.00  0.00    +0.058 C 
ATOM     14  C   UNL     1       3.011  -1.247  23.658  0.00  0.00    +0.047 C 
ATOM     15  C   UNL     1       2.587   1.101  22.880  0.00  0.00    +0.047 C 
ATOM     16  C   UNL     1       4.500  -0.949  23.524  0.00  0.00    +0.161 C 
ATOM     17  C   UNL     1       4.100   1.270  22.788  0.00  0.00    +0.161 C 
ENDBRANCH   3  12
ENDBRANCH   7   3
BRANCH   6   9
ATOM      9  C   UNL     1      -2.734  -1.056  25.555  0.00  0.00    +0.063 C 
BRANCH   9  13
ATOM      2  O   UNL     1      -5.124   1.531  24.767  0.00  0.00    -0.359 OA
ATOM      4  N   UNL     1      -4.749   0.199  24.889  0.00  0.00    -0.083 NA
ATOM     13  C   UNL     1      -3.480   0.233  25.308  0.00  0.00    +0.084 A 
ATOM     18  C   UNL     1      -3.006   1.548  25.467  0.00  0.00    +0.071 A 
ATOM     19  C   UNL     1      -4.078   2.325  25.114  0.00  0.00    +0.143 A 
BRANCH  19  20
ATOM     20  C   UNL     1      -4.303   3.773  25.042  0.00  0.00    +0.023 C 
ATOM     21  C   UNL     1      -5.726   4.279  25.488  0.00  0.00    +0.019 C 
ATOM     22  C   UNL     1      -3.301   4.572  25.948  0.00  0.00    +0.019 C 
ATOM     23  C   UNL     1      -4.128   4.324  23.583  0.00  0.00    +0.019 C 
ENDBRANCH  19  20
ENDBRANCH   9  13
ENDBRANCH   6   9
TORSDOF 5
ENDMDL
MODEL 8
REMARK VINA RESULT:      -2.9      3.025      6.779
REMARK  Name = 56774055
REMARK  10 active torsions:
REMARK  status: ('A' for Active; 'I' for Inactive)
REMARK    1  A    between atoms: N_3  and  C_7
REMARK    2  A    between atoms: N_3  and  C_12
REMARK    3  A    between atoms: C_5  and  C_10
REMARK    4  A    between atoms: C_5  and  C_11
REMARK    5  A    between atoms: C_6  and  C_9
REMARK    6  A    between atoms: C_9  and  C_13
REMARK    7  A    between atoms: C_19  and  C_20
REMARK    8  A    between atoms: C_20  and  C_21
REMARK    9  A    between atoms: C_20  and  C_22
REMARK   10  A    between atoms: C_20  and  C_23
REMARK                            x       y       z     vdW  Elec       q    Type
REMARK                         _______ _______ _______ _____ _____    ______ ____
ROOT
ATOM      5  C   UNL     1      -0.360   0.894  24.000  0.00  0.00    -0.016 C 
ATOM      6  C   UNL     1       0.004   2.272  24.590  0.00  0.00    +0.004 C 
ATOM      7  C   UNL     1       1.155   0.611  23.925  0.00  0.00    +0.060 C 
ATOM      8  C   UNL     1       1.360   2.140  23.864  0.00  0.00    +0.023 C 
ATOM     10  C   UNL     1      -1.126   0.969  22.697  0.00  0.00    +0.013 C 
ATOM     11  C   UNL     1      -1.073  -0.058  24.945  0.00  0.00    +0.013 C 
ENDROOT
BRANCH   7   3
ATOM      3  N   UNL     1       1.523   0.030  22.630  0.00  0.00    -0.310 NA
ATOM     24  H   UNL     1       1.354   0.641  21.831  0.00  0.00    +0.122 HD
BRANCH   3  12
ATOM      1  O   UNL     1       5.433  -0.452  24.077  0.00  0.00    -0.380 OA
ATOM     12  C   UNL     1       2.931  -0.354  22.657  0.00  0.00    +0.058 C 
ATOM     14  C   UNL     1       3.205  -1.371  23.769  0.00  0.00    +0.047 C 
ATOM     15  C   UNL     1       3.817   0.881  22.847  0.00  0.00    +0.047 C 
ATOM     16  C   UNL     1       4.699  -1.659  23.870  0.00  0.00    +0.161 C 
ATOM     17  C   UNL     1       5.277   0.469  22.998  0.00  0.00    +0.161 C 
ENDBRANCH   3  12
ENDBRANCH   7   3
BRANCH   6   9
ATOM      9  C   UNL     1      -0.832   3.453  24.150  0.00  0.00    +0.063 C 
BRANCH   9  13
ATOM      2  O   UNL     1      -3.625   3.851  26.401  0.00  0.00    -0.359 OA
ATOM      4  N   UNL     1      -2.296   4.043  26.043  0.00  0.00    -0.083 NA
ATOM     13  C   UNL     1      -2.166   3.443  24.857  0.00  0.00    +0.084 A 
ATOM     18  C   UNL     1      -3.369   2.861  24.418  0.00  0.00    +0.071 A 
ATOM     19  C   UNL     1      -4.254   3.146  25.425  0.00  0.00    +0.143 A 
BRANCH  19  20
ATOM     20  C   UNL     1      -5.675   2.852  25.642  0.00  0.00    +0.023 C 
ATOM     21  C   UNL     1      -6.034   2.096  26.976  0.00  0.00    +0.019 C 
ATOM     22  C   UNL     1      -6.548   4.156  25.682  0.00  0.00    +0.019 C 
ATOM     23  C   UNL     1      -6.269   1.948  24.505  0.00  0.00    +0.019 C 
ENDBRANCH  19  20
ENDBRANCH   9  13
ENDBRANCH   6   9
TORSDOF 5
ENDMDL
MODEL 9
REMARK VINA RESULT:      -2.7      1.887      6.401
REMARK  Name = 56774055
REMARK  10 active torsions:
REMARK  status: ('A' for Active; 'I' for Inactive)
REMARK    1  A    between atoms: N_3  and  C_7
REMARK    2  A    between atoms: N_3  and  C_12
REMARK    3  A    between atoms: C_5  and  C_10
REMARK    4  A    between atoms: C_5  and  C_11
REMARK    5  A    between atoms: C_6  and  C_9
REMARK    6  A    between atoms: C_9  and  C_13
REMARK    7  A    between atoms: C_19  and  C_20
REMARK    8  A    between atoms: C_20  and  C_21
REMARK    9  A    between atoms: C_20  and  C_22
REMARK   10  A    between atoms: C_20  and  C_23
REMARK                            x       y       z     vdW  Elec       q    Type
REMARK                         _______ _______ _______ _____ _____    ______ ____
ROOT
ATOM      5  C   UNL     1      -3.259  -1.845  24.518  0.00  0.00    -0.016 C 
ATOM      6  C   UNL     1      -3.576  -0.891  25.688  0.00  0.00    +0.004 C 
ATOM      7  C   UNL     1      -1.767  -1.619  24.838  0.00  0.00    +0.060 C 
ATOM      8  C   UNL     1      -2.183  -0.268  25.457  0.00  0.00    +0.023 C 
ATOM     10  C   UNL     1      -3.772  -1.361  23.178  0.00  0.00    +0.013 C 
ATOM     11  C   UNL     1      -3.675  -3.292  24.718  0.00  0.00    +0.013 C 
ENDROOT
BRANCH   7   3
ATOM      3  N   UNL     1      -0.995  -1.365  23.617  0.00  0.00    -0.310 NA
ATOM     24  H   UNL     1      -1.529  -0.934  22.863  0.00  0.00    +0.122 HD
BRANCH   3  12
ATOM      1  O   UNL     1       1.825   1.726  23.280  0.00  0.00    -0.380 OA
ATOM     12  C   UNL     1       0.153  -0.523  23.940  0.00  0.00    +0.058 C 
ATOM     14  C   UNL     1      -0.278   0.924  24.196  0.00  0.00    +0.047 C 
ATOM     15  C   UNL     1       1.184  -0.570  22.808  0.00  0.00    +0.047 C 
ATOM     16  C   UNL     1       0.943   1.814  24.399  0.00  0.00    +0.161 C 
ATOM     17  C   UNL     1       2.325   0.402  23.088  0.00  0.00    +0.161 C 
ENDBRANCH   3  12
ENDBRANCH   7   3
BRANCH   6   9
ATOM      9  C   UNL     1      -4.731   0.066  25.504  0.00  0.00    +0.063 C 
BRANCH   9  13
ATOM      2  O   UNL     1      -3.955   3.155  23.807  0.00  0.00    -0.359 OA
ATOM      4  N   UNL     1      -4.579   1.916  23.882  0.00  0.00    -0.083 NA
ATOM     13  C   UNL     1      -4.226   1.422  25.072  0.00  0.00    +0.084 A 
ATOM     18  C   UNL     1      -3.389   2.297  25.786  0.00  0.00    +0.071 A 
ATOM     19  C   UNL     1      -3.249   3.371  24.947  0.00  0.00    +0.143 A 
BRANCH  19  20
ATOM     20  C   UNL     1      -2.522   4.643  25.037  0.00  0.00    +0.023 C 
ATOM     21  C   UNL     1      -0.951   4.548  25.033  0.00  0.00    +0.019 C 
ATOM     22  C   UNL     1      -2.861   5.602  23.842  0.00  0.00    +0.019 C 
ATOM     23  C   UNL     1      -2.866   5.425  26.353  0.00  0.00    +0.019 C 
ENDBRANCH  19  20
ENDBRANCH   9  13
ENDBRANCH   6   9
TORSDOF 5
ENDMDL
