MODEL 1
REMARK VINA RESULT:       1.3      0.000      0.000
REMARK  Name = 45784373
REMARK  11 active torsions:
REMARK  status: ('A' for Active; 'I' for Inactive)
REMARK    1  A    between atoms: O_1  and  C_10
REMARK    2  A    between atoms: O_4  and  C_26
REMARK    3  A    between atoms: O_4  and  C_29
REMARK    4  A    between atoms: N_5  and  C_14
REMARK    5  A    between atoms: N_6  and  C_23
REMARK    6  A    between atoms: C_7  and  C_17
REMARK    7  A    between atoms: C_9  and  C_19
REMARK    8  A    between atoms: C_12  and  C_18
REMARK    9  A    between atoms: C_18  and  C_20
REMARK   10  A    between atoms: C_18  and  C_21
REMARK   11  A    between atoms: C_22  and  C_26
REMARK                            x       y       z     vdW  Elec       q    Type
REMARK                         _______ _______ _______ _____ _____    ______ ____
ROOT
ATOM      7  C   UNL     1      -2.265  -0.760  25.348  0.00  0.00    -0.027 C 
ATOM      8  C   UNL     1      -2.505   0.212  24.145  0.00  0.00    +0.028 C 
ATOM      9  C   UNL     1      -1.141   0.716  23.553  0.00  0.00    +0.012 C 
ATOM     10  C   UNL     1      -3.526   1.326  24.515  0.00  0.00    +0.122 C 
ATOM     11  C   UNL     1      -3.621  -1.325  25.834  0.00  0.00    +0.007 C 
ATOM     12  C   UNL     1      -4.841   0.759  25.100  0.00  0.00    +0.029 C 
ATOM     13  C   UNL     1      -1.403  -1.952  24.870  0.00  0.00    +0.009 C 
ATOM     14  C   UNL     1      -0.252  -0.493  23.145  0.00  0.00    +0.076 C 
ATOM     15  C   UNL     1      -4.608  -0.237  26.235  0.00  0.00    +0.007 C 
ATOM     16  C   UNL     1      -0.077  -1.523  24.260  0.00  0.00    +0.023 C 
ATOM     17  C   UNL     1      -1.559  -0.065  26.541  0.00  0.00    +0.011 C 
ATOM     19  C   UNL     1      -1.303   1.654  22.345  0.00  0.00    +0.010 C 
ENDROOT
BRANCH  14   5
ATOM      3  O   UNL     1       0.909  -0.862  20.521  0.00  0.00    -0.272 OA
ATOM      5  N   UNL     1       1.059  -0.068  22.701  0.00  0.00    -0.309 N 
ATOM     22  C   UNL     1       1.526  -0.294  21.418  0.00  0.00    +0.251 C 
ATOM     35  H   UNL     1       1.679   0.356  23.386  0.00  0.00    +0.149 HD
BRANCH  22  26
ATOM     26  C   UNL     1       2.925   0.255  21.230  0.00  0.00    +0.324 C 
BRANCH  26   4
ATOM      4  O   UNL     1       3.383   0.868  22.417  0.00  0.00    -0.483 OA
BRANCH   4  29
ATOM     29  C   UNL     1       4.323   0.187  23.153  0.00  0.00    +0.121 A 
ATOM     30  C   UNL     1       4.113  -1.152  23.485  0.00  0.00    +0.045 A 
ATOM     31  C   UNL     1       5.486   0.834  23.568  0.00  0.00    +0.045 A 
ATOM     32  C   UNL     1       5.067  -1.843  24.232  0.00  0.00    +0.004 A 
ATOM     33  C   UNL     1       6.441   0.143  24.315  0.00  0.00    +0.004 A 
ATOM     34  C   UNL     1       6.230  -1.195  24.647  0.00  0.00    +0.000 A 
ENDBRANCH   4  29
ENDBRANCH  26   4
ENDBRANCH  22  26
ENDBRANCH  14   5
BRANCH  10   1
ATOM      1  O   UNL     1      -3.882   2.056  23.341  0.00  0.00    -0.391 OA
ATOM     36  H   UNL     1      -4.849   2.027  23.248  0.00  0.00    +0.210 HD
ENDBRANCH  10   1
BRANCH  12  18
ATOM     18  C   UNL     1      -5.779   1.874  25.578  0.00  0.00    +0.077 C 
ATOM     20  C   UNL     1      -6.967   2.002  24.632  0.00  0.00    +0.017 C 
BRANCH  18  21
ATOM      2  O   UNL     1      -5.473   4.261  25.309  0.00  0.00    -0.276 OA
ATOM      6  N   UNL     1      -3.755   3.022  26.253  0.00  0.00    -0.312 N 
ATOM     21  C   UNL     1      -5.010   3.187  25.688  0.00  0.00    +0.216 C 
ATOM     37  H   UNL     1      -3.459   2.101  26.562  0.00  0.00    +0.149 HD
BRANCH   6  23
ATOM     23  C   UNL     1      -2.842   4.119  26.459  0.00  0.00    +0.073 C 
ATOM     24  C   UNL     1      -1.458   3.637  26.879  0.00  0.00    +0.022 C 
ATOM     25  C   UNL     1      -2.558   4.866  25.162  0.00  0.00    +0.022 C 
ATOM     27  C   UNL     1      -0.751   3.276  25.573  0.00  0.00    +0.002 C 
ATOM     28  C   UNL     1      -1.485   4.033  24.466  0.00  0.00    +0.002 C 
ENDBRANCH   6  23
ENDBRANCH  18  21
ENDBRANCH  12  18
TORSDOF 8
ENDMDL
