MODEL 1
REMARK VINA RESULT:      -4.5      0.000      0.000
REMARK  Name = 38031212
REMARK  14 active torsions:
REMARK  status: ('A' for Active; 'I' for Inactive)
REMARK    1  A    between atoms: N_2  and  C_13
REMARK    2  A    between atoms: N_2  and  C_19
REMARK    3  A    between atoms: C_6  and  C_10
REMARK    4  A    between atoms: C_7  and  C_13
REMARK    5  A    between atoms: C_9  and  C_14
REMARK    6  A    between atoms: C_10  and  C_15
REMARK    7  A    between atoms: C_10  and  C_16
REMARK    8  A    between atoms: C_11  and  C_17
REMARK    9  A    between atoms: C_14  and  C_18
REMARK   10  A    between atoms: C_19  and  C_22
REMARK   11  A    between atoms: C_20  and  C_21
REMARK   12  A    between atoms: C_21  and  C_23
REMARK   13  A    between atoms: C_21  and  C_24
REMARK   14  A    between atoms: C_21  and  C_25
REMARK                            x       y       z     vdW  Elec       q    Type
REMARK                         _______ _______ _______ _____ _____    ______ ____
ROOT
ATOM      6  C   UNL     1      -1.251   0.527  24.611  0.00  0.00    +0.000 C 
ATOM      7  C   UNL     1      -0.376  -0.673  24.168  0.00  0.00    +0.029 C 
ATOM      8  C   UNL     1      -2.174   0.119  25.769  0.00  0.00    +0.012 C 
ATOM      9  C   UNL     1      -3.103  -1.049  25.389  0.00  0.00    +0.024 C 
ATOM     11  C   UNL     1      -2.349  -2.167  24.698  0.00  0.00    -0.073 C 
ATOM     12  C   UNL     1      -1.126  -1.984  24.171  0.00  0.00    -0.023 C 
ATOM     17  C   UNL     1      -3.015  -3.514  24.667  0.00  0.00    +0.039 C 
ENDROOT
BRANCH   6  10
ATOM     10  C   UNL     1      -0.397   1.730  25.027  0.00  0.00    -0.013 C 
ATOM     15  C   UNL     1      -0.761   2.954  24.193  0.00  0.00    +0.007 C 
ATOM     16  C   UNL     1      -0.573   2.018  26.515  0.00  0.00    +0.007 C 
ENDBRANCH   6  10
BRANCH   7  13
ATOM     13  C   UNL     1       0.229  -0.432  22.780  0.00  0.00    +0.089 C 
BRANCH  13   2
ATOM      2  N   UNL     1       1.326   0.518  22.855  0.00  0.00    -0.311 NA
ATOM     30  H   UNL     1       1.014   1.436  22.540  0.00  0.00    +0.122 HD
BRANCH   2  19
ATOM     19  C   UNL     1       2.451   0.086  22.035  0.00  0.00    +0.117 C 
BRANCH  19  22
ATOM      5  N   UNL     1       5.020  -1.627  24.226  0.00  0.00    -0.263 NA
ATOM     22  C   UNL     1       3.691  -0.139  22.860  0.00  0.00    -0.016 A 
ATOM     26  C   UNL     1       4.631   0.871  23.031  0.00  0.00    +0.008 A 
ATOM     27  C   UNL     1       3.930  -1.359  23.472  0.00  0.00    +0.115 A 
ATOM     28  C   UNL     1       5.765   0.633  23.800  0.00  0.00    +0.020 A 
ATOM     29  C   UNL     1       5.911  -0.620  24.371  0.00  0.00    +0.111 A 
ENDBRANCH  19  22
ENDBRANCH   2  19
ENDBRANCH  13   2
ENDBRANCH   7  13
BRANCH   9  14
ATOM     14  C   UNL     1      -4.276  -0.565  24.528  0.00  0.00    +0.105 C 
BRANCH  14  18
ATOM      1  O   UNL     1      -4.192   1.865  24.734  0.00  0.00    -0.424 OA
ATOM      3  N   UNL     1      -5.916   0.916  25.798  0.00  0.00    -0.112 NA
ATOM      4  N   UNL     1      -5.991   2.282  25.996  0.00  0.00    -0.112 NA
ATOM     18  C   UNL     1      -4.850   0.720  25.056  0.00  0.00    +0.218 A 
ATOM     20  C   UNL     1      -4.966   2.795  25.357  0.00  0.00    +0.223 A 
BRANCH  20  21
ATOM     21  C   UNL     1      -4.553   4.198  25.225  0.00  0.00    +0.040 C 
ATOM     23  C   UNL     1      -3.417   4.576  26.238  0.00  0.00    +0.020 C 
ATOM     24  C   UNL     1      -5.740   5.189  25.489  0.00  0.00    +0.020 C 
ATOM     25  C   UNL     1      -3.987   4.626  23.819  0.00  0.00    +0.020 C 
ENDBRANCH  20  21
ENDBRANCH  14  18
ENDBRANCH   9  14
TORSDOF 8
ENDMDL
MODEL 2
REMARK VINA RESULT:      -3.0      2.017      7.976
REMARK  Name = 38031212
REMARK  14 active torsions:
REMARK  status: ('A' for Active; 'I' for Inactive)
REMARK    1  A    between atoms: N_2  and  C_13
REMARK    2  A    between atoms: N_2  and  C_19
REMARK    3  A    between atoms: C_6  and  C_10
REMARK    4  A    between atoms: C_7  and  C_13
REMARK    5  A    between atoms: C_9  and  C_14
REMARK    6  A    between atoms: C_10  and  C_15
REMARK    7  A    between atoms: C_10  and  C_16
REMARK    8  A    between atoms: C_11  and  C_17
REMARK    9  A    between atoms: C_14  and  C_18
REMARK   10  A    between atoms: C_19  and  C_22
REMARK   11  A    between atoms: C_20  and  C_21
REMARK   12  A    between atoms: C_21  and  C_23
REMARK   13  A    between atoms: C_21  and  C_24
REMARK   14  A    between atoms: C_21  and  C_25
REMARK                            x       y       z     vdW  Elec       q    Type
REMARK                         _______ _______ _______ _____ _____    ______ ____
ROOT
ATOM      6  C   UNL     1      -2.175  -1.324  24.205  0.00  0.00    +0.000 C 
ATOM      7  C   UNL     1      -2.735  -0.031  24.850  0.00  0.00    +0.029 C 
ATOM      8  C   UNL     1      -0.701  -1.522  24.594  0.00  0.00    +0.012 C 
ATOM      9  C   UNL     1       0.180  -0.337  24.157  0.00  0.00    +0.024 C 
ATOM     11  C   UNL     1      -0.443   0.994  24.524  0.00  0.00    -0.073 C 
ATOM     12  C   UNL     1      -1.744   1.109  24.844  0.00  0.00    -0.023 C 
ATOM     17  C   UNL     1       0.473   2.185  24.559  0.00  0.00    +0.039 C 
ENDROOT
BRANCH   6  10
ATOM     10  C   UNL     1      -2.987  -2.559  24.608  0.00  0.00    -0.013 C 
ATOM     15  C   UNL     1      -3.289  -2.532  26.104  0.00  0.00    +0.007 C 
ATOM     16  C   UNL     1      -4.277  -2.636  23.798  0.00  0.00    +0.007 C 
ENDBRANCH   6  10
BRANCH   7  13
ATOM     13  C   UNL     1      -4.030   0.412  24.162  0.00  0.00    +0.089 C 
BRANCH  13   2
ATOM      2  N   UNL     1      -5.013   0.842  25.142  0.00  0.00    -0.311 NA
ATOM     30  H   UNL     1      -5.841   0.248  25.089  0.00  0.00    +0.122 HD
BRANCH   2  19
ATOM     19  C   UNL     1      -5.402   2.229  24.923  0.00  0.00    +0.117 C 
BRANCH  19  22
ATOM      5  N   UNL     1      -2.575   4.590  24.050  0.00  0.00    -0.263 NA
ATOM     22  C   UNL     1      -4.238   3.170  25.081  0.00  0.00    -0.016 A 
ATOM     26  C   UNL     1      -3.744   3.493  26.340  0.00  0.00    +0.008 A 
ATOM     27  C   UNL     1      -3.624   3.740  23.978  0.00  0.00    +0.115 A 
ATOM     28  C   UNL     1      -2.666   4.364  26.455  0.00  0.00    +0.020 A 
ATOM     29  C   UNL     1      -2.123   4.881  25.291  0.00  0.00    +0.111 A 
ENDBRANCH  19  22
ENDBRANCH   2  19
ENDBRANCH  13   2
ENDBRANCH   7  13
BRANCH   9  14
ATOM     14  C   UNL     1       0.490  -0.402  22.657  0.00  0.00    +0.105 C 
BRANCH  14  18
ATOM      1  O   UNL     1       2.821  -0.480  23.376  0.00  0.00    -0.424 OA
ATOM      3  N   UNL     1       2.526   0.346  21.318  0.00  0.00    -0.112 NA
ATOM      4  N   UNL     1       3.880   0.359  21.593  0.00  0.00    -0.112 NA
ATOM     18  C   UNL     1       1.947  -0.151  22.387  0.00  0.00    +0.218 A 
ATOM     20  C   UNL     1       4.006  -0.132  22.804  0.00  0.00    +0.223 A 
BRANCH  20  21
ATOM     21  C   UNL     1       5.218  -0.353  23.602  0.00  0.00    +0.040 C 
ATOM     23  C   UNL     1       5.201  -1.747  24.323  0.00  0.00    +0.020 C 
ATOM     24  C   UNL     1       5.393   0.731  24.722  0.00  0.00    +0.020 C 
ATOM     25  C   UNL     1       6.582  -0.332  22.815  0.00  0.00    +0.020 C 
ENDBRANCH  20  21
ENDBRANCH  14  18
ENDBRANCH   9  14
TORSDOF 8
ENDMDL
MODEL 3
REMARK VINA RESULT:      -2.0      2.246      6.883
REMARK  Name = 38031212
REMARK  14 active torsions:
REMARK  status: ('A' for Active; 'I' for Inactive)
REMARK    1  A    between atoms: N_2  and  C_13
REMARK    2  A    between atoms: N_2  and  C_19
REMARK    3  A    between atoms: C_6  and  C_10
REMARK    4  A    between atoms: C_7  and  C_13
REMARK    5  A    between atoms: C_9  and  C_14
REMARK    6  A    between atoms: C_10  and  C_15
REMARK    7  A    between atoms: C_10  and  C_16
REMARK    8  A    between atoms: C_11  and  C_17
REMARK    9  A    between atoms: C_14  and  C_18
REMARK   10  A    between atoms: C_19  and  C_22
REMARK   11  A    between atoms: C_20  and  C_21
REMARK   12  A    between atoms: C_21  and  C_23
REMARK   13  A    between atoms: C_21  and  C_24
REMARK   14  A    between atoms: C_21  and  C_25
REMARK                            x       y       z     vdW  Elec       q    Type
REMARK                         _______ _______ _______ _____ _____    ______ ____
ROOT
ATOM      6  C   UNL     1      -3.530   3.213  25.536  0.00  0.00    +0.000 C 
ATOM      7  C   UNL     1      -3.472   3.663  24.054  0.00  0.00    +0.029 C 
ATOM      8  C   UNL     1      -2.514   4.005  26.376  0.00  0.00    +0.012 C 
ATOM      9  C   UNL     1      -1.072   3.825  25.866  0.00  0.00    +0.024 C 
ATOM     11  C   UNL     1      -0.981   3.989  24.363  0.00  0.00    -0.073 C 
ATOM     12  C   UNL     1      -2.066   3.928  23.571  0.00  0.00    -0.023 C 
ATOM     17  C   UNL     1       0.381   4.272  23.794  0.00  0.00    +0.039 C 
ENDROOT
BRANCH   6  10
ATOM     10  C   UNL     1      -4.933   3.381  26.127  0.00  0.00    -0.013 C 
ATOM     15  C   UNL     1      -5.667   4.528  25.439  0.00  0.00    +0.007 C 
ATOM     16  C   UNL     1      -5.722   2.082  26.001  0.00  0.00    +0.007 C 
ENDBRANCH   6  10
BRANCH   7  13
ATOM     13  C   UNL     1      -4.142   2.632  23.139  0.00  0.00    +0.089 C 
BRANCH  13   2
ATOM      2  N   UNL     1      -3.538   1.322  23.310  0.00  0.00    -0.311 NA
ATOM     30  H   UNL     1      -2.973   1.089  22.494  0.00  0.00    +0.122 HD
BRANCH   2  19
ATOM     19  C   UNL     1      -4.555   0.295  23.499  0.00  0.00    +0.117 C 
BRANCH  19  22
ATOM      5  N   UNL     1      -3.572  -3.227  24.476  0.00  0.00    -0.263 NA
ATOM     22  C   UNL     1      -4.039  -0.861  24.314  0.00  0.00    -0.016 A 
ATOM     26  C   UNL     1      -3.568  -0.671  25.608  0.00  0.00    +0.008 A 
ATOM     27  C   UNL     1      -4.020  -2.147  23.798  0.00  0.00    +0.115 A 
ATOM     28  C   UNL     1      -3.099  -1.759  26.337  0.00  0.00    +0.020 A 
ATOM     29  C   UNL     1      -3.122  -3.004  25.732  0.00  0.00    +0.111 A 
ENDBRANCH  19  22
ENDBRANCH   2  19
ENDBRANCH  13   2
ENDBRANCH   7  13
BRANCH   9  14
ATOM     14  C   UNL     1      -0.495   2.474  26.306  0.00  0.00    +0.105 C 
BRANCH  14  18
ATOM      1  O   UNL     1       1.031   1.456  24.697  0.00  0.00    -0.424 OA
ATOM      3  N   UNL     1      -1.109   0.857  24.435  0.00  0.00    -0.112 NA
ATOM      4  N   UNL     1      -0.363   0.212  23.466  0.00  0.00    -0.112 NA
ATOM     18  C   UNL     1      -0.254   1.572  25.129  0.00  0.00    +0.218 A 
ATOM     20  C   UNL     1       0.879   0.591  23.657  0.00  0.00    +0.223 A 
BRANCH  20  21
ATOM     21  C   UNL     1       2.095   0.215  22.924  0.00  0.00    +0.040 C 
ATOM     23  C   UNL     1       3.094   1.417  22.787  0.00  0.00    +0.020 C 
ATOM     24  C   UNL     1       1.778  -0.276  21.469  0.00  0.00    +0.020 C 
ATOM     25  C   UNL     1       2.955  -0.944  23.553  0.00  0.00    +0.020 C 
ENDBRANCH  20  21
ENDBRANCH  14  18
ENDBRANCH   9  14
TORSDOF 8
ENDMDL
MODEL 4
REMARK VINA RESULT:      -1.9      1.536      4.265
REMARK  Name = 38031212
REMARK  14 active torsions:
REMARK  status: ('A' for Active; 'I' for Inactive)
REMARK    1  A    between atoms: N_2  and  C_13
REMARK    2  A    between atoms: N_2  and  C_19
REMARK    3  A    between atoms: C_6  and  C_10
REMARK    4  A    between atoms: C_7  and  C_13
REMARK    5  A    between atoms: C_9  and  C_14
REMARK    6  A    between atoms: C_10  and  C_15
REMARK    7  A    between atoms: C_10  and  C_16
REMARK    8  A    between atoms: C_11  and  C_17
REMARK    9  A    between atoms: C_14  and  C_18
REMARK   10  A    between atoms: C_19  and  C_22
REMARK   11  A    between atoms: C_20  and  C_21
REMARK   12  A    between atoms: C_21  and  C_23
REMARK   13  A    between atoms: C_21  and  C_24
REMARK   14  A    between atoms: C_21  and  C_25
REMARK                            x       y       z     vdW  Elec       q    Type
REMARK                         _______ _______ _______ _____ _____    ______ ____
ROOT
ATOM      6  C   UNL     1      -2.647   2.430  23.576  0.00  0.00    +0.000 C 
ATOM      7  C   UNL     1      -1.358   2.772  24.366  0.00  0.00    +0.029 C 
ATOM      8  C   UNL     1      -3.710   3.519  23.788  0.00  0.00    +0.012 C 
ATOM      9  C   UNL     1      -4.079   3.692  25.273  0.00  0.00    +0.024 C 
ATOM     11  C   UNL     1      -2.849   3.767  26.154  0.00  0.00    -0.073 C 
ATOM     12  C   UNL     1      -1.639   3.364  25.727  0.00  0.00    -0.023 C 
ATOM     17  C   UNL     1      -3.031   4.359  27.523  0.00  0.00    +0.039 C 
ENDROOT
BRANCH   6  10
ATOM     10  C   UNL     1      -2.369   2.261  22.079  0.00  0.00    -0.013 C 
ATOM     15  C   UNL     1      -2.340   0.782  21.707  0.00  0.00    +0.007 C 
ATOM     16  C   UNL     1      -3.415   3.006  21.256  0.00  0.00    +0.007 C 
ENDBRANCH   6  10
BRANCH   7  13
ATOM     13  C   UNL     1      -0.462   1.538  24.519  0.00  0.00    +0.089 C 
BRANCH  13   2
ATOM      2  N   UNL     1       0.788   1.718  23.802  0.00  0.00    -0.311 NA
ATOM     30  H   UNL     1       0.713   2.509  23.162  0.00  0.00    +0.122 HD
BRANCH   2  19
ATOM     19  C   UNL     1       1.137   0.521  23.046  0.00  0.00    +0.117 C 
BRANCH  19  22
ATOM      5  N   UNL     1       4.269  -1.475  23.779  0.00  0.00    -0.263 NA
ATOM     22  C   UNL     1       2.593   0.168  23.199  0.00  0.00    -0.016 A 
ATOM     26  C   UNL     1       3.589   1.097  22.921  0.00  0.00    +0.008 A 
ATOM     27  C   UNL     1       2.981  -1.094  23.620  0.00  0.00    +0.115 A 
ATOM     28  C   UNL     1       4.925   0.741  23.072  0.00  0.00    +0.020 A 
ATOM     29  C   UNL     1       5.209  -0.545  23.500  0.00  0.00    +0.111 A 
ENDBRANCH  19  22
ENDBRANCH   2  19
ENDBRANCH  13   2
ENDBRANCH   7  13
BRANCH   9  14
ATOM     14  C   UNL     1      -5.022   2.577  25.742  0.00  0.00    +0.105 C 
BRANCH  14  18
ATOM      1  O   UNL     1      -3.625   0.578  25.682  0.00  0.00    -0.424 OA
ATOM      3  N   UNL     1      -5.203   0.639  24.097  0.00  0.00    -0.112 NA
ATOM      4  N   UNL     1      -4.492  -0.537  23.947  0.00  0.00    -0.112 NA
ATOM     18  C   UNL     1      -4.661   1.257  25.121  0.00  0.00    +0.218 A 
ATOM     20  C   UNL     1      -3.583  -0.531  24.893  0.00  0.00    +0.223 A 
BRANCH  20  21
ATOM     21  C   UNL     1      -2.556  -1.532  25.210  0.00  0.00    +0.040 C 
ATOM     23  C   UNL     1      -3.183  -2.915  25.602  0.00  0.00    +0.020 C 
ATOM     24  C   UNL     1      -1.653  -1.090  26.414  0.00  0.00    +0.020 C 
ATOM     25  C   UNL     1      -1.538  -1.871  24.058  0.00  0.00    +0.020 C 
ENDBRANCH  20  21
ENDBRANCH  14  18
ENDBRANCH   9  14
TORSDOF 8
ENDMDL
MODEL 5
REMARK VINA RESULT:      -1.9      2.036      7.246
REMARK  Name = 38031212
REMARK  14 active torsions:
REMARK  status: ('A' for Active; 'I' for Inactive)
REMARK    1  A    between atoms: N_2  and  C_13
REMARK    2  A    between atoms: N_2  and  C_19
REMARK    3  A    between atoms: C_6  and  C_10
REMARK    4  A    between atoms: C_7  and  C_13
REMARK    5  A    between atoms: C_9  and  C_14
REMARK    6  A    between atoms: C_10  and  C_15
REMARK    7  A    between atoms: C_10  and  C_16
REMARK    8  A    between atoms: C_11  and  C_17
REMARK    9  A    between atoms: C_14  and  C_18
REMARK   10  A    between atoms: C_19  and  C_22
REMARK   11  A    between atoms: C_20  and  C_21
REMARK   12  A    between atoms: C_21  and  C_23
REMARK   13  A    between atoms: C_21  and  C_24
REMARK   14  A    between atoms: C_21  and  C_25
REMARK                            x       y       z     vdW  Elec       q    Type
REMARK                         _______ _______ _______ _____ _____    ______ ____
ROOT
ATOM      6  C   UNL     1      -2.166   3.209  25.001  0.00  0.00    +0.000 C 
ATOM      7  C   UNL     1      -3.494   3.216  24.203  0.00  0.00    +0.029 C 
ATOM      8  C   UNL     1      -0.966   3.297  24.045  0.00  0.00    +0.012 C 
ATOM      9  C   UNL     1      -0.936   2.133  23.038  0.00  0.00    +0.024 C 
ATOM     11  C   UNL     1      -2.292   1.904  22.402  0.00  0.00    -0.073 C 
ATOM     12  C   UNL     1      -3.423   2.407  22.929  0.00  0.00    -0.023 C 
ATOM     17  C   UNL     1      -2.315   1.120  21.120  0.00  0.00    +0.039 C 
ENDROOT
BRANCH   6  10
ATOM     10  C   UNL     1      -2.107   4.355  26.016  0.00  0.00    -0.013 C 
ATOM     15  C   UNL     1      -1.838   5.679  25.307  0.00  0.00    +0.007 C 
ATOM     16  C   UNL     1      -3.402   4.424  26.818  0.00  0.00    +0.007 C 
ENDBRANCH   6  10
BRANCH   7  13
ATOM     13  C   UNL     1      -4.658   2.712  25.064  0.00  0.00    +0.089 C 
BRANCH  13   2
ATOM      2  N   UNL     1      -5.025   1.357  24.691  0.00  0.00    -0.311 NA
ATOM     30  H   UNL     1      -6.024   1.307  24.495  0.00  0.00    +0.122 HD
BRANCH   2  19
ATOM     19  C   UNL     1      -4.695   0.413  25.752  0.00  0.00    +0.117 C 
BRANCH  19  22
ATOM      5  N   UNL     1      -1.607  -1.748  25.403  0.00  0.00    -0.263 NA
ATOM     22  C   UNL     1      -3.767  -0.669  25.270  0.00  0.00    -0.016 A 
ATOM     26  C   UNL     1      -4.164  -1.569  24.287  0.00  0.00    +0.008 A 
ATOM     27  C   UNL     1      -2.490  -0.800  25.792  0.00  0.00    +0.115 A 
ATOM     28  C   UNL     1      -3.284  -2.558  23.862  0.00  0.00    +0.020 A 
ATOM     29  C   UNL     1      -2.029  -2.604  24.445  0.00  0.00    +0.111 A 
ENDBRANCH  19  22
ENDBRANCH   2  19
ENDBRANCH  13   2
ENDBRANCH   7  13
BRANCH   9  14
ATOM     14  C   UNL     1      -0.414   0.849  23.693  0.00  0.00    +0.105 C 
BRANCH  14  18
ATOM      1  O   UNL     1       1.991   0.437  23.719  0.00  0.00    -0.424 OA
ATOM      3  N   UNL     1       0.980  -0.162  21.815  0.00  0.00    -0.112 NA
ATOM      4  N   UNL     1       2.327  -0.449  21.693  0.00  0.00    -0.112 NA
ATOM     18  C   UNL     1       0.831   0.353  23.013  0.00  0.00    +0.218 A 
ATOM     20  C   UNL     1       2.877  -0.083  22.827  0.00  0.00    +0.223 A 
BRANCH  20  21
ATOM     21  C   UNL     1       4.280  -0.160  23.253  0.00  0.00    +0.040 C 
ATOM     23  C   UNL     1       5.271  -0.012  22.046  0.00  0.00    +0.020 C 
ATOM     24  C   UNL     1       4.612  -1.529  23.944  0.00  0.00    +0.020 C 
ATOM     25  C   UNL     1       4.752   0.929  24.288  0.00  0.00    +0.020 C 
ENDBRANCH  20  21
ENDBRANCH  14  18
ENDBRANCH   9  14
TORSDOF 8
ENDMDL
MODEL 6
REMARK VINA RESULT:      -1.9      2.409      6.781
REMARK  Name = 38031212
REMARK  14 active torsions:
REMARK  status: ('A' for Active; 'I' for Inactive)
REMARK    1  A    between atoms: N_2  and  C_13
REMARK    2  A    between atoms: N_2  and  C_19
REMARK    3  A    between atoms: C_6  and  C_10
REMARK    4  A    between atoms: C_7  and  C_13
REMARK    5  A    between atoms: C_9  and  C_14
REMARK    6  A    between atoms: C_10  and  C_15
REMARK    7  A    between atoms: C_10  and  C_16
REMARK    8  A    between atoms: C_11  and  C_17
REMARK    9  A    between atoms: C_14  and  C_18
REMARK   10  A    between atoms: C_19  and  C_22
REMARK   11  A    between atoms: C_20  and  C_21
REMARK   12  A    between atoms: C_21  and  C_23
REMARK   13  A    between atoms: C_21  and  C_24
REMARK   14  A    between atoms: C_21  and  C_25
REMARK                            x       y       z     vdW  Elec       q    Type
REMARK                         _______ _______ _______ _____ _____    ______ ____
ROOT
ATOM      6  C   UNL     1      -4.294   3.206  25.298  0.00  0.00    +0.000 C 
ATOM      7  C   UNL     1      -3.884   3.755  23.908  0.00  0.00    +0.029 C 
ATOM      8  C   UNL     1      -3.788   4.135  26.412  0.00  0.00    +0.012 C 
ATOM      9  C   UNL     1      -2.257   4.298  26.384  0.00  0.00    +0.024 C 
ATOM     11  C   UNL     1      -1.746   4.578  24.985  0.00  0.00    -0.073 C 
ATOM     12  C   UNL     1      -2.493   4.342  23.891  0.00  0.00    -0.023 C 
ATOM     17  C   UNL     1      -0.373   5.179  24.873  0.00  0.00    +0.039 C 
ENDROOT
BRANCH   6  10
ATOM     10  C   UNL     1      -5.812   3.034  25.416  0.00  0.00    -0.013 C 
ATOM     15  C   UNL     1      -6.147   1.984  26.472  0.00  0.00    +0.007 C 
ATOM     16  C   UNL     1      -6.475   4.366  25.748  0.00  0.00    +0.007 C 
ENDBRANCH   6  10
BRANCH   7  13
ATOM     13  C   UNL     1      -3.995   2.670  22.831  0.00  0.00    +0.089 C 
BRANCH  13   2
ATOM      2  N   UNL     1      -3.465   1.408  23.317  0.00  0.00    -0.311 NA
ATOM     30  H   UNL     1      -2.797   1.028  22.646  0.00  0.00    +0.122 HD
BRANCH   2  19
ATOM     19  C   UNL     1      -4.532   0.438  23.533  0.00  0.00    +0.117 C 
BRANCH  19  22
ATOM      5  N   UNL     1      -3.650  -3.129  24.440  0.00  0.00    -0.263 NA
ATOM     22  C   UNL     1      -4.057  -0.749  24.328  0.00  0.00    -0.016 A 
ATOM     26  C   UNL     1      -3.603  -0.602  25.634  0.00  0.00    +0.008 A 
ATOM     27  C   UNL     1      -4.060  -2.022  23.781  0.00  0.00    +0.115 A 
ATOM     28  C   UNL     1      -3.172  -1.718  26.344  0.00  0.00    +0.020 A 
ATOM     29  C   UNL     1      -3.215  -2.947  25.708  0.00  0.00    +0.111 A 
ENDBRANCH  19  22
ENDBRANCH   2  19
ENDBRANCH  13   2
ENDBRANCH   7  13
BRANCH   9  14
ATOM     14  C   UNL     1      -1.560   3.073  26.987  0.00  0.00    +0.105 C 
BRANCH  14  18
ATOM      1  O   UNL     1      -1.005   1.468  25.236  0.00  0.00    -0.424 OA
ATOM      3  N   UNL     1       0.694   2.797  25.829  0.00  0.00    -0.112 NA
ATOM      4  N   UNL     1       1.144   1.945  24.838  0.00  0.00    -0.112 NA
ATOM     18  C   UNL     1      -0.565   2.481  26.028  0.00  0.00    +0.218 A 
ATOM     20  C   UNL     1       0.120   1.188  24.522  0.00  0.00    +0.223 A 
BRANCH  20  21
ATOM     21  C   UNL     1       0.024   0.112  23.527  0.00  0.00    +0.040 C 
ATOM     23  C   UNL     1      -1.064   0.413  22.437  0.00  0.00    +0.020 C 
ATOM     24  C   UNL     1      -0.362  -1.261  24.180  0.00  0.00    +0.020 C 
ATOM     25  C   UNL     1       1.332  -0.195  22.706  0.00  0.00    +0.020 C 
ENDBRANCH  20  21
ENDBRANCH  14  18
ENDBRANCH   9  14
TORSDOF 8
ENDMDL
MODEL 7
REMARK VINA RESULT:      -1.1      2.189      4.704
REMARK  Name = 38031212
REMARK  14 active torsions:
REMARK  status: ('A' for Active; 'I' for Inactive)
REMARK    1  A    between atoms: N_2  and  C_13
REMARK    2  A    between atoms: N_2  and  C_19
REMARK    3  A    between atoms: C_6  and  C_10
REMARK    4  A    between atoms: C_7  and  C_13
REMARK    5  A    between atoms: C_9  and  C_14
REMARK    6  A    between atoms: C_10  and  C_15
REMARK    7  A    between atoms: C_10  and  C_16
REMARK    8  A    between atoms: C_11  and  C_17
REMARK    9  A    between atoms: C_14  and  C_18
REMARK   10  A    between atoms: C_19  and  C_22
REMARK   11  A    between atoms: C_20  and  C_21
REMARK   12  A    between atoms: C_21  and  C_23
REMARK   13  A    between atoms: C_21  and  C_24
REMARK   14  A    between atoms: C_21  and  C_25
REMARK                            x       y       z     vdW  Elec       q    Type
REMARK                         _______ _______ _______ _____ _____    ______ ____
ROOT
ATOM      6  C   UNL     1      -1.927   4.005  24.770  0.00  0.00    +0.000 C 
ATOM      7  C   UNL     1      -2.045   3.355  26.172  0.00  0.00    +0.029 C 
ATOM      8  C   UNL     1      -3.212   4.774  24.426  0.00  0.00    +0.012 C 
ATOM      9  C   UNL     1      -4.456   3.866  24.441  0.00  0.00    +0.024 C 
ATOM     11  C   UNL     1      -4.501   2.993  25.678  0.00  0.00    -0.073 C 
ATOM     12  C   UNL     1      -3.417   2.787  26.447  0.00  0.00    -0.023 C 
ATOM     17  C   UNL     1      -5.833   2.396  26.037  0.00  0.00    +0.039 C 
ENDROOT
BRANCH   6  10
ATOM     10  C   UNL     1      -0.720   4.943  24.678  0.00  0.00    -0.013 C 
ATOM     15  C   UNL     1      -0.047   4.812  23.314  0.00  0.00    +0.007 C 
ATOM     16  C   UNL     1      -1.146   6.385  24.934  0.00  0.00    +0.007 C 
ENDBRANCH   6  10
BRANCH   7  13
ATOM     13  C   UNL     1      -0.990   2.260  26.363  0.00  0.00    +0.089 C 
BRANCH  13   2
ATOM      2  N   UNL     1      -0.533   1.756  25.079  0.00  0.00    -0.311 NA
ATOM     30  H   UNL     1      -0.749   0.763  24.997  0.00  0.00    +0.122 HD
BRANCH   2  19
ATOM     19  C   UNL     1       0.903   1.950  24.919  0.00  0.00    +0.117 C 
BRANCH  19  22
ATOM      5  N   UNL     1       3.301   0.650  22.295  0.00  0.00    -0.263 NA
ATOM     22  C   UNL     1       1.453   1.143  23.773  0.00  0.00    -0.016 A 
ATOM     26  C   UNL     1       0.677   0.180  23.138  0.00  0.00    +0.008 A 
ATOM     27  C   UNL     1       2.747   1.338  23.319  0.00  0.00    +0.115 A 
ATOM     28  C   UNL     1       1.213  -0.549  22.081  0.00  0.00    +0.020 A 
ATOM     29  C   UNL     1       2.517  -0.278  21.701  0.00  0.00    +0.111 A 
ENDBRANCH  19  22
ENDBRANCH   2  19
ENDBRANCH  13   2
ENDBRANCH   7  13
BRANCH   9  14
ATOM     14  C   UNL     1      -4.536   3.017  23.166  0.00  0.00    +0.105 C 
BRANCH  14  18
ATOM      1  O   UNL     1      -4.069   0.768  23.988  0.00  0.00    -0.424 OA
ATOM      3  N   UNL     1      -2.453   1.625  22.700  0.00  0.00    -0.112 NA
ATOM      4  N   UNL     1      -2.060   0.359  23.092  0.00  0.00    -0.112 NA
ATOM     18  C   UNL     1      -3.630   1.821  23.247  0.00  0.00    +0.218 A 
ATOM     20  C   UNL     1      -3.033  -0.103  23.841  0.00  0.00    +0.223 A 
BRANCH  20  21
ATOM     21  C   UNL     1      -3.155  -1.399  24.521  0.00  0.00    +0.040 C 
ATOM     23  C   UNL     1      -4.276  -2.294  23.886  0.00  0.00    +0.020 C 
ATOM     24  C   UNL     1      -3.515  -1.237  26.039  0.00  0.00    +0.020 C 
ATOM     25  C   UNL     1      -1.871  -2.311  24.515  0.00  0.00    +0.020 C 
ENDBRANCH  20  21
ENDBRANCH  14  18
ENDBRANCH   9  14
TORSDOF 8
ENDMDL
MODEL 8
REMARK VINA RESULT:      -0.5      3.053      5.676
REMARK  Name = 38031212
REMARK  14 active torsions:
REMARK  status: ('A' for Active; 'I' for Inactive)
REMARK    1  A    between atoms: N_2  and  C_13
REMARK    2  A    between atoms: N_2  and  C_19
REMARK    3  A    between atoms: C_6  and  C_10
REMARK    4  A    between atoms: C_7  and  C_13
REMARK    5  A    between atoms: C_9  and  C_14
REMARK    6  A    between atoms: C_10  and  C_15
REMARK    7  A    between atoms: C_10  and  C_16
REMARK    8  A    between atoms: C_11  and  C_17
REMARK    9  A    between atoms: C_14  and  C_18
REMARK   10  A    between atoms: C_19  and  C_22
REMARK   11  A    between atoms: C_20  and  C_21
REMARK   12  A    between atoms: C_21  and  C_23
REMARK   13  A    between atoms: C_21  and  C_24
REMARK   14  A    between atoms: C_21  and  C_25
REMARK                            x       y       z     vdW  Elec       q    Type
REMARK                         _______ _______ _______ _____ _____    ______ ____
ROOT
ATOM      6  C   UNL     1      -2.720   2.644  23.998  0.00  0.00    +0.000 C 
ATOM      7  C   UNL     1      -2.653   4.088  24.556  0.00  0.00    +0.029 C 
ATOM      8  C   UNL     1      -4.130   2.341  23.465  0.00  0.00    +0.012 C 
ATOM      9  C   UNL     1      -5.210   2.496  24.552  0.00  0.00    +0.024 C 
ATOM     11  C   UNL     1      -5.044   3.784  25.331  0.00  0.00    -0.073 C 
ATOM     12  C   UNL     1      -3.899   4.489  25.310  0.00  0.00    -0.023 C 
ATOM     17  C   UNL     1      -6.240   4.269  26.101  0.00  0.00    +0.039 C 
ENDROOT
BRANCH   6  10
ATOM     10  C   UNL     1      -1.686   2.413  22.891  0.00  0.00    -0.013 C 
ATOM     15  C   UNL     1      -0.542   1.543  23.406  0.00  0.00    +0.007 C 
ATOM     16  C   UNL     1      -2.344   1.775  21.672  0.00  0.00    +0.007 C 
ENDBRANCH   6  10
BRANCH   7  13
ATOM     13  C   UNL     1      -1.427   4.274  25.457  0.00  0.00    +0.089 C 
BRANCH  13   2
ATOM      2  N   UNL     1      -1.267   3.138  26.349  0.00  0.00    -0.311 NA
ATOM     30  H   UNL     1      -1.425   3.427  27.314  0.00  0.00    +0.122 HD
BRANCH   2  19
ATOM     19  C   UNL     1       0.067   2.562  26.232  0.00  0.00    +0.117 C 
BRANCH  19  22
ATOM      5  N   UNL     1       2.895   2.972  28.716  0.00  0.00    -0.263 NA
ATOM     22  C   UNL     1       0.814   2.610  27.539  0.00  0.00    -0.016 A 
ATOM     26  C   UNL     1       0.169   2.350  28.743  0.00  0.00    +0.008 A 
ATOM     27  C   UNL     1       2.165   2.914  27.579  0.00  0.00    +0.115 A 
ATOM     28  C   UNL     1       0.886   2.401  29.934  0.00  0.00    +0.020 A 
ATOM     29  C   UNL     1       2.234   2.713  29.867  0.00  0.00    +0.111 A 
ENDBRANCH  19  22
ENDBRANCH   2  19
ENDBRANCH  13   2
ENDBRANCH   7  13
BRANCH   9  14
ATOM     14  C   UNL     1      -5.225   1.284  25.491  0.00  0.00    +0.105 C 
BRANCH  14  18
ATOM      1  O   UNL     1      -3.139   0.021  25.403  0.00  0.00    -0.424 OA
ATOM      3  N   UNL     1      -4.741  -0.762  24.052  0.00  0.00    -0.112 NA
ATOM      4  N   UNL     1      -3.625  -1.565  23.902  0.00  0.00    -0.112 NA
ATOM     18  C   UNL     1      -4.410   0.149  24.937  0.00  0.00    +0.218 A 
ATOM     20  C   UNL     1      -2.716  -1.071  24.709  0.00  0.00    +0.223 A 
BRANCH  20  21
ATOM     21  C   UNL     1      -1.343  -1.527  24.961  0.00  0.00    +0.040 C 
ATOM     23  C   UNL     1      -1.249  -3.090  25.054  0.00  0.00    +0.020 C 
ATOM     24  C   UNL     1      -0.772  -0.961  26.308  0.00  0.00    +0.020 C 
ATOM     25  C   UNL     1      -0.270  -1.130  23.880  0.00  0.00    +0.020 C 
ENDBRANCH  20  21
ENDBRANCH  14  18
ENDBRANCH   9  14
TORSDOF 8
ENDMDL
