MODEL 1
REMARK VINA RESULT:       2.1      0.000      0.000
REMARK  Name = 40778211
REMARK  10 active torsions:
REMARK  status: ('A' for Active; 'I' for Inactive)
REMARK    1  A    between atoms: O_3  and  C_12
REMARK    2  A    between atoms: O_4  and  C_13
REMARK    3  A    between atoms: O_6  and  C_24
REMARK    4  A    between atoms: O_6  and  C_32
REMARK    5  A    between atoms: N_9  and  C_22
REMARK    6  A    between atoms: N_10  and  C_16
REMARK    7  A    between atoms: C_11  and  C_15
REMARK    8  A    between atoms: C_14  and  C_16
REMARK    9  A    between atoms: C_15  and  C_17
REMARK   10  A    between atoms: C_23  and  C_26
REMARK                            x       y       z     vdW  Elec       q    Type
REMARK                         _______ _______ _______ _____ _____    ______ ____
ROOT
ATOM      2  O   UNL     1      -0.729   4.541  24.536  0.00  0.00    -0.366 OA
ATOM     11  C   UNL     1      -1.890   4.761  25.371  0.00  0.00    +0.159 C 
ATOM     12  C   UNL     1      -1.993   3.549  26.291  0.00  0.00    +0.175 C 
ATOM     13  C   UNL     1      -1.358   2.460  25.451  0.00  0.00    +0.176 C 
ATOM     14  C   UNL     1      -0.223   3.216  24.780  0.00  0.00    +0.167 C 
ENDROOT
BRANCH  12   3
ATOM      3  O   UNL     1      -1.202   3.805  27.451  0.00  0.00    -0.387 OA
ATOM     36  H   UNL     1      -1.786   4.198  28.121  0.00  0.00    +0.210 HD
ENDBRANCH  12   3
BRANCH  13   4
ATOM      4  O   UNL     1      -0.889   1.368  26.213  0.00  0.00    -0.387 OA
ATOM     37  H   UNL     1      -1.253   1.462  27.111  0.00  0.00    +0.210 HD
ENDBRANCH  13   4
BRANCH  11  15
ATOM     15  C   UNL     1      -3.097   4.919  24.457  0.00  0.00    +0.130 C 
BRANCH  15  17
ATOM      5  O   UNL     1      -5.157   4.579  25.586  0.00  0.00    -0.276 OA
ATOM      8  N   UNL     1      -4.157   2.700  24.652  0.00  0.00    -0.298 N 
ATOM      9  N   UNL     1      -3.987  -0.165  24.277  0.00  0.00    -0.324 N 
ATOM     17  C   UNL     1      -4.234   4.061  24.955  0.00  0.00    +0.218 C 
ATOM     18  C   UNL     1      -3.059   2.087  23.903  0.00  0.00    +0.126 C 
ATOM     19  C   UNL     1      -5.216   1.802  25.106  0.00  0.00    +0.126 C 
ATOM     20  C   UNL     1      -3.448   0.751  23.269  0.00  0.00    +0.124 C 
ATOM     21  C   UNL     1      -4.680   0.409  25.435  0.00  0.00    +0.124 C 
BRANCH   9  22
ATOM     22  C   UNL     1      -3.880  -1.546  24.126  0.00  0.00    +0.072 A 
ATOM     24  C   UNL     1      -2.794  -2.236  24.662  0.00  0.00    +0.141 A 
ATOM     25  C   UNL     1      -4.872  -2.237  23.431  0.00  0.00    +0.027 A 
ATOM     27  C   UNL     1      -2.700  -3.619  24.503  0.00  0.00    +0.047 A 
ATOM     28  C   UNL     1      -4.778  -3.619  23.272  0.00  0.00    +0.002 A 
ATOM     29  C   UNL     1      -3.691  -4.311  23.808  0.00  0.00    +0.004 A 
BRANCH  24   6
ATOM      6  O   UNL     1      -1.813  -1.579  25.343  0.00  0.00    -0.493 OA
ATOM     32  C   UNL     1      -0.467  -1.832  24.944  0.00  0.00    +0.277 C 
ENDBRANCH  24   6
ENDBRANCH   9  22
ENDBRANCH  15  17
ENDBRANCH  11  15
BRANCH  14  16
ATOM     16  C   UNL     1       0.224   2.592  23.470  0.00  0.00    +0.138 C 
BRANCH  16  10
ATOM      7  O   UNL     1       1.058   0.086  22.345  0.00  0.00    -0.270 OA
ATOM     10  N   UNL     1       1.515   1.983  23.601  0.00  0.00    -0.309 N 
ATOM     23  C   UNL     1       1.834   0.760  23.018  0.00  0.00    +0.244 C 
ATOM     38  H   UNL     1       2.222   2.513  24.099  0.00  0.00    +0.149 HD
BRANCH  23  26
ATOM      1  F   UNL     1       4.888  -2.863  24.118  0.00  0.00    -0.205 F 
ATOM     26  C   UNL     1       3.207   0.251  23.268  0.00  0.00    +0.039 A 
ATOM     30  C   UNL     1       3.407  -1.093  23.582  0.00  0.00    +0.051 A 
ATOM     31  C   UNL     1       4.298   1.118  23.190  0.00  0.00    +0.013 A 
ATOM     33  C   UNL     1       4.696  -1.571  23.816  0.00  0.00    +0.124 A 
ATOM     34  C   UNL     1       5.587   0.641  23.425  0.00  0.00    +0.004 A 
ATOM     35  C   UNL     1       5.787  -0.704  23.738  0.00  0.00    +0.038 A 
ENDBRANCH  23  26
ENDBRANCH  16  10
ENDBRANCH  14  16
TORSDOF 9
ENDMDL
MODEL 2
REMARK VINA RESULT:       2.2     13.907     15.889
REMARK  Name = 40778211
REMARK  10 active torsions:
REMARK  status: ('A' for Active; 'I' for Inactive)
REMARK    1  A    between atoms: O_3  and  C_12
REMARK    2  A    between atoms: O_4  and  C_13
REMARK    3  A    between atoms: O_6  and  C_24
REMARK    4  A    between atoms: O_6  and  C_32
REMARK    5  A    between atoms: N_9  and  C_22
REMARK    6  A    between atoms: N_10  and  C_16
REMARK    7  A    between atoms: C_11  and  C_15
REMARK    8  A    between atoms: C_14  and  C_16
REMARK    9  A    between atoms: C_15  and  C_17
REMARK   10  A    between atoms: C_23  and  C_26
REMARK                            x       y       z     vdW  Elec       q    Type
REMARK                         _______ _______ _______ _____ _____    ______ ____
ROOT
ATOM      2  O   UNL     1      -2.203  -8.848  10.742  0.00  0.00    -0.366 OA
ATOM     11  C   UNL     1      -3.277  -9.623  11.324  0.00  0.00    +0.159 C 
ATOM     12  C   UNL     1      -2.670 -10.385  12.497  0.00  0.00    +0.175 C 
ATOM     13  C   UNL     1      -1.229 -10.545  12.058  0.00  0.00    +0.176 C 
ATOM     14  C   UNL     1      -0.966  -9.210  11.383  0.00  0.00    +0.167 C 
ENDROOT
BRANCH  12   3
ATOM      3  O   UNL     1      -2.746  -9.551  13.652  0.00  0.00    -0.387 OA
ATOM     36  H   UNL     1      -3.648  -9.190  13.691  0.00  0.00    +0.210 HD
ENDBRANCH  12   3
BRANCH  13   4
ATOM      4  O   UNL     1      -0.341 -10.780  13.130  0.00  0.00    -0.387 OA
ATOM     37  H   UNL     1       0.533 -10.969  12.748  0.00  0.00    +0.210 HD
ENDBRANCH  13   4
BRANCH  11  15
ATOM     15  C   UNL     1      -3.828 -10.540  10.239  0.00  0.00    +0.130 C 
BRANCH  15  17
ATOM      5  O   UNL     1      -5.805 -10.223   8.965  0.00  0.00    -0.276 OA
ATOM      8  N   UNL     1      -6.048 -10.253  11.276  0.00  0.00    -0.298 N 
ATOM      9  N   UNL     1      -7.630  -9.868  13.668  0.00  0.00    -0.324 N 
ATOM     17  C   UNL     1      -5.314 -10.323  10.090  0.00  0.00    +0.218 C 
ATOM     18  C   UNL     1      -5.462 -10.372  12.612  0.00  0.00    +0.126 C 
ATOM     19  C   UNL     1      -7.491 -10.037  11.216  0.00  0.00    +0.126 C 
ATOM     20  C   UNL     1      -6.485 -10.781  13.673  0.00  0.00    +0.124 C 
ATOM     21  C   UNL     1      -7.996  -9.221  12.405  0.00  0.00    +0.124 C 
BRANCH   9  22
ATOM     22  C   UNL     1      -8.378  -9.647  14.823  0.00  0.00    +0.072 A 
ATOM     24  C   UNL     1      -7.765  -9.635  16.075  0.00  0.00    +0.141 A 
ATOM     25  C   UNL     1      -9.753  -9.434  14.718  0.00  0.00    +0.027 A 
ATOM     27  C   UNL     1      -8.526  -9.411  17.222  0.00  0.00    +0.047 A 
ATOM     28  C   UNL     1     -10.513  -9.210  15.865  0.00  0.00    +0.002 A 
ATOM     29  C   UNL     1      -9.900  -9.199  17.118  0.00  0.00    +0.004 A 
BRANCH  24   6
ATOM      6  O   UNL     1      -6.423  -9.842  16.199  0.00  0.00    -0.493 OA
ATOM     32  C   UNL     1      -5.968 -10.421  17.421  0.00  0.00    +0.277 C 
ENDBRANCH  24   6
ENDBRANCH   9  22
ENDBRANCH  15  17
ENDBRANCH  11  15
BRANCH  14  16
ATOM     16  C   UNL     1       0.145  -9.266  10.350  0.00  0.00    +0.138 C 
BRANCH  16  10
ATOM      7  O   UNL     1       0.241  -7.100  12.232  0.00  0.00    -0.270 OA
ATOM     10  N   UNL     1       1.319  -8.589  10.815  0.00  0.00    -0.309 N 
ATOM     23  C   UNL     1       1.273  -7.544  11.734  0.00  0.00    +0.244 C 
ATOM     38  H   UNL     1       2.212  -8.942  10.485  0.00  0.00    +0.149 HD
BRANCH  23  26
ATOM      1  F   UNL     1       6.064  -7.884  12.501  0.00  0.00    -0.205 F 
ATOM     26  C   UNL     1       2.576  -6.929  12.096  0.00  0.00    +0.039 A 
ATOM     30  C   UNL     1       3.731  -7.710  12.130  0.00  0.00    +0.051 A 
ATOM     31  C   UNL     1       2.645  -5.570  12.403  0.00  0.00    +0.013 A 
ATOM     33  C   UNL     1       4.954  -7.133  12.469  0.00  0.00    +0.124 A 
ATOM     34  C   UNL     1       3.868  -4.992  12.744  0.00  0.00    +0.004 A 
ATOM     35  C   UNL     1       5.023  -5.774  12.776  0.00  0.00    +0.038 A 
ENDBRANCH  23  26
ENDBRANCH  16  10
ENDBRANCH  14  16
TORSDOF 9
ENDMDL
MODEL 3
REMARK VINA RESULT:       3.3      1.956      5.733
REMARK  Name = 40778211
REMARK  10 active torsions:
REMARK  status: ('A' for Active; 'I' for Inactive)
REMARK    1  A    between atoms: O_3  and  C_12
REMARK    2  A    between atoms: O_4  and  C_13
REMARK    3  A    between atoms: O_6  and  C_24
REMARK    4  A    between atoms: O_6  and  C_32
REMARK    5  A    between atoms: N_9  and  C_22
REMARK    6  A    between atoms: N_10  and  C_16
REMARK    7  A    between atoms: C_11  and  C_15
REMARK    8  A    between atoms: C_14  and  C_16
REMARK    9  A    between atoms: C_15  and  C_17
REMARK   10  A    between atoms: C_23  and  C_26
REMARK                            x       y       z     vdW  Elec       q    Type
REMARK                         _______ _______ _______ _____ _____    ______ ____
ROOT
ATOM      2  O   UNL     1      -5.477   3.469  25.882  0.00  0.00    -0.366 OA
ATOM     11  C   UNL     1      -4.501   4.414  25.384  0.00  0.00    +0.159 C 
ATOM     12  C   UNL     1      -4.058   3.896  24.020  0.00  0.00    +0.175 C 
ATOM     13  C   UNL     1      -4.255   2.402  24.171  0.00  0.00    +0.176 C 
ATOM     14  C   UNL     1      -5.534   2.344  24.987  0.00  0.00    +0.167 C 
ENDROOT
BRANCH  12   3
ATOM      3  O   UNL     1      -4.953   4.417  23.038  0.00  0.00    -0.387 OA
ATOM     36  H   UNL     1      -4.903   3.836  22.260  0.00  0.00    +0.210 HD
ENDBRANCH  12   3
BRANCH  13   4
ATOM      4  O   UNL     1      -4.383   1.728  22.937  0.00  0.00    -0.387 OA
ATOM     37  H   UNL     1      -3.543   1.267  22.768  0.00  0.00    +0.210 HD
ENDBRANCH  13   4
BRANCH  11  15
ATOM     15  C   UNL     1      -3.363   4.481  26.394  0.00  0.00    +0.130 C 
BRANCH  15  17
ATOM      5  O   UNL     1      -1.984   6.253  25.623  0.00  0.00    -0.276 OA
ATOM      8  N   UNL     1      -1.193   4.094  25.286  0.00  0.00    -0.298 N 
ATOM      9  N   UNL     1       0.693   2.232  24.121  0.00  0.00    -0.324 N 
ATOM     17  C   UNL     1      -2.123   5.033  25.733  0.00  0.00    +0.218 C 
ATOM     18  C   UNL     1      -1.361   2.645  25.418  0.00  0.00    +0.126 C 
ATOM     19  C   UNL     1       0.030   4.548  24.629  0.00  0.00    +0.126 C 
ATOM     20  C   UNL     1      -0.036   1.885  25.343  0.00  0.00    +0.124 C 
ATOM     21  C   UNL     1       0.498   3.570  23.553  0.00  0.00    +0.124 C 
BRANCH   9  22
ATOM     22  C   UNL     1       1.576   1.331  23.530  0.00  0.00    +0.072 A 
ATOM     24  C   UNL     1       1.126   0.095  23.068  0.00  0.00    +0.141 A 
ATOM     25  C   UNL     1       2.921   1.676  23.401  0.00  0.00    +0.027 A 
ATOM     27  C   UNL     1       2.021  -0.797  22.478  0.00  0.00    +0.047 A 
ATOM     28  C   UNL     1       3.817   0.785  22.811  0.00  0.00    +0.002 A 
ATOM     29  C   UNL     1       3.367  -0.453  22.349  0.00  0.00    +0.004 A 
BRANCH  24   6
ATOM      6  O   UNL     1      -0.184  -0.262  23.185  0.00  0.00    -0.493 OA
ATOM     32  C   UNL     1      -1.130   0.482  22.418  0.00  0.00    +0.277 C 
ENDBRANCH  24   6
ENDBRANCH   9  22
ENDBRANCH  15  17
ENDBRANCH  11  15
BRANCH  14  16
ATOM     16  C   UNL     1      -5.680   1.063  25.789  0.00  0.00    +0.138 C 
BRANCH  16  10
ATOM      7  O   UNL     1      -5.166  -1.059  23.925  0.00  0.00    -0.270 OA
ATOM     10  N   UNL     1      -4.493   0.264  25.709  0.00  0.00    -0.309 N 
ATOM     23  C   UNL     1      -4.328  -0.749  24.768  0.00  0.00    +0.244 C 
ATOM     38  H   UNL     1      -3.737   0.502  26.342  0.00  0.00    +0.149 HD
BRANCH  23  26
ATOM      1  F   UNL     1       0.149  -1.379  26.560  0.00  0.00    -0.205 F 
ATOM     26  C   UNL     1      -3.050  -1.504  24.831  0.00  0.00    +0.039 A 
ATOM     30  C   UNL     1      -2.030  -1.079  25.682  0.00  0.00    +0.051 A 
ATOM     31  C   UNL     1      -2.870  -2.639  24.040  0.00  0.00    +0.013 A 
ATOM     33  C   UNL     1      -0.831  -1.788  25.743  0.00  0.00    +0.124 A 
ATOM     34  C   UNL     1      -1.671  -3.348  24.099  0.00  0.00    +0.004 A 
ATOM     35  C   UNL     1      -0.650  -2.923  24.951  0.00  0.00    +0.038 A 
ENDBRANCH  23  26
ENDBRANCH  16  10
ENDBRANCH  14  16
TORSDOF 9
ENDMDL
MODEL 4
REMARK VINA RESULT:       3.8      2.226      6.060
REMARK  Name = 40778211
REMARK  10 active torsions:
REMARK  status: ('A' for Active; 'I' for Inactive)
REMARK    1  A    between atoms: O_3  and  C_12
REMARK    2  A    between atoms: O_4  and  C_13
REMARK    3  A    between atoms: O_6  and  C_24
REMARK    4  A    between atoms: O_6  and  C_32
REMARK    5  A    between atoms: N_9  and  C_22
REMARK    6  A    between atoms: N_10  and  C_16
REMARK    7  A    between atoms: C_11  and  C_15
REMARK    8  A    between atoms: C_14  and  C_16
REMARK    9  A    between atoms: C_15  and  C_17
REMARK   10  A    between atoms: C_23  and  C_26
REMARK                            x       y       z     vdW  Elec       q    Type
REMARK                         _______ _______ _______ _____ _____    ______ ____
ROOT
ATOM      2  O   UNL     1      -4.679   2.769  25.291  0.00  0.00    -0.366 OA
ATOM     11  C   UNL     1      -4.742   3.813  26.289  0.00  0.00    +0.159 C 
ATOM     12  C   UNL     1      -4.996   5.114  25.534  0.00  0.00    +0.175 C 
ATOM     13  C   UNL     1      -4.356   4.830  24.192  0.00  0.00    +0.176 C 
ATOM     14  C   UNL     1      -4.719   3.369  23.984  0.00  0.00    +0.167 C 
ENDROOT
BRANCH  12   3
ATOM      3  O   UNL     1      -6.407   5.271  25.387  0.00  0.00    -0.387 OA
ATOM     36  H   UNL     1      -6.788   5.333  26.280  0.00  0.00    +0.210 HD
ENDBRANCH  12   3
BRANCH  13   4
ATOM      4  O   UNL     1      -4.847   5.650  23.154  0.00  0.00    -0.387 OA
ATOM     37  H   UNL     1      -5.153   5.065  22.439  0.00  0.00    +0.210 HD
ENDBRANCH  13   4
BRANCH  11  15
ATOM     15  C   UNL     1      -3.421   3.813  27.047  0.00  0.00    +0.130 C 
BRANCH  15  17
ATOM      5  O   UNL     1      -2.397   5.742  26.116  0.00  0.00    -0.276 OA
ATOM      8  N   UNL     1      -1.387   3.701  25.657  0.00  0.00    -0.298 N 
ATOM      9  N   UNL     1       0.552   2.089  24.234  0.00  0.00    -0.324 N 
ATOM     17  C   UNL     1      -2.362   4.516  26.233  0.00  0.00    +0.218 C 
ATOM     18  C   UNL     1      -1.347   2.243  25.797  0.00  0.00    +0.126 C 
ATOM     19  C   UNL     1      -0.331   4.304  24.848  0.00  0.00    +0.126 C 
ATOM     20  C   UNL     1       0.044   1.661  25.540  0.00  0.00    +0.124 C 
ATOM     21  C   UNL     1       0.112   3.386  23.710  0.00  0.00    +0.124 C 
BRANCH   9  22
ATOM     22  C   UNL     1       1.457   1.305  23.523  0.00  0.00    +0.072 A 
ATOM     24  C   UNL     1       1.080   0.058  23.027  0.00  0.00    +0.141 A 
ATOM     25  C   UNL     1       2.751   1.779  23.308  0.00  0.00    +0.027 A 
ATOM     27  C   UNL     1       1.997  -0.716  22.316  0.00  0.00    +0.047 A 
ATOM     28  C   UNL     1       3.668   1.005  22.596  0.00  0.00    +0.002 A 
ATOM     29  C   UNL     1       3.292  -0.243  22.101  0.00  0.00    +0.004 A 
BRANCH  24   6
ATOM      6  O   UNL     1      -0.179  -0.424  23.228  0.00  0.00    -0.493 OA
ATOM     32  C   UNL     1      -0.339  -1.412  24.245  0.00  0.00    +0.277 C 
ENDBRANCH  24   6
ENDBRANCH   9  22
ENDBRANCH  15  17
ENDBRANCH  11  15
BRANCH  14  16
ATOM     16  C   UNL     1      -3.764   2.638  23.057  0.00  0.00    +0.138 C 
BRANCH  16  10
ATOM      7  O   UNL     1      -5.593   0.867  24.383  0.00  0.00    -0.270 OA
ATOM     10  N   UNL     1      -3.478   1.320  23.542  0.00  0.00    -0.309 N 
ATOM     23  C   UNL     1      -4.431   0.527  24.177  0.00  0.00    +0.244 C 
ATOM     38  H   UNL     1      -2.550   0.955  23.356  0.00  0.00    +0.149 HD
BRANCH  23  26
ATOM      1  F   UNL     1      -3.733  -4.229  23.437  0.00  0.00    -0.205 F 
ATOM     26  C   UNL     1      -3.971  -0.805  24.646  0.00  0.00    +0.039 A 
ATOM     30  C   UNL     1      -4.070  -1.913  23.805  0.00  0.00    +0.051 A 
ATOM     31  C   UNL     1      -3.439  -0.948  25.928  0.00  0.00    +0.013 A 
ATOM     33  C   UNL     1      -3.637  -3.164  24.245  0.00  0.00    +0.124 A 
ATOM     34  C   UNL     1      -3.007  -2.198  26.368  0.00  0.00    +0.004 A 
ATOM     35  C   UNL     1      -3.105  -3.307  25.527  0.00  0.00    +0.038 A 
ENDBRANCH  23  26
ENDBRANCH  16  10
ENDBRANCH  14  16
TORSDOF 9
ENDMDL
MODEL 5
REMARK VINA RESULT:       4.5      2.478      6.573
REMARK  Name = 40778211
REMARK  10 active torsions:
REMARK  status: ('A' for Active; 'I' for Inactive)
REMARK    1  A    between atoms: O_3  and  C_12
REMARK    2  A    between atoms: O_4  and  C_13
REMARK    3  A    between atoms: O_6  and  C_24
REMARK    4  A    between atoms: O_6  and  C_32
REMARK    5  A    between atoms: N_9  and  C_22
REMARK    6  A    between atoms: N_10  and  C_16
REMARK    7  A    between atoms: C_11  and  C_15
REMARK    8  A    between atoms: C_14  and  C_16
REMARK    9  A    between atoms: C_15  and  C_17
REMARK   10  A    between atoms: C_23  and  C_26
REMARK                            x       y       z     vdW  Elec       q    Type
REMARK                         _______ _______ _______ _____ _____    ______ ____
ROOT
ATOM      2  O   UNL     1       3.027  -1.026  22.741  0.00  0.00    -0.366 OA
ATOM     11  C   UNL     1       3.440   0.341  22.513  0.00  0.00    +0.159 C 
ATOM     12  C   UNL     1       4.715   0.545  23.324  0.00  0.00    +0.175 C 
ATOM     13  C   UNL     1       4.525  -0.434  24.463  0.00  0.00    +0.176 C 
ATOM     14  C   UNL     1       3.871  -1.607  23.751  0.00  0.00    +0.167 C 
ENDROOT
BRANCH  12   3
ATOM      3  O   UNL     1       5.822   0.153  22.512  0.00  0.00    -0.387 OA
ATOM     36  H   UNL     1       6.630   0.288  23.037  0.00  0.00    +0.210 HD
ENDBRANCH  12   3
BRANCH  13   4
ATOM      4  O   UNL     1       5.735  -0.804  25.090  0.00  0.00    -0.387 OA
ATOM     37  H   UNL     1       5.563  -1.615  25.599  0.00  0.00    +0.210 HD
ENDBRANCH  13   4
BRANCH  11  15
ATOM     15  C   UNL     1       2.302   1.251  22.955  0.00  0.00    +0.130 C 
BRANCH  15  17
ATOM      5  O   UNL     1       0.945  -0.262  21.727  0.00  0.00    -0.276 OA
ATOM      8  N   UNL     1      -0.151   1.165  23.197  0.00  0.00    -0.298 N 
ATOM      9  N   UNL     1      -2.572   2.322  24.283  0.00  0.00    -0.324 N 
ATOM     17  C   UNL     1       0.977   0.643  22.562  0.00  0.00    +0.218 C 
ATOM     18  C   UNL     1      -0.111   2.241  24.190  0.00  0.00    +0.126 C 
ATOM     19  C   UNL     1      -1.472   0.635  22.866  0.00  0.00    +0.126 C 
ATOM     20  C   UNL     1      -1.350   2.265  25.087  0.00  0.00    +0.124 C 
ATOM     21  C   UNL     1      -2.555   1.709  22.951  0.00  0.00    +0.124 C 
BRANCH   9  22
ATOM     22  C   UNL     1      -3.734   2.908  24.781  0.00  0.00    +0.072 A 
ATOM     24  C   UNL     1      -3.872   4.295  24.810  0.00  0.00    +0.141 A 
ATOM     25  C   UNL     1      -4.764   2.094  25.251  0.00  0.00    +0.027 A 
ATOM     27  C   UNL     1      -5.041   4.869  25.311  0.00  0.00    +0.047 A 
ATOM     28  C   UNL     1      -5.933   2.668  25.751  0.00  0.00    +0.002 A 
ATOM     29  C   UNL     1      -6.072   4.055  25.781  0.00  0.00    +0.004 A 
BRANCH  24   6
ATOM      6  O   UNL     1      -2.877   5.108  24.357  0.00  0.00    -0.493 OA
ATOM     32  C   UNL     1      -1.848   5.451  25.284  0.00  0.00    +0.277 C 
ENDBRANCH  24   6
ENDBRANCH   9  22
ENDBRANCH  15  17
ENDBRANCH  11  15
BRANCH  14  16
ATOM     16  C   UNL     1       3.038  -2.481  24.671  0.00  0.00    +0.138 C 
BRANCH  16  10
ATOM      7  O   UNL     1       0.802  -3.889  25.793  0.00  0.00    -0.270 OA
ATOM     10  N   UNL     1       1.684  -2.018  24.741  0.00  0.00    -0.309 N 
ATOM     23  C   UNL     1       0.658  -2.771  25.306  0.00  0.00    +0.244 C 
ATOM     38  H   UNL     1       1.505  -1.077  24.406  0.00  0.00    +0.149 HD
BRANCH  23  26
ATOM      1  F   UNL     1      -3.890  -2.597  23.590  0.00  0.00    -0.205 F 
ATOM     26  C   UNL     1      -0.696  -2.161  25.279  0.00  0.00    +0.039 A 
ATOM     30  C   UNL     1      -1.676  -2.675  24.431  0.00  0.00    +0.051 A 
ATOM     31  C   UNL     1      -0.988  -1.072  26.101  0.00  0.00    +0.013 A 
ATOM     33  C   UNL     1      -2.948  -2.103  24.405  0.00  0.00    +0.124 A 
ATOM     34  C   UNL     1      -2.259  -0.498  26.075  0.00  0.00    +0.004 A 
ATOM     35  C   UNL     1      -3.239  -1.014  25.227  0.00  0.00    +0.038 A 
ENDBRANCH  23  26
ENDBRANCH  16  10
ENDBRANCH  14  16
TORSDOF 9
ENDMDL
MODEL 6
REMARK VINA RESULT:       4.7      1.773      2.353
REMARK  Name = 40778211
REMARK  10 active torsions:
REMARK  status: ('A' for Active; 'I' for Inactive)
REMARK    1  A    between atoms: O_3  and  C_12
REMARK    2  A    between atoms: O_4  and  C_13
REMARK    3  A    between atoms: O_6  and  C_24
REMARK    4  A    between atoms: O_6  and  C_32
REMARK    5  A    between atoms: N_9  and  C_22
REMARK    6  A    between atoms: N_10  and  C_16
REMARK    7  A    between atoms: C_11  and  C_15
REMARK    8  A    between atoms: C_14  and  C_16
REMARK    9  A    between atoms: C_15  and  C_17
REMARK   10  A    between atoms: C_23  and  C_26
REMARK                            x       y       z     vdW  Elec       q    Type
REMARK                         _______ _______ _______ _____ _____    ______ ____
ROOT
ATOM      2  O   UNL     1      -2.471   5.956  25.518  0.00  0.00    -0.366 OA
ATOM     11  C   UNL     1      -3.658   5.343  26.070  0.00  0.00    +0.159 C 
ATOM     12  C   UNL     1      -3.222   3.998  26.641  0.00  0.00    +0.175 C 
ATOM     13  C   UNL     1      -2.039   3.651  25.761  0.00  0.00    +0.176 C 
ATOM     14  C   UNL     1      -1.388   5.011  25.575  0.00  0.00    +0.167 C 
ENDROOT
BRANCH  12   3
ATOM      3  O   UNL     1      -2.794   4.207  27.987  0.00  0.00    -0.387 OA
ATOM     36  H   UNL     1      -3.539   4.599  28.472  0.00  0.00    +0.210 HD
ENDBRANCH  12   3
BRANCH  13   4
ATOM      4  O   UNL     1      -1.159   2.718  26.350  0.00  0.00    -0.387 OA
ATOM     37  H   UNL     1      -0.290   2.828  25.926  0.00  0.00    +0.210 HD
ENDBRANCH  13   4
BRANCH  11  15
ATOM     15  C   UNL     1      -4.678   5.210  24.948  0.00  0.00    +0.130 C 
BRANCH  15  17
ATOM      5  O   UNL     1      -6.726   4.315  25.748  0.00  0.00    -0.276 OA
ATOM      8  N   UNL     1      -5.176   2.795  24.919  0.00  0.00    -0.298 N 
ATOM      9  N   UNL     1      -4.257   0.084  24.490  0.00  0.00    -0.324 N 
ATOM     17  C   UNL     1      -5.626   4.075  25.247  0.00  0.00    +0.218 C 
ATOM     18  C   UNL     1      -3.869   2.511  24.324  0.00  0.00    +0.126 C 
ATOM     19  C   UNL     1      -6.033   1.641  25.185  0.00  0.00    +0.126 C 
ATOM     20  C   UNL     1      -3.827   1.164  23.600  0.00  0.00    +0.124 C 
ATOM     21  C   UNL     1      -5.221   0.399  25.549  0.00  0.00    +0.124 C 
BRANCH   9  22
ATOM     22  C   UNL     1      -3.793  -1.219  24.316  0.00  0.00    +0.072 A 
ATOM     24  C   UNL     1      -2.628  -1.648  24.950  0.00  0.00    +0.141 A 
ATOM     25  C   UNL     1      -4.507  -2.096  23.500  0.00  0.00    +0.027 A 
ATOM     27  C   UNL     1      -2.176  -2.954  24.767  0.00  0.00    +0.047 A 
ATOM     28  C   UNL     1      -4.055  -3.403  23.318  0.00  0.00    +0.002 A 
ATOM     29  C   UNL     1      -2.889  -3.832  23.951  0.00  0.00    +0.004 A 
BRANCH  24   6
ATOM      6  O   UNL     1      -1.915  -0.806  25.750  0.00  0.00    -0.493 OA
ATOM     32  C   UNL     1      -0.596  -1.215  26.109  0.00  0.00    +0.277 C 
ENDBRANCH  24   6
ENDBRANCH   9  22
ENDBRANCH  15  17
ENDBRANCH  11  15
BRANCH  14  16
ATOM     16  C   UNL     1      -0.555   5.112  24.310  0.00  0.00    +0.138 C 
BRANCH  16  10
ATOM      7  O   UNL     1       1.035   3.081  25.570  0.00  0.00    -0.270 OA
ATOM     10  N   UNL     1      -0.252   3.814  23.783  0.00  0.00    -0.309 N 
ATOM     23  C   UNL     1       0.531   2.887  24.467  0.00  0.00    +0.244 C 
ATOM     38  H   UNL     1      -0.683   3.567  22.898  0.00  0.00    +0.149 HD
BRANCH  23  26
ATOM      1  F   UNL     1       3.562  -0.418  22.584  0.00  0.00    -0.205 F 
ATOM     26  C   UNL     1       0.775   1.596  23.774  0.00  0.00    +0.039 A 
ATOM     30  C   UNL     1       2.079   1.187  23.499  0.00  0.00    +0.051 A 
ATOM     31  C   UNL     1      -0.302   0.791  23.399  0.00  0.00    +0.013 A 
ATOM     33  C   UNL     1       2.308  -0.026  22.849  0.00  0.00    +0.124 A 
ATOM     34  C   UNL     1      -0.073  -0.421  22.749  0.00  0.00    +0.004 A 
ATOM     35  C   UNL     1       1.232  -0.830  22.474  0.00  0.00    +0.038 A 
ENDBRANCH  23  26
ENDBRANCH  16  10
ENDBRANCH  14  16
TORSDOF 9
ENDMDL
MODEL 7
REMARK VINA RESULT:       5.0      1.906      6.406
REMARK  Name = 40778211
REMARK  10 active torsions:
REMARK  status: ('A' for Active; 'I' for Inactive)
REMARK    1  A    between atoms: O_3  and  C_12
REMARK    2  A    between atoms: O_4  and  C_13
REMARK    3  A    between atoms: O_6  and  C_24
REMARK    4  A    between atoms: O_6  and  C_32
REMARK    5  A    between atoms: N_9  and  C_22
REMARK    6  A    between atoms: N_10  and  C_16
REMARK    7  A    between atoms: C_11  and  C_15
REMARK    8  A    between atoms: C_14  and  C_16
REMARK    9  A    between atoms: C_15  and  C_17
REMARK   10  A    between atoms: C_23  and  C_26
REMARK                            x       y       z     vdW  Elec       q    Type
REMARK                         _______ _______ _______ _____ _____    ______ ____
ROOT
ATOM      2  O   UNL     1      -3.630   2.320  25.508  0.00  0.00    -0.366 OA
ATOM     11  C   UNL     1      -2.863   3.544  25.430  0.00  0.00    +0.159 C 
ATOM     12  C   UNL     1      -3.826   4.677  25.768  0.00  0.00    +0.175 C 
ATOM     13  C   UNL     1      -5.153   4.110  25.311  0.00  0.00    +0.176 C 
ATOM     14  C   UNL     1      -5.016   2.651  25.712  0.00  0.00    +0.167 C 
ENDROOT
BRANCH  12   3
ATOM      3  O   UNL     1      -3.822   4.851  27.185  0.00  0.00    -0.387 OA
ATOM     36  H   UNL     1      -4.336   5.653  27.381  0.00  0.00    +0.210 HD
ENDBRANCH  12   3
BRANCH  13   4
ATOM      4  O   UNL     1      -6.265   4.725  25.927  0.00  0.00    -0.387 OA
ATOM     37  H   UNL     1      -6.395   4.295  26.790  0.00  0.00    +0.210 HD
ENDBRANCH  13   4
BRANCH  11  15
ATOM     15  C   UNL     1      -2.293   3.647  24.022  0.00  0.00    +0.130 C 
BRANCH  15  17
ATOM      5  O   UNL     1      -3.141   1.679  23.000  0.00  0.00    -0.276 OA
ATOM      8  N   UNL     1      -0.852   1.747  23.393  0.00  0.00    -0.298 N 
ATOM      9  N   UNL     1       1.749   0.479  23.482  0.00  0.00    -0.324 N 
ATOM     17  C   UNL     1      -2.146   2.269  23.425  0.00  0.00    +0.218 C 
ATOM     18  C   UNL     1       0.330   2.450  23.899  0.00  0.00    +0.126 C 
ATOM     19  C   UNL     1      -0.627   0.415  22.838  0.00  0.00    +0.126 C 
ATOM     20  C   UNL     1       1.634   1.927  23.295  0.00  0.00    +0.124 C 
ATOM     21  C   UNL     1       0.516  -0.312  23.544  0.00  0.00    +0.124 C 
BRANCH   9  22
ATOM     22  C   UNL     1       2.995  -0.139  23.563  0.00  0.00    +0.072 A 
ATOM     24  C   UNL     1       4.165   0.594  23.370  0.00  0.00    +0.141 A 
ATOM     25  C   UNL     1       3.065  -1.504  23.842  0.00  0.00    +0.027 A 
ATOM     27  C   UNL     1       5.406  -0.037  23.454  0.00  0.00    +0.047 A 
ATOM     28  C   UNL     1       4.306  -2.135  23.927  0.00  0.00    +0.002 A 
ATOM     29  C   UNL     1       5.477  -1.402  23.732  0.00  0.00    +0.004 A 
BRANCH  24   6
ATOM      6  O   UNL     1       4.118   1.928  23.095  0.00  0.00    -0.493 OA
ATOM     32  C   UNL     1       4.176   2.309  21.721  0.00  0.00    +0.277 C 
ENDBRANCH  24   6
ENDBRANCH   9  22
ENDBRANCH  15  17
ENDBRANCH  11  15
BRANCH  14  16
ATOM     16  C   UNL     1      -5.889   1.716  24.894  0.00  0.00    +0.138 C 
BRANCH  16  10
ATOM      7  O   UNL     1      -4.528  -0.133  26.617  0.00  0.00    -0.270 OA
ATOM     10  N   UNL     1      -5.163   0.548  24.491  0.00  0.00    -0.309 N 
ATOM     23  C   UNL     1      -4.530  -0.297  25.400  0.00  0.00    +0.244 C 
ATOM     38  H   UNL     1      -5.170   0.324  23.502  0.00  0.00    +0.149 HD
BRANCH  23  26
ATOM      1  F   UNL     1      -0.529  -3.039  25.040  0.00  0.00    -0.205 F 
ATOM     26  C   UNL     1      -3.796  -1.452  24.821  0.00  0.00    +0.039 A 
ATOM     30  C   UNL     1      -2.482  -1.708  25.209  0.00  0.00    +0.051 A 
ATOM     31  C   UNL     1      -4.422  -2.280  23.889  0.00  0.00    +0.013 A 
ATOM     33  C   UNL     1      -1.792  -2.792  24.667  0.00  0.00    +0.124 A 
ATOM     34  C   UNL     1      -3.733  -3.364  23.345  0.00  0.00    +0.004 A 
ATOM     35  C   UNL     1      -2.418  -3.621  23.734  0.00  0.00    +0.038 A 
ENDBRANCH  23  26
ENDBRANCH  16  10
ENDBRANCH  14  16
TORSDOF 9
ENDMDL
MODEL 8
REMARK VINA RESULT:       5.5      2.440      6.047
REMARK  Name = 40778211
REMARK  10 active torsions:
REMARK  status: ('A' for Active; 'I' for Inactive)
REMARK    1  A    between atoms: O_3  and  C_12
REMARK    2  A    between atoms: O_4  and  C_13
REMARK    3  A    between atoms: O_6  and  C_24
REMARK    4  A    between atoms: O_6  and  C_32
REMARK    5  A    between atoms: N_9  and  C_22
REMARK    6  A    between atoms: N_10  and  C_16
REMARK    7  A    between atoms: C_11  and  C_15
REMARK    8  A    between atoms: C_14  and  C_16
REMARK    9  A    between atoms: C_15  and  C_17
REMARK   10  A    between atoms: C_23  and  C_26
REMARK                            x       y       z     vdW  Elec       q    Type
REMARK                         _______ _______ _______ _____ _____    ______ ____
ROOT
ATOM      2  O   UNL     1      -3.742   1.556  24.191  0.00  0.00    -0.366 OA
ATOM     11  C   UNL     1      -4.581   0.685  24.983  0.00  0.00    +0.159 C 
ATOM     12  C   UNL     1      -5.626   1.578  25.644  0.00  0.00    +0.175 C 
ATOM     13  C   UNL     1      -4.887   2.896  25.757  0.00  0.00    +0.176 C 
ATOM     14  C   UNL     1      -4.109   2.923  24.453  0.00  0.00    +0.167 C 
ENDROOT
BRANCH  12   3
ATOM      3  O   UNL     1      -6.730   1.704  24.747  0.00  0.00    -0.387 OA
ATOM     36  H   UNL     1      -7.543   1.617  25.273  0.00  0.00    +0.210 HD
ENDBRANCH  12   3
BRANCH  13   4
ATOM      4  O   UNL     1      -5.747   4.009  25.884  0.00  0.00    -0.387 OA
ATOM     37  H   UNL     1      -5.551   4.432  26.738  0.00  0.00    +0.210 HD
ENDBRANCH  13   4
BRANCH  11  15
ATOM     15  C   UNL     1      -3.690  -0.032  25.988  0.00  0.00    +0.130 C 
BRANCH  15  17
ATOM      5  O   UNL     1      -3.498  -2.291  25.283  0.00  0.00    -0.276 OA
ATOM      8  N   UNL     1      -1.729  -0.879  24.754  0.00  0.00    -0.298 N 
ATOM      9  N   UNL     1       0.951  -0.430  23.758  0.00  0.00    -0.324 N 
ATOM     17  C   UNL     1      -2.973  -1.176  25.314  0.00  0.00    +0.218 C 
ATOM     18  C   UNL     1      -1.107   0.446  24.793  0.00  0.00    +0.126 C 
ATOM     19  C   UNL     1      -0.969  -1.935  24.090  0.00  0.00    +0.126 C 
ATOM     20  C   UNL     1      -0.051   0.636  23.702  0.00  0.00    +0.124 C 
ATOM     21  C   UNL     1       0.538  -1.745  24.257  0.00  0.00    +0.124 C 
BRANCH   9  22
ATOM     22  C   UNL     1       2.255  -0.216  23.315  0.00  0.00    +0.072 A 
ATOM     24  C   UNL     1       2.519  -0.002  21.964  0.00  0.00    +0.141 A 
ATOM     25  C   UNL     1       3.299  -0.214  24.240  0.00  0.00    +0.027 A 
ATOM     27  C   UNL     1       3.829   0.212  21.535  0.00  0.00    +0.047 A 
ATOM     28  C   UNL     1       4.609   0.001  23.811  0.00  0.00    +0.002 A 
ATOM     29  C   UNL     1       4.874   0.213  22.458  0.00  0.00    +0.004 A 
BRANCH  24   6
ATOM      6  O   UNL     1       1.513  -0.002  21.045  0.00  0.00    -0.493 OA
ATOM     32  C   UNL     1       0.817  -1.231  20.845  0.00  0.00    +0.277 C 
ENDBRANCH  24   6
ENDBRANCH   9  22
ENDBRANCH  15  17
ENDBRANCH  11  15
BRANCH  14  16
ATOM     16  C   UNL     1      -2.860   3.784  24.514  0.00  0.00    +0.138 C 
BRANCH  16  10
ATOM      7  O   UNL     1       0.004   3.683  24.679  0.00  0.00    -0.270 OA
ATOM     10  N   UNL     1      -2.081   3.484  25.679  0.00  0.00    -0.309 N 
ATOM     23  C   UNL     1      -0.688   3.458  25.668  0.00  0.00    +0.244 C 
ATOM     38  H   UNL     1      -2.589   3.340  26.545  0.00  0.00    +0.149 HD
BRANCH  23  26
ATOM      1  F   UNL     1       3.318   2.598  28.288  0.00  0.00    -0.205 F 
ATOM     26  C   UNL     1      -0.028   3.104  26.951  0.00  0.00    +0.039 A 
ATOM     30  C   UNL     1       1.362   3.015  27.019  0.00  0.00    +0.051 A 
ATOM     31  C   UNL     1      -0.798   2.860  28.088  0.00  0.00    +0.013 A 
ATOM     33  C   UNL     1       1.982   2.684  28.223  0.00  0.00    +0.124 A 
ATOM     34  C   UNL     1      -0.179   2.527  29.292  0.00  0.00    +0.004 A 
ATOM     35  C   UNL     1       1.212   2.439  29.360  0.00  0.00    +0.038 A 
ENDBRANCH  23  26
ENDBRANCH  16  10
ENDBRANCH  14  16
TORSDOF 9
ENDMDL
MODEL 9
REMARK VINA RESULT:       5.6      2.044      5.761
REMARK  Name = 40778211
REMARK  10 active torsions:
REMARK  status: ('A' for Active; 'I' for Inactive)
REMARK    1  A    between atoms: O_3  and  C_12
REMARK    2  A    between atoms: O_4  and  C_13
REMARK    3  A    between atoms: O_6  and  C_24
REMARK    4  A    between atoms: O_6  and  C_32
REMARK    5  A    between atoms: N_9  and  C_22
REMARK    6  A    between atoms: N_10  and  C_16
REMARK    7  A    between atoms: C_11  and  C_15
REMARK    8  A    between atoms: C_14  and  C_16
REMARK    9  A    between atoms: C_15  and  C_17
REMARK   10  A    between atoms: C_23  and  C_26
REMARK                            x       y       z     vdW  Elec       q    Type
REMARK                         _______ _______ _______ _____ _____    ______ ____
ROOT
ATOM      2  O   UNL     1      -5.148   3.873  26.260  0.00  0.00    -0.366 OA
ATOM     11  C   UNL     1      -4.124   4.698  25.658  0.00  0.00    +0.159 C 
ATOM     12  C   UNL     1      -3.962   4.203  24.224  0.00  0.00    +0.175 C 
ATOM     13  C   UNL     1      -4.355   2.746  24.347  0.00  0.00    +0.176 C 
ATOM     14  C   UNL     1      -5.499   2.821  25.343  0.00  0.00    +0.167 C 
ENDROOT
BRANCH  12   3
ATOM      3  O   UNL     1      -4.901   4.903  23.408  0.00  0.00    -0.387 OA
ATOM     36  H   UNL     1      -5.547   5.322  24.001  0.00  0.00    +0.210 HD
ENDBRANCH  12   3
BRANCH  13   4
ATOM      4  O   UNL     1      -4.757   2.171  23.122  0.00  0.00    -0.387 OA
ATOM     37  H   UNL     1      -4.980   1.240  23.296  0.00  0.00    +0.210 HD
ENDBRANCH  13   4
BRANCH  11  15
ATOM     15  C   UNL     1      -2.856   4.543  26.487  0.00  0.00    +0.130 C 
BRANCH  15  17
ATOM      5  O   UNL     1      -1.323   6.065  25.501  0.00  0.00    -0.276 OA
ATOM      8  N   UNL     1      -0.965   3.807  25.084  0.00  0.00    -0.298 N 
ATOM      9  N   UNL     1       0.392   1.666  23.686  0.00  0.00    -0.324 N 
ATOM     17  C   UNL     1      -1.649   4.885  25.648  0.00  0.00    +0.218 C 
ATOM     18  C   UNL     1      -1.354   2.406  25.260  0.00  0.00    +0.126 C 
ATOM     19  C   UNL     1       0.210   4.056  24.252  0.00  0.00    +0.126 C 
ATOM     20  C   UNL     1      -0.201   1.435  25.005  0.00  0.00    +0.124 C 
ATOM     21  C   UNL     1       0.346   3.024  23.134  0.00  0.00    +0.124 C 
BRANCH   9  22
ATOM     22  C   UNL     1       1.016   0.635  22.987  0.00  0.00    +0.072 A 
ATOM     24  C   UNL     1       2.405   0.586  22.886  0.00  0.00    +0.141 A 
ATOM     25  C   UNL     1       0.237  -0.354  22.387  0.00  0.00    +0.027 A 
ATOM     27  C   UNL     1       3.016  -0.453  22.183  0.00  0.00    +0.047 A 
ATOM     28  C   UNL     1       0.848  -1.393  21.685  0.00  0.00    +0.002 A 
ATOM     29  C   UNL     1       2.238  -1.442  21.583  0.00  0.00    +0.004 A 
BRANCH  24   6
ATOM      6  O   UNL     1       3.184   1.543  23.463  0.00  0.00    -0.493 OA
ATOM     32  C   UNL     1       4.595   1.334  23.436  0.00  0.00    +0.277 C 
ENDBRANCH  24   6
ENDBRANCH   9  22
ENDBRANCH  15  17
ENDBRANCH  11  15
BRANCH  14  16
ATOM     16  C   UNL     1      -5.717   1.529  26.109  0.00  0.00    +0.138 C 
BRANCH  16  10
ATOM      7  O   UNL     1      -5.757  -0.533  24.113  0.00  0.00    -0.270 OA
ATOM     10  N   UNL     1      -4.676   0.583  25.836  0.00  0.00    -0.309 N 
ATOM     23  C   UNL     1      -4.780  -0.388  24.843  0.00  0.00    +0.244 C 
ATOM     38  H   UNL     1      -3.817   0.681  26.368  0.00  0.00    +0.149 HD
BRANCH  23  26
ATOM      1  F   UNL     1      -0.169  -1.599  25.806  0.00  0.00    -0.205 F 
ATOM     26  C   UNL     1      -3.625  -1.311  24.703  0.00  0.00    +0.039 A 
ATOM     30  C   UNL     1      -2.416  -1.016  25.332  0.00  0.00    +0.051 A 
ATOM     31  C   UNL     1      -3.748  -2.472  23.940  0.00  0.00    +0.013 A 
ATOM     33  C   UNL     1      -1.331  -1.882  25.201  0.00  0.00    +0.124 A 
ATOM     34  C   UNL     1      -2.663  -3.339  23.807  0.00  0.00    +0.004 A 
ATOM     35  C   UNL     1      -1.454  -3.044  24.438  0.00  0.00    +0.038 A 
ENDBRANCH  23  26
ENDBRANCH  16  10
ENDBRANCH  14  16
TORSDOF 9
ENDMDL
