MODEL 1
REMARK VINA RESULT:      11.9      0.000      0.000
REMARK  Name = 26761859
REMARK  3 active torsions:
REMARK  status: ('A' for Active; 'I' for Inactive)
REMARK    1  A    between atoms: N_8  and  C_19
REMARK    2  A    between atoms: C_10  and  C_15
REMARK    3  A    between atoms: C_18  and  C_20
REMARK                            x       y       z     vdW  Elec       q    Type
REMARK                         _______ _______ _______ _____ _____    ______ ____
ROOT
ATOM      3  O   UNL     1       0.785   0.137  21.829  0.00  0.00    -0.252 OA
ATOM      4  N   UNL     1      -0.474  -0.316  23.728  0.00  0.00    -0.267 N 
ATOM      5  N   UNL     1      -1.938  -1.972  26.748  0.00  0.00    -0.347 N 
ATOM      6  N   UNL     1      -3.370  -2.880  25.294  0.00  0.00    -0.240 NA
ATOM      8  N   UNL     1       1.825   0.205  23.906  0.00  0.00    -0.269 N 
ATOM     10  C   UNL     1      -1.744  -0.397  22.925  0.00  0.00    +0.172 C 
ATOM     11  C   UNL     1      -2.529  -1.713  23.210  0.00  0.00    +0.089 C 
ATOM     12  C   UNL     1      -0.567  -0.475  25.208  0.00  0.00    +0.165 C 
ATOM     13  C   UNL     1      -2.520  -2.022  24.655  0.00  0.00    +0.066 A 
ATOM     14  C   UNL     1      -1.627  -1.452  25.527  0.00  0.00    +0.056 A 
ATOM     16  C   UNL     1       0.734   0.012  23.055  0.00  0.00    +0.307 C 
ATOM     17  C   UNL     1      -2.994  -2.828  26.555  0.00  0.00    +0.197 A 
ATOM     31  H   UNL     1      -1.482  -1.770  27.627  0.00  0.00    +0.167 HD
ATOM     32  H   UNL     1       1.636   0.522  24.852  0.00  0.00    +0.156 HD
ENDROOT
BRANCH   8  19
ATOM      1 CL   UNL     1       7.543  -0.806  22.717  0.00  0.00    -0.084 Cl
ATOM     19  C   UNL     1       3.191  -0.037  23.622  0.00  0.00    +0.035 A 
ATOM     21  C   UNL     1       3.962   0.953  23.012  0.00  0.00    +0.025 A 
ATOM     22  C   UNL     1       3.766  -1.264  23.953  0.00  0.00    +0.025 A 
ATOM     25  C   UNL     1       5.309   0.715  22.732  0.00  0.00    +0.022 A 
ATOM     26  C   UNL     1       5.112  -1.502  23.672  0.00  0.00    +0.022 A 
ATOM     29  C   UNL     1       5.882  -0.513  23.062  0.00  0.00    +0.041 A 
ENDBRANCH   8  19
BRANCH  10  15
ATOM      2  O   UNL     1      -2.462   1.755  21.986  0.00  0.00    -0.336 OA
ATOM      7  N   UNL     1      -3.283   1.335  24.027  0.00  0.00    -0.190 NA
ATOM      9  N   UNL     1      -3.254   2.860  22.322  0.00  0.00    -0.056 NA
ATOM     15  C   UNL     1      -2.534   0.904  23.043  0.00  0.00    +0.249 A 
ATOM     18  C   UNL     1      -3.703   2.538  23.539  0.00  0.00    +0.202 A 
BRANCH  18  20
ATOM     20  C   UNL     1      -4.572   3.395  24.292  0.00  0.00    +0.022 A 
ATOM     23  C   UNL     1      -5.487   2.845  25.190  0.00  0.00    +0.012 A 
ATOM     24  C   UNL     1      -4.505   4.778  24.126  0.00  0.00    +0.012 A 
ATOM     27  C   UNL     1      -6.333   3.677  25.922  0.00  0.00    +0.001 A 
ATOM     28  C   UNL     1      -5.351   5.611  24.858  0.00  0.00    +0.001 A 
ATOM     30  C   UNL     1      -6.266   5.060  25.756  0.00  0.00    +0.000 A 
ENDBRANCH  18  20
ENDBRANCH  10  15
TORSDOF 3
ENDMDL
MODEL 2
REMARK VINA RESULT:      13.4      3.365      8.311
REMARK  Name = 26761859
REMARK  3 active torsions:
REMARK  status: ('A' for Active; 'I' for Inactive)
REMARK    1  A    between atoms: N_8  and  C_19
REMARK    2  A    between atoms: C_10  and  C_15
REMARK    3  A    between atoms: C_18  and  C_20
REMARK                            x       y       z     vdW  Elec       q    Type
REMARK                         _______ _______ _______ _____ _____    ______ ____
ROOT
ATOM      3  O   UNL     1      -2.125   2.283  25.857  0.00  0.00    -0.252 OA
ATOM      4  N   UNL     1      -2.588   0.383  24.604  0.00  0.00    -0.267 N 
ATOM      5  N   UNL     1      -4.240  -2.660  23.184  0.00  0.00    -0.347 N 
ATOM      6  N   UNL     1      -3.243  -3.729  24.873  0.00  0.00    -0.240 NA
ATOM      8  N   UNL     1      -3.723   2.412  24.175  0.00  0.00    -0.269 N 
ATOM     10  C   UNL     1      -1.485  -0.388  25.277  0.00  0.00    +0.172 C 
ATOM     11  C   UNL     1      -1.987  -1.753  25.837  0.00  0.00    +0.089 C 
ATOM     12  C   UNL     1      -3.359  -0.294  23.520  0.00  0.00    +0.165 C 
ATOM     13  C   UNL     1      -2.896  -2.408  24.872  0.00  0.00    +0.066 A 
ATOM     14  C   UNL     1      -3.498  -1.727  23.845  0.00  0.00    +0.056 A 
ATOM     16  C   UNL     1      -2.774   1.747  24.956  0.00  0.00    +0.307 C 
ATOM     17  C   UNL     1      -4.054  -3.850  23.842  0.00  0.00    +0.197 A 
ATOM     31  H   UNL     1      -4.816  -2.510  22.367  0.00  0.00    +0.167 HD
ATOM     32  H   UNL     1      -3.873   2.078  23.228  0.00  0.00    +0.156 HD
ENDROOT
BRANCH   8  19
ATOM      1 CL   UNL     1      -7.211   6.918  25.805  0.00  0.00    -0.084 Cl
ATOM     19  C   UNL     1      -4.556   3.489  24.564  0.00  0.00    +0.035 A 
ATOM     21  C   UNL     1      -5.538   3.294  25.537  0.00  0.00    +0.025 A 
ATOM     22  C   UNL     1      -4.395   4.743  23.977  0.00  0.00    +0.025 A 
ATOM     25  C   UNL     1      -6.359   4.356  25.921  0.00  0.00    +0.022 A 
ATOM     26  C   UNL     1      -5.216   5.804  24.360  0.00  0.00    +0.022 A 
ATOM     29  C   UNL     1      -6.198   5.610  25.331  0.00  0.00    +0.041 A 
ENDBRANCH   8  19
BRANCH  10  15
ATOM      2  O   UNL     1      -0.458  -0.673  23.064  0.00  0.00    -0.336 OA
ATOM      7  N   UNL     1       1.014  -0.276  24.705  0.00  0.00    -0.190 NA
ATOM      9  N   UNL     1       0.805  -0.670  22.461  0.00  0.00    -0.056 NA
ATOM     15  C   UNL     1      -0.246  -0.434  24.385  0.00  0.00    +0.249 A 
ATOM     18  C   UNL     1       1.620  -0.430  23.492  0.00  0.00    +0.202 A 
BRANCH  18  20
ATOM     20  C   UNL     1       3.044  -0.336  23.345  0.00  0.00    +0.022 A 
ATOM     23  C   UNL     1       3.865  -1.355  23.829  0.00  0.00    +0.012 A 
ATOM     24  C   UNL     1       3.610   0.775  22.718  0.00  0.00    +0.012 A 
ATOM     27  C   UNL     1       5.249  -1.264  23.687  0.00  0.00    +0.001 A 
ATOM     28  C   UNL     1       4.994   0.866  22.575  0.00  0.00    +0.001 A 
ATOM     30  C   UNL     1       5.814  -0.153  23.060  0.00  0.00    +0.000 A 
ENDBRANCH  18  20
ENDBRANCH  10  15
TORSDOF 3
ENDMDL
