MODEL 1
REMARK VINA RESULT:      10.6      0.000      0.000
REMARK  Name = 51136829
REMARK  6 active torsions:
REMARK  status: ('A' for Active; 'I' for Inactive)
REMARK    1  A    between atoms: N_6  and  C_16
REMARK    2  A    between atoms: C_12  and  C_17
REMARK    3  A    between atoms: C_16  and  C_18
REMARK    4  A    between atoms: C_23  and  C_27
REMARK    5  A    between atoms: C_29  and  C_35
REMARK    6  A    between atoms: C_32  and  C_36
REMARK                            x       y       z     vdW  Elec       q    Type
REMARK                         _______ _______ _______ _____ _____    ______ ____
ROOT
ATOM      4  O   UNL     1      -5.943   1.553  24.972  0.00  0.00    -0.336 OA
ATOM      9  N   UNL     1      -3.716   1.686  25.179  0.00  0.00    -0.190 NA
ATOM     10  N   UNL     1      -5.445   0.282  24.655  0.00  0.00    -0.056 NA
ATOM     17  C   UNL     1      -4.859   2.318  25.268  0.00  0.00    +0.245 A 
ATOM     23  C   UNL     1      -4.126   0.441  24.800  0.00  0.00    +0.202 A 
ENDROOT
BRANCH  23  27
ATOM      5  O   UNL     1       4.657   0.735  21.889  0.00  0.00    -0.276 OA
ATOM      7  N   UNL     1       0.320  -1.093  23.741  0.00  0.00    -0.312 N 
ATOM      8  N   UNL     1       3.067  -0.401  23.148  0.00  0.00    -0.299 N 
ATOM     11  N   UNL     1      -1.368  -2.698  24.133  0.00  0.00    -0.240 NA
ATOM     19  C   UNL     1       1.413  -1.991  24.124  0.00  0.00    +0.125 C 
ATOM     20  C   UNL     1       0.651   0.119  22.986  0.00  0.00    +0.125 C 
ATOM     21  C   UNL     1       2.715  -1.210  24.315  0.00  0.00    +0.126 C 
ATOM     22  C   UNL     1       1.974  -0.053  22.243  0.00  0.00    +0.126 C 
ATOM     24  C   UNL     1      -1.003  -1.398  24.053  0.00  0.00    +0.122 A 
ATOM     27  C   UNL     1      -3.190  -0.624  24.572  0.00  0.00    +0.027 A 
ATOM     28  C   UNL     1      -1.867  -0.336  24.262  0.00  0.00    +0.055 A 
ATOM     29  C   UNL     1       4.358   0.053  22.871  0.00  0.00    +0.213 C 
ATOM     33  C   UNL     1      -3.605  -1.948  24.664  0.00  0.00    +0.031 A 
ATOM     34  C   UNL     1      -2.663  -2.939  24.436  0.00  0.00    +0.113 A 
ATOM     35  C   UNL     1       5.428  -0.342  23.860  0.00  0.00    +0.109 C 
ENDBRANCH  23  27
BRANCH  17  12
ATOM      6  N   UNL     1      -5.263   4.643  24.476  0.00  0.00    -0.287 NA
ATOM     12  C   UNL     1      -5.133   3.757  25.651  0.00  0.00    +0.146 C 
ATOM     13  C   UNL     1      -6.458   3.926  26.417  0.00  0.00    +0.030 C 
ATOM     14  C   UNL     1      -7.242   4.969  25.632  0.00  0.00    +0.017 C 
ATOM     15  C   UNL     1      -6.170   5.722  24.872  0.00  0.00    +0.085 C 
BRANCH   6  16
ATOM     16  C   UNL     1      -3.985   5.149  23.995  0.00  0.00    +0.120 C 
BRANCH  16  18
ATOM     18  C   UNL     1      -2.825   4.393  24.586  0.00  0.00    -0.033 A 
ATOM     25  C   UNL     1      -2.605   4.416  25.963  0.00  0.00    +0.005 A 
ATOM     26  C   UNL     1      -1.968   3.669  23.756  0.00  0.00    +0.005 A 
ATOM     30  C   UNL     1      -1.531   3.715  26.510  0.00  0.00    +0.012 A 
ATOM     31  C   UNL     1      -0.894   2.968  24.302  0.00  0.00    +0.012 A 
ATOM     32  C   UNL     1      -0.675   2.991  25.680  0.00  0.00    +0.055 A 
BRANCH  32  36
ATOM      1  F   UNL     1       1.213   2.970  27.148  0.00  0.00    -0.166 F 
ATOM      2  F   UNL     1       1.353   1.805  25.319  0.00  0.00    -0.166 F 
ATOM      3  F   UNL     1       0.097   1.121  26.956  0.00  0.00    -0.166 F 
ATOM     36  C   UNL     1       0.472   2.239  26.266  0.00  0.00    +0.417 C 
ENDBRANCH  32  36
ENDBRANCH  16  18
ENDBRANCH   6  16
ENDBRANCH  17  12
TORSDOF 5
ENDMDL
MODEL 2
REMARK VINA RESULT:      10.8      2.735      4.456
REMARK  Name = 51136829
REMARK  6 active torsions:
REMARK  status: ('A' for Active; 'I' for Inactive)
REMARK    1  A    between atoms: N_6  and  C_16
REMARK    2  A    between atoms: C_12  and  C_17
REMARK    3  A    between atoms: C_16  and  C_18
REMARK    4  A    between atoms: C_23  and  C_27
REMARK    5  A    between atoms: C_29  and  C_35
REMARK    6  A    between atoms: C_32  and  C_36
REMARK                            x       y       z     vdW  Elec       q    Type
REMARK                         _______ _______ _______ _____ _____    ______ ____
ROOT
ATOM      4  O   UNL     1      -0.648   4.258  24.168  0.00  0.00    -0.336 OA
ATOM      9  N   UNL     1      -1.531   2.204  24.312  0.00  0.00    -0.190 NA
ATOM     10  N   UNL     1       0.399   3.364  23.905  0.00  0.00    -0.056 NA
ATOM     17  C   UNL     1      -1.747   3.493  24.398  0.00  0.00    +0.245 A 
ATOM     23  C   UNL     1      -0.202   2.174  24.008  0.00  0.00    +0.202 A 
ENDROOT
BRANCH  23  27
ATOM      5  O   UNL     1       8.801   0.581  22.557  0.00  0.00    -0.276 OA
ATOM      7  N   UNL     1       3.909  -0.292  23.498  0.00  0.00    -0.312 N 
ATOM      8  N   UNL     1       6.802  -0.230  23.421  0.00  0.00    -0.299 N 
ATOM     11  N   UNL     1       1.866  -1.475  23.444  0.00  0.00    -0.240 NA
ATOM     19  C   UNL     1       4.691  -1.447  23.948  0.00  0.00    +0.125 C 
ATOM     20  C   UNL     1       4.629   0.857  22.940  0.00  0.00    +0.125 C 
ATOM     21  C   UNL     1       6.078  -1.012  24.424  0.00  0.00    +0.126 C 
ATOM     22  C   UNL     1       5.991   0.429  22.399  0.00  0.00    +0.126 C 
ATOM     24  C   UNL     1       2.518  -0.296  23.564  0.00  0.00    +0.122 A 
ATOM     27  C   UNL     1       0.500   0.936  23.815  0.00  0.00    +0.027 A 
ATOM     28  C   UNL     1       1.888   0.924  23.749  0.00  0.00    +0.055 A 
ATOM     29  C   UNL     1       8.190  -0.077  23.401  0.00  0.00    +0.213 C 
ATOM     33  C   UNL     1      -0.208  -0.255  23.697  0.00  0.00    +0.031 A 
ATOM     34  C   UNL     1       0.516  -1.423  23.513  0.00  0.00    +0.113 A 
ATOM     35  C   UNL     1       8.953  -0.781  24.496  0.00  0.00    +0.109 C 
ENDBRANCH  23  27
BRANCH  17  12
ATOM      6  N   UNL     1      -4.014   3.390  25.420  0.00  0.00    -0.287 NA
ATOM     12  C   UNL     1      -3.031   4.233  24.709  0.00  0.00    +0.146 C 
ATOM     13  C   UNL     1      -2.810   5.442  25.635  0.00  0.00    +0.030 C 
ATOM     14  C   UNL     1      -3.753   5.222  26.810  0.00  0.00    +0.017 C 
ATOM     15  C   UNL     1      -4.812   4.297  26.247  0.00  0.00    +0.085 C 
BRANCH   6  16
ATOM     16  C   UNL     1      -4.841   2.594  24.524  0.00  0.00    +0.120 C 
BRANCH  16  18
ATOM     18  C   UNL     1      -4.434   1.144  24.527  0.00  0.00    -0.033 A 
ATOM     25  C   UNL     1      -4.416   0.426  25.723  0.00  0.00    +0.005 A 
ATOM     26  C   UNL     1      -4.075   0.518  23.333  0.00  0.00    +0.005 A 
ATOM     30  C   UNL     1      -4.039  -0.916  25.725  0.00  0.00    +0.012 A 
ATOM     31  C   UNL     1      -3.698  -0.825  23.335  0.00  0.00    +0.012 A 
ATOM     32  C   UNL     1      -3.681  -1.542  24.532  0.00  0.00    +0.055 A 
BRANCH  32  36
ATOM      1  F   UNL     1      -2.011  -3.195  24.084  0.00  0.00    -0.166 F 
ATOM      2  F   UNL     1      -4.085  -3.748  23.743  0.00  0.00    -0.166 F 
ATOM      3  F   UNL     1      -3.326  -3.557  25.770  0.00  0.00    -0.166 F 
ATOM     36  C   UNL     1      -3.282  -2.979  24.534  0.00  0.00    +0.417 C 
ENDBRANCH  32  36
ENDBRANCH  16  18
ENDBRANCH   6  16
ENDBRANCH  17  12
TORSDOF 5
ENDMDL
MODEL 3
REMARK VINA RESULT:      11.8      2.085      7.387
REMARK  Name = 51136829
REMARK  6 active torsions:
REMARK  status: ('A' for Active; 'I' for Inactive)
REMARK    1  A    between atoms: N_6  and  C_16
REMARK    2  A    between atoms: C_12  and  C_17
REMARK    3  A    between atoms: C_16  and  C_18
REMARK    4  A    between atoms: C_23  and  C_27
REMARK    5  A    between atoms: C_29  and  C_35
REMARK    6  A    between atoms: C_32  and  C_36
REMARK                            x       y       z     vdW  Elec       q    Type
REMARK                         _______ _______ _______ _____ _____    ______ ____
ROOT
ATOM      4  O   UNL     1       1.794  -2.156  24.774  0.00  0.00    -0.336 OA
ATOM      9  N   UNL     1       0.459  -0.811  23.578  0.00  0.00    -0.190 NA
ATOM     10  N   UNL     1       0.486  -2.431  25.194  0.00  0.00    -0.056 NA
ATOM     17  C   UNL     1       1.688  -1.191  23.823  0.00  0.00    +0.245 A 
ATOM     23  C   UNL     1      -0.243  -1.599  24.443  0.00  0.00    +0.202 A 
ENDROOT
BRANCH  23  27
ATOM      5  O   UNL     1      -5.740   5.509  26.670  0.00  0.00    -0.276 OA
ATOM      7  N   UNL     1      -4.297   0.937  25.060  0.00  0.00    -0.312 N 
ATOM      8  N   UNL     1      -5.518   3.527  25.476  0.00  0.00    -0.299 N 
ATOM     11  N   UNL     1      -4.461  -1.393  24.709  0.00  0.00    -0.240 NA
ATOM     19  C   UNL     1      -5.638   1.219  24.542  0.00  0.00    +0.125 C 
ATOM     20  C   UNL     1      -3.630   1.971  25.856  0.00  0.00    +0.125 C 
ATOM     21  C   UNL     1      -5.820   2.717  24.295  0.00  0.00    +0.126 C 
ATOM     22  C   UNL     1      -4.654   2.915  26.482  0.00  0.00    +0.126 C 
ATOM     24  C   UNL     1      -3.683  -0.294  24.836  0.00  0.00    +0.122 A 
ATOM     27  C   UNL     1      -1.674  -1.529  24.535  0.00  0.00    +0.027 A 
ATOM     28  C   UNL     1      -2.300  -0.309  24.757  0.00  0.00    +0.055 A 
ATOM     29  C   UNL     1      -5.993   4.825  25.676  0.00  0.00    +0.213 C 
ATOM     33  C   UNL     1      -2.438  -2.683  24.400  0.00  0.00    +0.031 A 
ATOM     34  C   UNL     1      -3.816  -2.562  24.495  0.00  0.00    +0.113 A 
ATOM     35  C   UNL     1      -6.871   5.388  24.586  0.00  0.00    +0.109 C 
ENDBRANCH  23  27
BRANCH  17  12
ATOM      6  N   UNL     1       3.292   0.690  23.538  0.00  0.00    -0.287 NA
ATOM     12  C   UNL     1       2.982  -0.713  23.199  0.00  0.00    +0.146 C 
ATOM     13  C   UNL     1       4.206  -1.513  23.683  0.00  0.00    +0.030 C 
ATOM     14  C   UNL     1       5.174  -0.470  24.224  0.00  0.00    +0.017 C 
ATOM     15  C   UNL     1       4.751   0.805  23.523  0.00  0.00    +0.085 C 
BRANCH   6  16
ATOM     16  C   UNL     1       2.657   1.650  22.645  0.00  0.00    +0.120 C 
BRANCH  16  18
ATOM     18  C   UNL     1       1.550   2.406  23.331  0.00  0.00    -0.033 A 
ATOM     25  C   UNL     1       1.176   3.668  22.870  0.00  0.00    +0.005 A 
ATOM     26  C   UNL     1       0.898   1.844  24.429  0.00  0.00    +0.005 A 
ATOM     30  C   UNL     1       0.151   4.367  23.504  0.00  0.00    +0.012 A 
ATOM     31  C   UNL     1      -0.128   2.543  25.065  0.00  0.00    +0.012 A 
ATOM     32  C   UNL     1      -0.502   3.806  24.602  0.00  0.00    +0.055 A 
BRANCH  32  36
ATOM      1  F   UNL     1      -2.796   4.482  24.623  0.00  0.00    -0.166 F 
ATOM      2  F   UNL     1      -1.331   5.884  25.404  0.00  0.00    -0.166 F 
ATOM      3  F   UNL     1      -1.862   4.112  26.545  0.00  0.00    -0.166 F 
ATOM     36  C   UNL     1      -1.601   4.552  25.279  0.00  0.00    +0.417 C 
ENDBRANCH  32  36
ENDBRANCH  16  18
ENDBRANCH   6  16
ENDBRANCH  17  12
TORSDOF 5
ENDMDL
