MODEL 1
REMARK VINA RESULT:      -4.1      0.000      0.000
REMARK  Name = 26744052
REMARK  8 active torsions:
REMARK  status: ('A' for Active; 'I' for Inactive)
REMARK    1  A    between atoms: S_1  and  C_19
REMARK    2  A    between atoms: S_1  and  C_20
REMARK    3  A    between atoms: O_2  and  C_16
REMARK    4  A    between atoms: N_6  and  C_12
REMARK    5  A    between atoms: C_9  and  C_12
REMARK    6  A    between atoms: C_13  and  C_17
REMARK    7  A    between atoms: C_18  and  C_19
REMARK    8  A    between atoms: C_25  and  C_26
REMARK                            x       y       z     vdW  Elec       q    Type
REMARK                         _______ _______ _______ _____ _____    ______ ____
ROOT
ATOM      3  O   UNL     1       0.146   3.330  23.920  0.00  0.00    -0.336 OA
ATOM      7  N   UNL     1      -1.096   2.192  25.397  0.00  0.00    -0.193 NA
ATOM      8  N   UNL     1      -0.838   4.220  24.369  0.00  0.00    -0.060 NA
ATOM     17  C   UNL     1      -0.078   2.160  24.575  0.00  0.00    +0.245 A 
ATOM     18  C   UNL     1      -1.531   3.476  25.237  0.00  0.00    +0.193 A 
ENDROOT
BRANCH  17  13
ATOM      6  N   UNL     1       0.421   0.212  23.108  0.00  0.00    -0.289 NA
ATOM     13  C   UNL     1       0.867   1.019  24.261  0.00  0.00    +0.148 C 
ATOM     14  C   UNL     1       1.632  -0.322  22.484  0.00  0.00    +0.116 C 
ATOM     15  C   UNL     1       2.279   1.504  23.881  0.00  0.00    +0.061 C 
ATOM     16  C   UNL     1       2.556   0.880  22.519  0.00  0.00    +0.130 C 
BRANCH  16   2
ATOM      2  O   UNL     1       3.915   0.501  22.407  0.00  0.00    -0.390 OA
ATOM     27  H   UNL     1       4.133   0.473  21.461  0.00  0.00    +0.210 HD
ENDBRANCH  16   2
BRANCH   6  12
ATOM     12  C   UNL     1      -0.517  -0.841  23.473  0.00  0.00    +0.088 C 
BRANCH  12   9
ATOM      9  C   UNL     1      -0.257  -1.345  24.855  0.00  0.00    +0.003 C 
ATOM     10  C   UNL     1      -1.065  -2.495  25.381  0.00  0.00    +0.005 C 
ATOM     11  C   UNL     1      -1.284  -1.114  25.925  0.00  0.00    +0.005 C 
ENDBRANCH  12   9
ENDBRANCH   6  12
ENDBRANCH  17  13
BRANCH  18  19
ATOM     19  C   UNL     1      -2.684   4.008  25.971  0.00  0.00    +0.251 C 
BRANCH  19   1
ATOM      1  S   UNL     1      -4.137   3.785  24.982  0.00  0.00    +0.004 S 
ATOM      4  O   UNL     1      -3.929   4.492  23.733  0.00  0.00    -0.169 OA
ATOM      5  O   UNL     1      -5.301   4.065  25.803  0.00  0.00    -0.169 OA
BRANCH   1  20
ATOM     20  C   UNL     1      -4.150   2.053  24.636  0.00  0.00    +0.089 A 
ATOM     21  C   UNL     1      -3.558   1.570  23.468  0.00  0.00    +0.027 A 
ATOM     22  C   UNL     1      -4.754   1.168  25.529  0.00  0.00    +0.027 A 
ATOM     23  C   UNL     1      -3.571   0.203  23.194  0.00  0.00    +0.005 A 
ATOM     24  C   UNL     1      -4.768  -0.200  25.255  0.00  0.00    +0.005 A 
ATOM     25  C   UNL     1      -4.175  -0.682  24.088  0.00  0.00    -0.050 A 
ATOM     26  C   UNL     1      -4.189  -2.145  23.794  0.00  0.00    +0.044 C 
ENDBRANCH   1  20
ENDBRANCH  19   1
ENDBRANCH  18  19
TORSDOF 7
ENDMDL
MODEL 2
REMARK VINA RESULT:      -4.0      2.681      6.958
REMARK  Name = 26744052
REMARK  8 active torsions:
REMARK  status: ('A' for Active; 'I' for Inactive)
REMARK    1  A    between atoms: S_1  and  C_19
REMARK    2  A    between atoms: S_1  and  C_20
REMARK    3  A    between atoms: O_2  and  C_16
REMARK    4  A    between atoms: N_6  and  C_12
REMARK    5  A    between atoms: C_9  and  C_12
REMARK    6  A    between atoms: C_13  and  C_17
REMARK    7  A    between atoms: C_18  and  C_19
REMARK    8  A    between atoms: C_25  and  C_26
REMARK                            x       y       z     vdW  Elec       q    Type
REMARK                         _______ _______ _______ _____ _____    ______ ____
ROOT
ATOM      3  O   UNL     1      -1.802   2.080  25.664  0.00  0.00    -0.336 OA
ATOM      7  N   UNL     1      -1.457   1.940  23.455  0.00  0.00    -0.193 NA
ATOM      8  N   UNL     1      -0.416   1.968  25.493  0.00  0.00    -0.060 NA
ATOM     17  C   UNL     1      -2.339   2.055  24.416  0.00  0.00    +0.245 A 
ATOM     18  C   UNL     1      -0.291   1.890  24.165  0.00  0.00    +0.193 A 
ENDROOT
BRANCH  17  13
ATOM      6  N   UNL     1      -4.539   1.173  25.173  0.00  0.00    -0.289 NA
ATOM     13  C   UNL     1      -3.846   2.165  24.326  0.00  0.00    +0.148 C 
ATOM     14  C   UNL     1      -5.811   1.781  25.566  0.00  0.00    +0.116 C 
ATOM     15  C   UNL     1      -4.373   3.530  24.807  0.00  0.00    +0.061 C 
ATOM     16  C   UNL     1      -5.390   3.200  25.893  0.00  0.00    +0.130 C 
BRANCH  16   2
ATOM      2  O   UNL     1      -6.483   4.097  25.844  0.00  0.00    -0.390 OA
ATOM     27  H   UNL     1      -6.743   4.289  26.761  0.00  0.00    +0.210 HD
ENDBRANCH  16   2
BRANCH   6  12
ATOM     12  C   UNL     1      -4.727  -0.113  24.515  0.00  0.00    +0.088 C 
BRANCH  12   9
ATOM      9  C   UNL     1      -3.963  -1.194  25.209  0.00  0.00    +0.003 C 
ATOM     10  C   UNL     1      -2.555  -1.488  24.782  0.00  0.00    +0.005 C 
ATOM     11  C   UNL     1      -3.653  -2.463  24.469  0.00  0.00    +0.005 C 
ENDBRANCH  12   9
ENDBRANCH   6  12
ENDBRANCH  17  13
BRANCH  18  19
ATOM     19  C   UNL     1       1.016   1.760  23.513  0.00  0.00    +0.251 C 
BRANCH  19   1
ATOM      1  S   UNL     1       1.286   0.054  23.119  0.00  0.00    +0.004 S 
ATOM      4  O   UNL     1       0.914  -0.140  21.731  0.00  0.00    -0.169 OA
ATOM      5  O   UNL     1       0.688  -0.760  24.163  0.00  0.00    -0.169 OA
BRANCH   1  20
ATOM     20  C   UNL     1       3.037  -0.138  23.250  0.00  0.00    +0.089 A 
ATOM     21  C   UNL     1       3.574  -1.332  23.732  0.00  0.00    +0.027 A 
ATOM     22  C   UNL     1       3.883   0.905  22.873  0.00  0.00    +0.027 A 
ATOM     23  C   UNL     1       4.956  -1.482  23.837  0.00  0.00    +0.005 A 
ATOM     24  C   UNL     1       5.266   0.755  22.978  0.00  0.00    +0.005 A 
ATOM     25  C   UNL     1       5.802  -0.439  23.460  0.00  0.00    -0.050 A 
ATOM     26  C   UNL     1       7.281  -0.600  23.573  0.00  0.00    +0.044 C 
ENDBRANCH   1  20
ENDBRANCH  19   1
ENDBRANCH  18  19
TORSDOF 7
ENDMDL
MODEL 3
REMARK VINA RESULT:      -3.3     16.087     17.952
REMARK  Name = 26744052
REMARK  8 active torsions:
REMARK  status: ('A' for Active; 'I' for Inactive)
REMARK    1  A    between atoms: S_1  and  C_19
REMARK    2  A    between atoms: S_1  and  C_20
REMARK    3  A    between atoms: O_2  and  C_16
REMARK    4  A    between atoms: N_6  and  C_12
REMARK    5  A    between atoms: C_9  and  C_12
REMARK    6  A    between atoms: C_13  and  C_17
REMARK    7  A    between atoms: C_18  and  C_19
REMARK    8  A    between atoms: C_25  and  C_26
REMARK                            x       y       z     vdW  Elec       q    Type
REMARK                         _______ _______ _______ _____ _____    ______ ____
ROOT
ATOM      3  O   UNL     1      -5.692  -8.833  12.223  0.00  0.00    -0.336 OA
ATOM      7  N   UNL     1      -5.952 -10.775  11.138  0.00  0.00    -0.193 NA
ATOM      8  N   UNL     1      -6.300  -8.518  11.001  0.00  0.00    -0.060 NA
ATOM     17  C   UNL     1      -5.522 -10.182  12.223  0.00  0.00    +0.245 A 
ATOM     18  C   UNL     1      -6.421  -9.714  10.418  0.00  0.00    +0.193 A 
ENDROOT
BRANCH  17  13
ATOM      6  N   UNL     1      -3.605 -10.120  13.808  0.00  0.00    -0.289 NA
ATOM     13  C   UNL     1      -4.878 -10.781  13.454  0.00  0.00    +0.148 C 
ATOM     14  C   UNL     1      -3.466 -10.240  15.259  0.00  0.00    +0.116 C 
ATOM     15  C   UNL     1      -5.755 -10.645  14.712  0.00  0.00    +0.061 C 
ATOM     16  C   UNL     1      -4.874  -9.936  15.733  0.00  0.00    +0.130 C 
BRANCH  16   2
ATOM      2  O   UNL     1      -5.110 -10.438  17.034  0.00  0.00    -0.390 OA
ATOM     27  H   UNL     1      -4.808 -11.361  17.050  0.00  0.00    +0.210 HD
ENDBRANCH  16   2
BRANCH   6  12
ATOM     12  C   UNL     1      -2.456 -10.670  13.101  0.00  0.00    +0.088 C 
BRANCH  12   9
ATOM      9  C   UNL     1      -1.697  -9.601  12.384  0.00  0.00    +0.003 C 
ATOM     10  C   UNL     1      -2.072  -9.253  10.973  0.00  0.00    +0.005 C 
ATOM     11  C   UNL     1      -0.789  -9.981  11.251  0.00  0.00    +0.005 C 
ENDBRANCH  12   9
ENDBRANCH   6  12
ENDBRANCH  17  13
BRANCH  18  19
ATOM     19  C   UNL     1      -7.020  -9.875   9.089  0.00  0.00    +0.251 C 
BRANCH  19   1
ATOM      1  S   UNL     1      -8.783  -9.853   9.255  0.00  0.00    +0.004 S 
ATOM      4  O   UNL     1      -9.100 -10.256  10.612  0.00  0.00    -0.169 OA
ATOM      5  O   UNL     1      -9.361 -10.556   8.124  0.00  0.00    -0.169 OA
BRANCH   1  20
ATOM     20  C   UNL     1      -9.204  -8.147   9.077  0.00  0.00    +0.089 A 
ATOM     21  C   UNL     1      -8.351  -7.287   8.385  0.00  0.00    +0.027 A 
ATOM     22  C   UNL     1     -10.388  -7.660   9.629  0.00  0.00    +0.027 A 
ATOM     23  C   UNL     1      -8.682  -5.940   8.247  0.00  0.00    +0.005 A 
ATOM     24  C   UNL     1     -10.719  -6.311   9.491  0.00  0.00    +0.005 A 
ATOM     25  C   UNL     1      -9.866  -5.452   8.799  0.00  0.00    -0.050 A 
ATOM     26  C   UNL     1     -10.220  -4.010   8.651  0.00  0.00    +0.044 C 
ENDBRANCH   1  20
ENDBRANCH  19   1
ENDBRANCH  18  19
TORSDOF 7
ENDMDL
MODEL 4
REMARK VINA RESULT:      -3.1      2.763      7.289
REMARK  Name = 26744052
REMARK  8 active torsions:
REMARK  status: ('A' for Active; 'I' for Inactive)
REMARK    1  A    between atoms: S_1  and  C_19
REMARK    2  A    between atoms: S_1  and  C_20
REMARK    3  A    between atoms: O_2  and  C_16
REMARK    4  A    between atoms: N_6  and  C_12
REMARK    5  A    between atoms: C_9  and  C_12
REMARK    6  A    between atoms: C_13  and  C_17
REMARK    7  A    between atoms: C_18  and  C_19
REMARK    8  A    between atoms: C_25  and  C_26
REMARK                            x       y       z     vdW  Elec       q    Type
REMARK                         _______ _______ _______ _____ _____    ______ ____
ROOT
ATOM      3  O   UNL     1      -3.192  -1.057  24.644  0.00  0.00    -0.336 OA
ATOM      7  N   UNL     1      -1.471   0.325  25.028  0.00  0.00    -0.193 NA
ATOM      8  N   UNL     1      -2.041  -1.746  24.240  0.00  0.00    -0.060 NA
ATOM     17  C   UNL     1      -2.767   0.153  25.094  0.00  0.00    +0.245 A 
ATOM     18  C   UNL     1      -1.069  -0.866  24.497  0.00  0.00    +0.193 A 
ENDROOT
BRANCH  17  13
ATOM      6  N   UNL     1      -3.744   2.440  24.984  0.00  0.00    -0.289 NA
ATOM     13  C   UNL     1      -3.837   1.099  25.598  0.00  0.00    +0.148 C 
ATOM     14  C   UNL     1      -5.105   2.976  24.956  0.00  0.00    +0.116 C 
ATOM     15  C   UNL     1      -5.262   0.614  25.273  0.00  0.00    +0.061 C 
ATOM     16  C   UNL     1      -5.907   1.768  24.515  0.00  0.00    +0.130 C 
BRANCH  16   2
ATOM      2  O   UNL     1      -7.274   1.891  24.858  0.00  0.00    -0.390 OA
ATOM     27  H   UNL     1      -7.490   2.839  24.861  0.00  0.00    +0.210 HD
ENDBRANCH  16   2
BRANCH   6  12
ATOM     12  C   UNL     1      -2.820   3.326  25.678  0.00  0.00    +0.088 C 
BRANCH  12   9
ATOM      9  C   UNL     1      -1.907   4.017  24.718  0.00  0.00    +0.003 C 
ATOM     10  C   UNL     1      -0.460   4.192  25.077  0.00  0.00    +0.005 C 
ATOM     11  C   UNL     1      -1.378   5.379  25.061  0.00  0.00    +0.005 C 
ENDBRANCH  12   9
ENDBRANCH   6  12
ENDBRANCH  17  13
BRANCH  18  19
ATOM     19  C   UNL     1       0.342  -1.165  24.226  0.00  0.00    +0.251 C 
BRANCH  19   1
ATOM      1  S   UNL     1       0.939  -0.024  23.009  0.00  0.00    +0.004 S 
ATOM      4  O   UNL     1       0.510   1.304  23.406  0.00  0.00    -0.169 OA
ATOM      5  O   UNL     1       0.612  -0.541  21.693  0.00  0.00    -0.169 OA
BRANCH   1  20
ATOM     20  C   UNL     1       2.695  -0.107  23.178  0.00  0.00    +0.089 A 
ATOM     21  C   UNL     1       3.483   0.988  22.822  0.00  0.00    +0.027 A 
ATOM     22  C   UNL     1       3.294  -1.268  23.666  0.00  0.00    +0.027 A 
ATOM     23  C   UNL     1       4.870   0.920  22.952  0.00  0.00    +0.005 A 
ATOM     24  C   UNL     1       4.682  -1.336  23.797  0.00  0.00    +0.005 A 
ATOM     25  C   UNL     1       5.469  -0.241  23.440  0.00  0.00    -0.050 A 
ATOM     26  C   UNL     1       6.953  -0.312  23.580  0.00  0.00    +0.044 C 
ENDBRANCH   1  20
ENDBRANCH  19   1
ENDBRANCH  18  19
TORSDOF 7
ENDMDL
MODEL 5
REMARK VINA RESULT:      -2.6      1.867      3.592
REMARK  Name = 26744052
REMARK  8 active torsions:
REMARK  status: ('A' for Active; 'I' for Inactive)
REMARK    1  A    between atoms: S_1  and  C_19
REMARK    2  A    between atoms: S_1  and  C_20
REMARK    3  A    between atoms: O_2  and  C_16
REMARK    4  A    between atoms: N_6  and  C_12
REMARK    5  A    between atoms: C_9  and  C_12
REMARK    6  A    between atoms: C_13  and  C_17
REMARK    7  A    between atoms: C_18  and  C_19
REMARK    8  A    between atoms: C_25  and  C_26
REMARK                            x       y       z     vdW  Elec       q    Type
REMARK                         _______ _______ _______ _____ _____    ______ ____
ROOT
ATOM      3  O   UNL     1      -2.630   1.171  23.086  0.00  0.00    -0.336 OA
ATOM      7  N   UNL     1      -3.341   0.896  25.192  0.00  0.00    -0.193 NA
ATOM      8  N   UNL     1      -3.985   1.529  23.090  0.00  0.00    -0.060 NA
ATOM     17  C   UNL     1      -2.332   0.811  24.362  0.00  0.00    +0.245 A 
ATOM     18  C   UNL     1      -4.333   1.340  24.366  0.00  0.00    +0.193 A 
ENDROOT
BRANCH  17  13
ATOM      6  N   UNL     1      -0.618  -0.975  24.108  0.00  0.00    -0.289 NA
ATOM     13  C   UNL     1      -0.906   0.378  24.626  0.00  0.00    +0.148 C 
ATOM     14  C   UNL     1       0.805  -0.994  23.769  0.00  0.00    +0.116 C 
ATOM     15  C   UNL     1       0.129   1.290  23.943  0.00  0.00    +0.061 C 
ATOM     16  C   UNL     1       0.983   0.354  23.097  0.00  0.00    +0.130 C 
BRANCH  16   2
ATOM      2  O   UNL     1       2.336   0.768  23.100  0.00  0.00    -0.390 OA
ATOM     27  H   UNL     1       2.794   0.271  22.402  0.00  0.00    +0.210 HD
ENDBRANCH  16   2
BRANCH   6  12
ATOM     12  C   UNL     1      -0.973  -2.035  25.041  0.00  0.00    +0.088 C 
BRANCH  12   9
ATOM      9  C   UNL     1      -2.092  -2.872  24.513  0.00  0.00    +0.003 C 
ATOM     10  C   UNL     1      -3.289  -2.200  23.907  0.00  0.00    +0.005 C 
ATOM     11  C   UNL     1      -3.406  -2.882  25.239  0.00  0.00    +0.005 C 
ENDBRANCH  12   9
ENDBRANCH   6  12
ENDBRANCH  17  13
BRANCH  18  19
ATOM     19  C   UNL     1      -5.695   1.596  24.847  0.00  0.00    +0.251 C 
BRANCH  19   1
ATOM      1  S   UNL     1      -5.675   3.049  25.861  0.00  0.00    +0.004 S 
ATOM      4  O   UNL     1      -5.710   2.617  27.245  0.00  0.00    -0.169 OA
ATOM      5  O   UNL     1      -6.667   3.979  25.353  0.00  0.00    -0.169 OA
BRANCH   1  20
ATOM     20  C   UNL     1      -4.089   3.760  25.548  0.00  0.00    +0.089 A 
ATOM     21  C   UNL     1      -3.850   4.434  24.350  0.00  0.00    +0.027 A 
ATOM     22  C   UNL     1      -3.074   3.646  26.498  0.00  0.00    +0.027 A 
ATOM     23  C   UNL     1      -2.597   4.993  24.102  0.00  0.00    +0.005 A 
ATOM     24  C   UNL     1      -1.820   4.205  26.250  0.00  0.00    +0.005 A 
ATOM     25  C   UNL     1      -1.582   4.879  25.052  0.00  0.00    -0.050 A 
ATOM     26  C   UNL     1      -0.241   5.477  24.787  0.00  0.00    +0.044 C 
ENDBRANCH   1  20
ENDBRANCH  19   1
ENDBRANCH  18  19
TORSDOF 7
ENDMDL
MODEL 6
REMARK VINA RESULT:      -1.9      2.325      4.357
REMARK  Name = 26744052
REMARK  8 active torsions:
REMARK  status: ('A' for Active; 'I' for Inactive)
REMARK    1  A    between atoms: S_1  and  C_19
REMARK    2  A    between atoms: S_1  and  C_20
REMARK    3  A    between atoms: O_2  and  C_16
REMARK    4  A    between atoms: N_6  and  C_12
REMARK    5  A    between atoms: C_9  and  C_12
REMARK    6  A    between atoms: C_13  and  C_17
REMARK    7  A    between atoms: C_18  and  C_19
REMARK    8  A    between atoms: C_25  and  C_26
REMARK                            x       y       z     vdW  Elec       q    Type
REMARK                         _______ _______ _______ _____ _____    ______ ____
ROOT
ATOM      3  O   UNL     1      -2.565  -1.019  25.921  0.00  0.00    -0.336 OA
ATOM      7  N   UNL     1      -3.195   0.704  24.636  0.00  0.00    -0.193 NA
ATOM      8  N   UNL     1      -3.941  -1.174  25.710  0.00  0.00    -0.060 NA
ATOM     17  C   UNL     1      -2.206   0.110  25.256  0.00  0.00    +0.245 A 
ATOM     18  C   UNL     1      -4.239  -0.120  24.944  0.00  0.00    +0.193 A 
ENDROOT
BRANCH  17  13
ATOM      6  N   UNL     1      -0.399   1.579  24.379  0.00  0.00    -0.289 NA
ATOM     13  C   UNL     1      -0.745   0.501  25.327  0.00  0.00    +0.148 C 
ATOM     14  C   UNL     1       0.706   2.322  24.984  0.00  0.00    +0.116 C 
ATOM     15  C   UNL     1      -0.342   1.047  26.709  0.00  0.00    +0.061 C 
ATOM     16  C   UNL     1       0.263   2.417  26.431  0.00  0.00    +0.130 C 
BRANCH  16   2
ATOM      2  O   UNL     1       1.352   2.670  27.298  0.00  0.00    -0.390 OA
ATOM     27  H   UNL     1       1.839   1.836  27.406  0.00  0.00    +0.210 HD
ENDBRANCH  16   2
BRANCH   6  12
ATOM     12  C   UNL     1      -0.066   1.089  23.049  0.00  0.00    +0.088 C 
BRANCH  12   9
ATOM      9  C   UNL     1       0.947  -0.008  23.111  0.00  0.00    +0.003 C 
ATOM     10  C   UNL     1       2.369   0.283  22.733  0.00  0.00    +0.005 C 
ATOM     11  C   UNL     1       1.512  -0.559  21.835  0.00  0.00    +0.005 C 
ENDBRANCH  12   9
ENDBRANCH   6  12
ENDBRANCH  17  13
BRANCH  18  19
ATOM     19  C   UNL     1      -5.602   0.132  24.465  0.00  0.00    +0.251 C 
BRANCH  19   1
ATOM      1  S   UNL     1      -6.198   1.625  25.212  0.00  0.00    +0.004 S 
ATOM      4  O   UNL     1      -6.477   1.335  26.605  0.00  0.00    -0.169 OA
ATOM      5  O   UNL     1      -7.226   2.189  24.356  0.00  0.00    -0.169 OA
BRANCH   1  20
ATOM     20  C   UNL     1      -4.810   2.714  25.144  0.00  0.00    +0.089 A 
ATOM     21  C   UNL     1      -4.219   3.166  26.325  0.00  0.00    +0.027 A 
ATOM     22  C   UNL     1      -4.305   3.125  23.911  0.00  0.00    +0.027 A 
ATOM     23  C   UNL     1      -3.125   4.028  26.271  0.00  0.00    +0.005 A 
ATOM     24  C   UNL     1      -3.210   3.988  23.857  0.00  0.00    +0.005 A 
ATOM     25  C   UNL     1      -2.620   4.439  25.037  0.00  0.00    -0.050 A 
ATOM     26  C   UNL     1      -1.449   5.362  24.980  0.00  0.00    +0.044 C 
ENDBRANCH   1  20
ENDBRANCH  19   1
ENDBRANCH  18  19
TORSDOF 7
ENDMDL
MODEL 7
REMARK VINA RESULT:      -1.7     15.564     17.503
REMARK  Name = 26744052
REMARK  8 active torsions:
REMARK  status: ('A' for Active; 'I' for Inactive)
REMARK    1  A    between atoms: S_1  and  C_19
REMARK    2  A    between atoms: S_1  and  C_20
REMARK    3  A    between atoms: O_2  and  C_16
REMARK    4  A    between atoms: N_6  and  C_12
REMARK    5  A    between atoms: C_9  and  C_12
REMARK    6  A    between atoms: C_13  and  C_17
REMARK    7  A    between atoms: C_18  and  C_19
REMARK    8  A    between atoms: C_25  and  C_26
REMARK                            x       y       z     vdW  Elec       q    Type
REMARK                         _______ _______ _______ _____ _____    ______ ____
ROOT
ATOM      3  O   UNL     1      -4.015  -8.671  10.987  0.00  0.00    -0.336 OA
ATOM      7  N   UNL     1      -5.074 -10.559  10.412  0.00  0.00    -0.193 NA
ATOM      8  N   UNL     1      -4.892  -8.326   9.951  0.00  0.00    -0.060 NA
ATOM     17  C   UNL     1      -4.185 -10.003  11.196  0.00  0.00    +0.245 A 
ATOM     18  C   UNL     1      -5.480  -9.491   9.665  0.00  0.00    +0.193 A 
ENDROOT
BRANCH  17  13
ATOM      6  N   UNL     1      -2.149  -9.821  12.615  0.00  0.00    -0.289 NA
ATOM     13  C   UNL     1      -3.340 -10.630  12.284  0.00  0.00    +0.148 C 
ATOM     14  C   UNL     1      -1.850 -10.081  14.023  0.00  0.00    +0.116 C 
ATOM     15  C   UNL     1      -4.098 -10.776  13.616  0.00  0.00    +0.061 C 
ATOM     16  C   UNL     1      -3.233 -10.057  14.644  0.00  0.00    +0.130 C 
BRANCH  16   2
ATOM      2  O   UNL     1      -3.262 -10.734  15.886  0.00  0.00    -0.390 OA
ATOM     27  H   UNL     1      -4.100 -10.506  16.323  0.00  0.00    +0.210 HD
ENDBRANCH  16   2
BRANCH   6  12
ATOM     12  C   UNL     1      -1.008 -10.100  11.752  0.00  0.00    +0.088 C 
BRANCH  12   9
ATOM      9  C   UNL     1      -0.448  -8.843  11.169  0.00  0.00    +0.003 C 
ATOM     10  C   UNL     1       1.016  -8.771  10.850  0.00  0.00    +0.005 C 
ATOM     11  C   UNL     1       0.461  -7.989  12.004  0.00  0.00    +0.005 C 
ENDBRANCH  12   9
ENDBRANCH   6  12
ENDBRANCH  17  13
BRANCH  18  19
ATOM     19  C   UNL     1      -6.499  -9.612   8.617  0.00  0.00    +0.251 C 
BRANCH  19   1
ATOM      1  S   UNL     1      -7.913  -8.654   9.087  0.00  0.00    +0.004 S 
ATOM      4  O   UNL     1      -8.991  -8.988   8.175  0.00  0.00    -0.169 OA
ATOM      5  O   UNL     1      -7.497  -7.274   9.262  0.00  0.00    -0.169 OA
BRANCH   1  20
ATOM     20  C   UNL     1      -8.333  -9.277  10.685  0.00  0.00    +0.089 A 
ATOM     21  C   UNL     1      -9.494 -10.031  10.858  0.00  0.00    +0.027 A 
ATOM     22  C   UNL     1      -7.504  -9.014  11.776  0.00  0.00    +0.027 A 
ATOM     23  C   UNL     1      -9.827 -10.520  12.120  0.00  0.00    +0.005 A 
ATOM     24  C   UNL     1      -7.837  -9.503  13.040  0.00  0.00    +0.005 A 
ATOM     25  C   UNL     1      -8.998 -10.257  13.211  0.00  0.00    -0.050 A 
ATOM     26  C   UNL     1      -9.354 -10.781  14.562  0.00  0.00    +0.044 C 
ENDBRANCH   1  20
ENDBRANCH  19   1
ENDBRANCH  18  19
TORSDOF 7
ENDMDL
MODEL 8
REMARK VINA RESULT:      -1.6      2.054      3.702
REMARK  Name = 26744052
REMARK  8 active torsions:
REMARK  status: ('A' for Active; 'I' for Inactive)
REMARK    1  A    between atoms: S_1  and  C_19
REMARK    2  A    between atoms: S_1  and  C_20
REMARK    3  A    between atoms: O_2  and  C_16
REMARK    4  A    between atoms: N_6  and  C_12
REMARK    5  A    between atoms: C_9  and  C_12
REMARK    6  A    between atoms: C_13  and  C_17
REMARK    7  A    between atoms: C_18  and  C_19
REMARK    8  A    between atoms: C_25  and  C_26
REMARK                            x       y       z     vdW  Elec       q    Type
REMARK                         _______ _______ _______ _____ _____    ______ ____
ROOT
ATOM      3  O   UNL     1      -3.366   3.005  22.716  0.00  0.00    -0.336 OA
ATOM      7  N   UNL     1      -3.095   2.379  24.849  0.00  0.00    -0.193 NA
ATOM      8  N   UNL     1      -4.586   3.263  23.355  0.00  0.00    -0.060 NA
ATOM     17  C   UNL     1      -2.545   2.486  23.666  0.00  0.00    +0.245 A 
ATOM     18  C   UNL     1      -4.347   2.867  24.608  0.00  0.00    +0.193 A 
ENDROOT
BRANCH  17  13
ATOM      6  N   UNL     1      -0.107   2.622  24.146  0.00  0.00    -0.289 NA
ATOM     13  C   UNL     1      -1.145   2.121  23.222  0.00  0.00    +0.148 C 
ATOM     14  C   UNL     1       1.012   1.684  24.059  0.00  0.00    +0.116 C 
ATOM     15  C   UNL     1      -0.917   0.599  23.163  0.00  0.00    +0.061 C 
ATOM     16  C   UNL     1       0.297   0.347  24.048  0.00  0.00    +0.130 C 
BRANCH  16   2
ATOM      2  O   UNL     1       1.109  -0.678  23.507  0.00  0.00    -0.390 OA
ATOM     27  H   UNL     1       1.713  -0.973  24.209  0.00  0.00    +0.210 HD
ENDBRANCH  16   2
BRANCH   6  12
ATOM     12  C   UNL     1       0.303   3.991  23.861  0.00  0.00    +0.088 C 
BRANCH  12   9
ATOM      9  C   UNL     1      -0.181   4.933  24.915  0.00  0.00    +0.003 C 
ATOM     10  C   UNL     1      -1.415   4.590  25.697  0.00  0.00    +0.005 C 
ATOM     11  C   UNL     1      -1.452   5.699  24.687  0.00  0.00    +0.005 C 
ENDBRANCH  12   9
ENDBRANCH   6  12
ENDBRANCH  17  13
BRANCH  18  19
ATOM     19  C   UNL     1      -5.367   2.954  25.659  0.00  0.00    +0.251 C 
BRANCH  19   1
ATOM      1  S   UNL     1      -6.268   1.429  25.703  0.00  0.00    +0.004 S 
ATOM      4  O   UNL     1      -7.223   1.453  24.612  0.00  0.00    -0.169 OA
ATOM      5  O   UNL     1      -6.710   1.194  27.066  0.00  0.00    -0.169 OA
BRANCH   1  20
ATOM     20  C   UNL     1      -5.046   0.207  25.336  0.00  0.00    +0.089 A 
ATOM     21  C   UNL     1      -4.127  -0.176  26.313  0.00  0.00    +0.027 A 
ATOM     22  C   UNL     1      -4.999  -0.374  24.069  0.00  0.00    +0.027 A 
ATOM     23  C   UNL     1      -3.161  -1.139  26.023  0.00  0.00    +0.005 A 
ATOM     24  C   UNL     1      -4.033  -1.337  23.778  0.00  0.00    +0.005 A 
ATOM     25  C   UNL     1      -3.114  -1.720  24.755  0.00  0.00    -0.050 A 
ATOM     26  C   UNL     1      -2.081  -2.750  24.445  0.00  0.00    +0.044 C 
ENDBRANCH   1  20
ENDBRANCH  19   1
ENDBRANCH  18  19
TORSDOF 7
ENDMDL
MODEL 9
REMARK VINA RESULT:      -1.4      2.838      4.643
REMARK  Name = 26744052
REMARK  8 active torsions:
REMARK  status: ('A' for Active; 'I' for Inactive)
REMARK    1  A    between atoms: S_1  and  C_19
REMARK    2  A    between atoms: S_1  and  C_20
REMARK    3  A    between atoms: O_2  and  C_16
REMARK    4  A    between atoms: N_6  and  C_12
REMARK    5  A    between atoms: C_9  and  C_12
REMARK    6  A    between atoms: C_13  and  C_17
REMARK    7  A    between atoms: C_18  and  C_19
REMARK    8  A    between atoms: C_25  and  C_26
REMARK                            x       y       z     vdW  Elec       q    Type
REMARK                         _______ _______ _______ _____ _____    ______ ____
ROOT
ATOM      3  O   UNL     1      -0.577   0.011  26.508  0.00  0.00    -0.336 OA
ATOM      7  N   UNL     1      -0.986  -0.091  24.308  0.00  0.00    -0.193 NA
ATOM      8  N   UNL     1      -1.076  -1.275  26.264  0.00  0.00    -0.060 NA
ATOM     17  C   UNL     1      -0.556   0.642  25.304  0.00  0.00    +0.245 A 
ATOM     18  C   UNL     1      -1.294  -1.259  24.946  0.00  0.00    +0.193 A 
ENDROOT
BRANCH  17  13
ATOM      6  N   UNL     1       0.243   2.560  23.936  0.00  0.00    -0.289 NA
ATOM     13  C   UNL     1      -0.047   2.067  25.297  0.00  0.00    +0.148 C 
ATOM     14  C   UNL     1       0.022   4.006  23.963  0.00  0.00    +0.116 C 
ATOM     15  C   UNL     1      -1.070   3.067  25.869  0.00  0.00    +0.061 C 
ATOM     16  C   UNL     1      -1.255   4.110  24.773  0.00  0.00    +0.130 C 
BRANCH  16   2
ATOM      2  O   UNL     1      -1.419   5.400  25.331  0.00  0.00    -0.390 OA
ATOM     27  H   UNL     1      -2.263   5.404  25.814  0.00  0.00    +0.210 HD
ENDBRANCH  16   2
BRANCH   6  12
ATOM     12  C   UNL     1       1.583   2.220  23.475  0.00  0.00    +0.088 C 
BRANCH  12   9
ATOM      9  C   UNL     1       1.792   0.740  23.460  0.00  0.00    +0.003 C 
ATOM     10  C   UNL     1       3.026   0.179  22.816  0.00  0.00    +0.005 C 
ATOM     11  C   UNL     1       1.689  -0.002  22.160  0.00  0.00    +0.005 C 
ENDBRANCH  12   9
ENDBRANCH   6  12
ENDBRANCH  17  13
BRANCH  18  19
ATOM     19  C   UNL     1      -1.828  -2.423  24.231  0.00  0.00    +0.251 C 
BRANCH  19   1
ATOM      1  S   UNL     1      -3.598  -2.359  24.288  0.00  0.00    +0.004 S 
ATOM      4  O   UNL     1      -4.019  -2.984  25.528  0.00  0.00    -0.169 OA
ATOM      5  O   UNL     1      -4.117  -2.825  23.015  0.00  0.00    -0.169 OA
BRANCH   1  20
ATOM     20  C   UNL     1      -3.955  -0.633  24.394  0.00  0.00    +0.089 A 
ATOM     21  C   UNL     1      -3.585   0.222  23.355  0.00  0.00    +0.027 A 
ATOM     22  C   UNL     1      -4.606  -0.123  25.518  0.00  0.00    +0.027 A 
ATOM     23  C   UNL     1      -3.865   1.585  23.441  0.00  0.00    +0.005 A 
ATOM     24  C   UNL     1      -4.886   1.241  25.604  0.00  0.00    +0.005 A 
ATOM     25  C   UNL     1      -4.516   2.095  24.565  0.00  0.00    -0.050 A 
ATOM     26  C   UNL     1      -4.815   3.553  24.655  0.00  0.00    +0.044 C 
ENDBRANCH   1  20
ENDBRANCH  19   1
ENDBRANCH  18  19
TORSDOF 7
ENDMDL
MODEL 10
REMARK VINA RESULT:      -1.0      3.100      6.501
REMARK  Name = 26744052
REMARK  8 active torsions:
REMARK  status: ('A' for Active; 'I' for Inactive)
REMARK    1  A    between atoms: S_1  and  C_19
REMARK    2  A    between atoms: S_1  and  C_20
REMARK    3  A    between atoms: O_2  and  C_16
REMARK    4  A    between atoms: N_6  and  C_12
REMARK    5  A    between atoms: C_9  and  C_12
REMARK    6  A    between atoms: C_13  and  C_17
REMARK    7  A    between atoms: C_18  and  C_19
REMARK    8  A    between atoms: C_25  and  C_26
REMARK                            x       y       z     vdW  Elec       q    Type
REMARK                         _______ _______ _______ _____ _____    ______ ____
ROOT
ATOM      3  O   UNL     1      -3.921   1.503  23.654  0.00  0.00    -0.336 OA
ATOM      7  N   UNL     1      -4.612   0.047  25.209  0.00  0.00    -0.193 NA
ATOM      8  N   UNL     1      -3.818   0.233  23.072  0.00  0.00    -0.060 NA
ATOM     17  C   UNL     1      -4.395   1.303  24.912  0.00  0.00    +0.245 A 
ATOM     18  C   UNL     1      -4.242  -0.572  24.049  0.00  0.00    +0.193 A 
ENDROOT
BRANCH  17  13
ATOM      6  N   UNL     1      -3.762   3.674  25.325  0.00  0.00    -0.289 NA
ATOM     13  C   UNL     1      -4.601   2.539  25.761  0.00  0.00    +0.148 C 
ATOM     14  C   UNL     1      -4.498   4.890  25.670  0.00  0.00    +0.116 C 
ATOM     15  C   UNL     1      -6.045   3.071  25.698  0.00  0.00    +0.061 C 
ATOM     16  C   UNL     1      -5.912   4.524  25.262  0.00  0.00    +0.130 C 
BRANCH  16   2
ATOM      2  O   UNL     1      -6.873   5.334  25.913  0.00  0.00    -0.390 OA
ATOM     27  H   UNL     1      -6.713   6.253  25.639  0.00  0.00    +0.210 HD
ENDBRANCH  16   2
BRANCH   6  12
ATOM     12  C   UNL     1      -2.427   3.658  25.907  0.00  0.00    +0.088 C 
BRANCH  12   9
ATOM      9  C   UNL     1      -1.379   3.902  24.871  0.00  0.00    +0.003 C 
ATOM     10  C   UNL     1       0.038   4.143  25.301  0.00  0.00    +0.005 C 
ATOM     11  C   UNL     1      -0.779   5.271  24.742  0.00  0.00    +0.005 C 
ENDBRANCH  12   9
ENDBRANCH   6  12
ENDBRANCH  17  13
BRANCH  18  19
ATOM     19  C   UNL     1      -4.308  -2.028  23.885  0.00  0.00    +0.251 C 
BRANCH  19   1
ATOM      1  S   UNL     1      -2.875  -2.749  24.636  0.00  0.00    +0.004 S 
ATOM      4  O   UNL     1      -2.487  -3.892  23.832  0.00  0.00    -0.169 OA
ATOM      5  O   UNL     1      -3.127  -2.899  26.058  0.00  0.00    -0.169 OA
BRANCH   1  20
ATOM     20  C   UNL     1      -1.634  -1.505  24.457  0.00  0.00    +0.089 A 
ATOM     21  C   UNL     1      -1.463  -0.542  25.452  0.00  0.00    +0.027 A 
ATOM     22  C   UNL     1      -0.825  -1.486  23.321  0.00  0.00    +0.027 A 
ATOM     23  C   UNL     1      -0.485   0.442  25.308  0.00  0.00    +0.005 A 
ATOM     24  C   UNL     1       0.154  -0.502  23.178  0.00  0.00    +0.005 A 
ATOM     25  C   UNL     1       0.324   0.461  24.172  0.00  0.00    -0.050 A 
ATOM     26  C   UNL     1       1.370   1.513  24.020  0.00  0.00    +0.044 C 
ENDBRANCH   1  20
ENDBRANCH  19   1
ENDBRANCH  18  19
TORSDOF 7
ENDMDL
