MODEL 1
REMARK VINA RESULT:      -1.0      0.000      0.000
REMARK  Name = 11884100
REMARK  9 active torsions:
REMARK  status: ('A' for Active; 'I' for Inactive)
REMARK    1  A    between atoms: O_3  and  C_12
REMARK    2  A    between atoms: O_3  and  C_16
REMARK    3  A    between atoms: N_6  and  C_11
REMARK    4  A    between atoms: N_7  and  C_17
REMARK    5  A    between atoms: N_8  and  C_18
REMARK    6  A    between atoms: C_17  and  C_23
REMARK    7  A    between atoms: C_19  and  C_20
REMARK    8  A    between atoms: C_19  and  C_26
REMARK    9  A    between atoms: C_19  and  C_27
REMARK                            x       y       z     vdW  Elec       q    Type
REMARK                         _______ _______ _______ _____ _____    ______ ____
ROOT
ATOM      1  O   UNL     1      15.608  -7.444  26.350  0.00  0.00    -0.368 OA
ATOM      2  O   UNL     1      17.305  -9.083  24.390  0.00  0.00    -0.368 OA
ATOM      9  C   UNL     1      17.388  -8.919  25.821  0.00  0.00    +0.173 C 
ATOM     10  C   UNL     1      17.027  -7.479  26.121  0.00  0.00    +0.192 C 
ATOM     11  C   UNL     1      16.295  -9.715  26.498  0.00  0.00    +0.131 C 
ATOM     12  C   UNL     1      17.405  -6.774  24.841  0.00  0.00    +0.235 C 
ATOM     13  C   UNL     1      15.099  -8.786  26.378  0.00  0.00    +0.185 C 
ATOM     14  C   UNL     1      17.046  -7.804  23.792  0.00  0.00    +0.207 C 
ENDROOT
BRANCH  11   6
ATOM      4  O   UNL     1      14.476  -9.731  28.739  0.00  0.00    -0.253 OA
ATOM      6  N   UNL     1      16.619  -9.978  27.879  0.00  0.00    -0.292 N 
ATOM      7  N   UNL     1      16.255 -10.249  30.136  0.00  0.00    -0.300 N 
ATOM     15  C   UNL     1      15.673  -9.964  28.903  0.00  0.00    +0.300 C 
ATOM     28  H   UNL     1      17.570 -10.248  28.109  0.00  0.00    +0.151 HD
ATOM     29  H   UNL     1      17.252 -10.439  30.172  0.00  0.00    +0.150 HD
BRANCH   7  17
ATOM     17  C   UNL     1      15.500 -10.299  31.364  0.00  0.00    +0.102 C 
ATOM     23  C   UNL     1      15.392  -8.931  32.006  0.00  0.00    +0.024 C 
ENDBRANCH   7  17
ENDBRANCH  11   6
BRANCH  12   3
ATOM      3  O   UNL     1      16.721  -5.557  24.644  0.00  0.00    -0.442 OA
BRANCH   3  16
ATOM      5  O   UNL     1      17.358  -3.428  25.180  0.00  0.00    -0.226 OA
ATOM      8  N   UNL     1      16.775  -4.987  26.826  0.00  0.00    -0.251 N 
ATOM     16  C   UNL     1      16.990  -4.539  25.537  0.00  0.00    +0.405 C 
ATOM     30  H   UNL     1      16.466  -5.951  26.922  0.00  0.00    +0.158 HD
BRANCH   8  18
ATOM     18  C   UNL     1      16.931  -4.269  28.033  0.00  0.00    +0.036 A 
ATOM     20  C   UNL     1      17.240  -2.852  30.417  0.00  0.00    -0.045 A 
ATOM     21  C   UNL     1      16.789  -4.923  29.257  0.00  0.00    +0.024 A 
ATOM     22  C   UNL     1      17.227  -2.906  28.001  0.00  0.00    +0.024 A 
ATOM     24  C   UNL     1      16.943  -4.214  30.449  0.00  0.00    +0.006 A 
ATOM     25  C   UNL     1      17.382  -2.197  29.193  0.00  0.00    +0.006 A 
BRANCH  20  19
ATOM     19  C   UNL     1      17.405  -2.095  31.691  0.00  0.00    +0.013 C 
ATOM     26  C   UNL     1      16.492  -2.623  32.813  0.00  0.00    +0.012 C 
ATOM     27  C   UNL     1      17.187  -0.580  31.509  0.00  0.00    +0.012 C 
ENDBRANCH  20  19
ENDBRANCH   8  18
ENDBRANCH   3  16
ENDBRANCH  12   3
TORSDOF 6
ENDMDL
MODEL 2
REMARK VINA RESULT:       1.0     19.895     20.957
REMARK  Name = 11884100
REMARK  9 active torsions:
REMARK  status: ('A' for Active; 'I' for Inactive)
REMARK    1  A    between atoms: O_3  and  C_12
REMARK    2  A    between atoms: O_3  and  C_16
REMARK    3  A    between atoms: N_6  and  C_11
REMARK    4  A    between atoms: N_7  and  C_17
REMARK    5  A    between atoms: N_8  and  C_18
REMARK    6  A    between atoms: C_17  and  C_23
REMARK    7  A    between atoms: C_19  and  C_20
REMARK    8  A    between atoms: C_19  and  C_26
REMARK    9  A    between atoms: C_19  and  C_27
REMARK                            x       y       z     vdW  Elec       q    Type
REMARK                         _______ _______ _______ _____ _____    ______ ____
ROOT
ATOM      1  O   UNL     1      -3.415   1.795  25.861  0.00  0.00    -0.368 OA
ATOM      2  O   UNL     1      -6.047   3.115  25.001  0.00  0.00    -0.368 OA
ATOM      9  C   UNL     1      -5.264   2.063  24.400  0.00  0.00    +0.173 C 
ATOM     10  C   UNL     1      -3.807   2.415  24.625  0.00  0.00    +0.192 C 
ATOM     11  C   UNL     1      -5.448   0.775  25.169  0.00  0.00    +0.131 C 
ATOM     12  C   UNL     1      -3.850   3.919  24.742  0.00  0.00    +0.235 C 
ATOM     13  C   UNL     1      -4.478   0.948  26.325  0.00  0.00    +0.185 C 
ATOM     14  C   UNL     1      -5.161   4.147  25.460  0.00  0.00    +0.207 C 
ENDROOT
BRANCH  11   6
ATOM      4  O   UNL     1      -3.491  -1.258  25.779  0.00  0.00    -0.253 OA
ATOM      6  N   UNL     1      -5.102  -0.370  24.361  0.00  0.00    -0.292 N 
ATOM      7  N   UNL     1      -4.004  -2.305  23.773  0.00  0.00    -0.300 N 
ATOM     15  C   UNL     1      -4.139  -1.306  24.734  0.00  0.00    +0.300 C 
ATOM     28  H   UNL     1      -5.629  -0.537  23.509  0.00  0.00    +0.151 HD
ATOM     29  H   UNL     1      -4.590  -2.268  22.945  0.00  0.00    +0.150 HD
BRANCH   7  17
ATOM     17  C   UNL     1      -3.075  -3.401  23.909  0.00  0.00    +0.102 C 
ATOM     23  C   UNL     1      -1.672  -2.907  24.197  0.00  0.00    +0.024 C 
ENDBRANCH   7  17
ENDBRANCH  11   6
BRANCH  12   3
ATOM      3  O   UNL     1      -2.757   4.460  25.450  0.00  0.00    -0.442 OA
BRANCH   3  16
ATOM      5  O   UNL     1      -0.590   4.950  24.908  0.00  0.00    -0.226 OA
ATOM      8  N   UNL     1      -1.453   2.786  24.683  0.00  0.00    -0.251 N 
ATOM     16  C   UNL     1      -1.495   4.131  24.996  0.00  0.00    +0.405 C 
ATOM     30  H   UNL     1      -2.314   2.264  24.826  0.00  0.00    +0.158 HD
BRANCH   8  18
ATOM     18  C   UNL     1      -0.359   2.043  24.187  0.00  0.00    +0.036 A 
ATOM     20  C   UNL     1       1.803   0.576  23.208  0.00  0.00    -0.045 A 
ATOM     21  C   UNL     1       0.867   2.671  23.965  0.00  0.00    +0.024 A 
ATOM     22  C   UNL     1      -0.504   0.681  23.919  0.00  0.00    +0.024 A 
ATOM     24  C   UNL     1       1.948   1.937  23.475  0.00  0.00    +0.006 A 
ATOM     25  C   UNL     1       0.577  -0.052  23.430  0.00  0.00    +0.006 A 
BRANCH  20  19
ATOM     19  C   UNL     1       2.959  -0.208  22.685  0.00  0.00    +0.013 C 
ATOM     26  C   UNL     1       3.433  -1.289  23.675  0.00  0.00    +0.012 C 
ATOM     27  C   UNL     1       4.145   0.688  22.282  0.00  0.00    +0.012 C 
ENDBRANCH  20  19
ENDBRANCH   8  18
ENDBRANCH   3  16
ENDBRANCH  12   3
TORSDOF 6
ENDMDL
MODEL 3
REMARK VINA RESULT:       1.4     18.451     19.843
REMARK  Name = 11884100
REMARK  9 active torsions:
REMARK  status: ('A' for Active; 'I' for Inactive)
REMARK    1  A    between atoms: O_3  and  C_12
REMARK    2  A    between atoms: O_3  and  C_16
REMARK    3  A    between atoms: N_6  and  C_11
REMARK    4  A    between atoms: N_7  and  C_17
REMARK    5  A    between atoms: N_8  and  C_18
REMARK    6  A    between atoms: C_17  and  C_23
REMARK    7  A    between atoms: C_19  and  C_20
REMARK    8  A    between atoms: C_19  and  C_26
REMARK    9  A    between atoms: C_19  and  C_27
REMARK                            x       y       z     vdW  Elec       q    Type
REMARK                         _______ _______ _______ _____ _____    ______ ____
ROOT
ATOM      1  O   UNL     1      -2.406   0.449  23.644  0.00  0.00    -0.368 OA
ATOM      2  O   UNL     1      -5.074  -0.724  24.599  0.00  0.00    -0.368 OA
ATOM      9  C   UNL     1      -4.246   0.329  25.135  0.00  0.00    +0.173 C 
ATOM     10  C   UNL     1      -2.807  -0.089  24.916  0.00  0.00    +0.192 C 
ATOM     11  C   UNL     1      -4.392   1.580  24.299  0.00  0.00    +0.131 C 
ATOM     12  C   UNL     1      -2.905  -1.594  24.880  0.00  0.00    +0.235 C 
ATOM     13  C   UNL     1      -3.443   1.308  23.145  0.00  0.00    +0.185 C 
ATOM     14  C   UNL     1      -4.232  -1.811  24.188  0.00  0.00    +0.207 C 
ENDROOT
BRANCH  11   6
ATOM      4  O   UNL     1      -2.280   3.430  23.629  0.00  0.00    -0.253 OA
ATOM      6  N   UNL     1      -3.995   2.753  25.040  0.00  0.00    -0.292 N 
ATOM      7  N   UNL     1      -2.786   4.647  25.538  0.00  0.00    -0.300 N 
ATOM     15  C   UNL     1      -2.958   3.595  24.642  0.00  0.00    +0.300 C 
ATOM     28  H   UNL     1      -4.537   3.014  25.858  0.00  0.00    +0.151 HD
ATOM     29  H   UNL     1      -3.401   4.707  26.344  0.00  0.00    +0.150 HD
BRANCH   7  17
ATOM     17  C   UNL     1      -1.779   5.667  25.364  0.00  0.00    +0.102 C 
ATOM     23  C   UNL     1      -0.506   5.094  24.776  0.00  0.00    +0.024 C 
ENDBRANCH   7  17
ENDBRANCH  11   6
BRANCH  12   3
ATOM      3  O   UNL     1      -1.841  -2.213  24.192  0.00  0.00    -0.442 OA
BRANCH   3  16
ATOM      5  O   UNL     1      -0.150  -1.969  25.712  0.00  0.00    -0.226 OA
ATOM      8  N   UNL     1       0.117  -1.361  23.467  0.00  0.00    -0.251 N 
ATOM     16  C   UNL     1      -0.563  -1.850  24.565  0.00  0.00    +0.405 C 
ATOM     30  H   UNL     1      -0.398  -1.341  22.591  0.00  0.00    +0.158 HD
BRANCH   8  18
ATOM     18  C   UNL     1       1.446  -0.882  23.409  0.00  0.00    +0.036 A 
ATOM     20  C   UNL     1       4.069   0.061  23.296  0.00  0.00    -0.045 A 
ATOM     21  C   UNL     1       2.501  -1.704  23.808  0.00  0.00    +0.024 A 
ATOM     22  C   UNL     1       1.702   0.411  22.954  0.00  0.00    +0.024 A 
ATOM     24  C   UNL     1       3.812  -1.231  23.752  0.00  0.00    +0.006 A 
ATOM     25  C   UNL     1       3.014   0.883  22.897  0.00  0.00    +0.006 A 
BRANCH  20  19
ATOM     19  C   UNL     1       5.471   0.566  23.234  0.00  0.00    +0.013 C 
ATOM     26  C   UNL     1       6.459  -0.501  22.724  0.00  0.00    +0.012 C 
ATOM     27  C   UNL     1       5.956   1.124  24.586  0.00  0.00    +0.012 C 
ENDBRANCH  20  19
ENDBRANCH   8  18
ENDBRANCH   3  16
ENDBRANCH  12   3
TORSDOF 6
ENDMDL
MODEL 4
REMARK VINA RESULT:       2.1     19.671     21.109
REMARK  Name = 11884100
REMARK  9 active torsions:
REMARK  status: ('A' for Active; 'I' for Inactive)
REMARK    1  A    between atoms: O_3  and  C_12
REMARK    2  A    between atoms: O_3  and  C_16
REMARK    3  A    between atoms: N_6  and  C_11
REMARK    4  A    between atoms: N_7  and  C_17
REMARK    5  A    between atoms: N_8  and  C_18
REMARK    6  A    between atoms: C_17  and  C_23
REMARK    7  A    between atoms: C_19  and  C_20
REMARK    8  A    between atoms: C_19  and  C_26
REMARK    9  A    between atoms: C_19  and  C_27
REMARK                            x       y       z     vdW  Elec       q    Type
REMARK                         _______ _______ _______ _____ _____    ______ ____
ROOT
ATOM      1  O   UNL     1      -3.703   1.626  23.674  0.00  0.00    -0.368 OA
ATOM      2  O   UNL     1      -5.974   1.592  25.735  0.00  0.00    -0.368 OA
ATOM      9  C   UNL     1      -4.717   2.300  25.709  0.00  0.00    +0.173 C 
ATOM     10  C   UNL     1      -3.698   1.366  25.088  0.00  0.00    +0.192 C 
ATOM     11  C   UNL     1      -4.791   3.453  24.735  0.00  0.00    +0.131 C 
ATOM     12  C   UNL     1      -4.267   0.004  25.408  0.00  0.00    +0.235 C 
ATOM     13  C   UNL     1      -4.528   2.770  23.405  0.00  0.00    +0.185 C 
ATOM     14  C   UNL     1      -5.755   0.244  25.292  0.00  0.00    +0.207 C 
ENDROOT
BRANCH  11   6
ATOM      4  O   UNL     1      -1.960   3.265  24.205  0.00  0.00    -0.253 OA
ATOM      6  N   UNL     1      -3.785   4.446  25.023  0.00  0.00    -0.292 N 
ATOM      7  N   UNL     1      -1.683   5.382  25.115  0.00  0.00    -0.300 N 
ATOM     15  C   UNL     1      -2.432   4.271  24.733  0.00  0.00    +0.300 C 
ATOM     28  H   UNL     1      -4.082   5.341  25.399  0.00  0.00    +0.151 HD
ATOM     29  H   UNL     1      -2.162   6.172  25.536  0.00  0.00    +0.150 HD
BRANCH   7  17
ATOM     17  C   UNL     1      -0.255   5.464  24.928  0.00  0.00    +0.102 C 
ATOM     23  C   UNL     1       0.157   4.949  23.564  0.00  0.00    +0.024 C 
ENDBRANCH   7  17
ENDBRANCH  11   6
BRANCH  12   3
ATOM      3  O   UNL     1      -3.824  -1.010  24.535  0.00  0.00    -0.442 OA
BRANCH   3  16
ATOM      5  O   UNL     1      -1.920  -2.256  24.766  0.00  0.00    -0.226 OA
ATOM      8  N   UNL     1      -1.861  -0.061  23.955  0.00  0.00    -0.251 N 
ATOM     16  C   UNL     1      -2.460  -1.205  24.445  0.00  0.00    +0.405 C 
ATOM     30  H   UNL     1      -2.482   0.716  23.742  0.00  0.00    +0.158 HD
BRANCH   8  18
ATOM     18  C   UNL     1      -0.488   0.165  23.710  0.00  0.00    +0.036 A 
ATOM     20  C   UNL     1       2.223   0.613  23.226  0.00  0.00    -0.045 A 
ATOM     21  C   UNL     1       0.136   1.299  24.231  0.00  0.00    +0.024 A 
ATOM     22  C   UNL     1       0.244  -0.745  22.946  0.00  0.00    +0.024 A 
ATOM     24  C   UNL     1       1.491   1.523  23.989  0.00  0.00    +0.006 A 
ATOM     25  C   UNL     1       1.599  -0.521  22.705  0.00  0.00    +0.006 A 
BRANCH  20  19
ATOM     19  C   UNL     1       3.673   0.852  22.968  0.00  0.00    +0.013 C 
ATOM     26  C   UNL     1       4.044   0.675  21.484  0.00  0.00    +0.012 C 
ATOM     27  C   UNL     1       4.580  -0.034  23.844  0.00  0.00    +0.012 C 
ENDBRANCH  20  19
ENDBRANCH   8  18
ENDBRANCH   3  16
ENDBRANCH  12   3
TORSDOF 6
ENDMDL
MODEL 5
REMARK VINA RESULT:       2.2     20.038     20.968
REMARK  Name = 11884100
REMARK  9 active torsions:
REMARK  status: ('A' for Active; 'I' for Inactive)
REMARK    1  A    between atoms: O_3  and  C_12
REMARK    2  A    between atoms: O_3  and  C_16
REMARK    3  A    between atoms: N_6  and  C_11
REMARK    4  A    between atoms: N_7  and  C_17
REMARK    5  A    between atoms: N_8  and  C_18
REMARK    6  A    between atoms: C_17  and  C_23
REMARK    7  A    between atoms: C_19  and  C_20
REMARK    8  A    between atoms: C_19  and  C_26
REMARK    9  A    between atoms: C_19  and  C_27
REMARK                            x       y       z     vdW  Elec       q    Type
REMARK                         _______ _______ _______ _____ _____    ______ ____
ROOT
ATOM      1  O   UNL     1      -2.283  -0.499  24.242  0.00  0.00    -0.368 OA
ATOM      2  O   UNL     1      -3.610  -3.264  24.265  0.00  0.00    -0.368 OA
ATOM      9  C   UNL     1      -3.897  -2.059  25.006  0.00  0.00    +0.173 C 
ATOM     10  C   UNL     1      -2.565  -1.408  25.320  0.00  0.00    +0.192 C 
ATOM     11  C   UNL     1      -4.590  -1.055  24.115  0.00  0.00    +0.131 C 
ATOM     12  C   UNL     1      -1.619  -2.584  25.322  0.00  0.00    +0.235 C 
ATOM     13  C   UNL     1      -3.425  -0.421  23.375  0.00  0.00    +0.185 C 
ATOM     14  C   UNL     1      -2.188  -3.454  24.223  0.00  0.00    +0.207 C 
ENDROOT
BRANCH  11   6
ATOM      4  O   UNL     1      -4.327   1.816  23.979  0.00  0.00    -0.253 OA
ATOM      6  N   UNL     1      -5.313  -0.078  24.893  0.00  0.00    -0.292 N 
ATOM      7  N   UNL     1      -5.944   2.009  25.631  0.00  0.00    -0.300 N 
ATOM     15  C   UNL     1      -5.121   1.297  24.762  0.00  0.00    +0.300 C 
ATOM     28  H   UNL     1      -6.041  -0.402  25.521  0.00  0.00    +0.151 HD
ATOM     29  H   UNL     1      -6.576   1.494  26.236  0.00  0.00    +0.150 HD
BRANCH   7  17
ATOM     17  C   UNL     1      -5.947   3.451  25.701  0.00  0.00    +0.102 C 
ATOM     23  C   UNL     1      -4.571   3.993  26.032  0.00  0.00    +0.024 C 
ENDBRANCH   7  17
ENDBRANCH  11   6
BRANCH  12   3
ATOM      3  O   UNL     1      -0.277  -2.228  25.075  0.00  0.00    -0.442 OA
BRANCH   3  16
ATOM      5  O   UNL     1       0.526  -0.810  23.471  0.00  0.00    -0.226 OA
ATOM      8  N   UNL     1      -0.574  -0.012  25.378  0.00  0.00    -0.251 N 
ATOM     16  C   UNL     1      -0.053  -0.977  24.537  0.00  0.00    +0.405 C 
ATOM     30  H   UNL     1      -1.023  -0.350  26.226  0.00  0.00    +0.158 HD
BRANCH   8  18
ATOM     18  C   UNL     1      -0.560   1.390  25.206  0.00  0.00    +0.036 A 
ATOM     20  C   UNL     1      -0.532   4.159  24.867  0.00  0.00    -0.045 A 
ATOM     21  C   UNL     1       0.205   1.961  24.189  0.00  0.00    +0.024 A 
ATOM     22  C   UNL     1      -1.311   2.204  26.055  0.00  0.00    +0.024 A 
ATOM     24  C   UNL     1       0.219   3.345  24.019  0.00  0.00    +0.006 A 
ATOM     25  C   UNL     1      -1.298   3.589  25.884  0.00  0.00    +0.006 A 
BRANCH  20  19
ATOM     19  C   UNL     1      -0.518   5.639  24.684  0.00  0.00    +0.013 C 
ATOM     26  C   UNL     1      -1.879   6.285  25.005  0.00  0.00    +0.012 C 
ATOM     27  C   UNL     1      -0.062   6.055  23.273  0.00  0.00    +0.012 C 
ENDBRANCH  20  19
ENDBRANCH   8  18
ENDBRANCH   3  16
ENDBRANCH  12   3
TORSDOF 6
ENDMDL
MODEL 6
REMARK VINA RESULT:       2.8     20.324     21.818
REMARK  Name = 11884100
REMARK  9 active torsions:
REMARK  status: ('A' for Active; 'I' for Inactive)
REMARK    1  A    between atoms: O_3  and  C_12
REMARK    2  A    between atoms: O_3  and  C_16
REMARK    3  A    between atoms: N_6  and  C_11
REMARK    4  A    between atoms: N_7  and  C_17
REMARK    5  A    between atoms: N_8  and  C_18
REMARK    6  A    between atoms: C_17  and  C_23
REMARK    7  A    between atoms: C_19  and  C_20
REMARK    8  A    between atoms: C_19  and  C_26
REMARK    9  A    between atoms: C_19  and  C_27
REMARK                            x       y       z     vdW  Elec       q    Type
REMARK                         _______ _______ _______ _____ _____    ______ ____
ROOT
ATOM      1  O   UNL     1      -2.746   3.135  24.053  0.00  0.00    -0.368 OA
ATOM      2  O   UNL     1      -1.347   5.505  25.408  0.00  0.00    -0.368 OA
ATOM      9  C   UNL     1      -1.030   4.098  25.377  0.00  0.00    +0.173 C 
ATOM     10  C   UNL     1      -2.346   3.349  25.418  0.00  0.00    +0.192 C 
ATOM     11  C   UNL     1      -0.444   3.728  24.034  0.00  0.00    +0.131 C 
ATOM     12  C   UNL     1      -3.256   4.326  26.121  0.00  0.00    +0.235 C 
ATOM     13  C   UNL     1      -1.686   3.551  23.178  0.00  0.00    +0.185 C 
ATOM     14  C   UNL     1      -2.762   5.656  25.597  0.00  0.00    +0.207 C 
ENDROOT
BRANCH  11   6
ATOM      4  O   UNL     1      -1.370   1.061  23.434  0.00  0.00    -0.253 OA
ATOM      6  N   UNL     1       0.317   2.504  24.115  0.00  0.00    -0.292 N 
ATOM      7  N   UNL     1       0.735   0.246  23.970  0.00  0.00    -0.300 N 
ATOM     15  C   UNL     1      -0.213   1.253  23.806  0.00  0.00    +0.300 C 
ATOM     28  H   UNL     1       1.303   2.563  24.348  0.00  0.00    +0.151 HD
ATOM     29  H   UNL     1       1.670   0.501  24.272  0.00  0.00    +0.150 HD
BRANCH   7  17
ATOM     17  C   UNL     1       0.450  -1.147  23.717  0.00  0.00    +0.102 C 
ATOM     23  C   UNL     1      -0.046  -1.847  24.966  0.00  0.00    +0.024 C 
ENDBRANCH   7  17
ENDBRANCH  11   6
BRANCH  12   3
ATOM      3  O   UNL     1      -4.623   4.123  25.844  0.00  0.00    -0.442 OA
BRANCH   3  16
ATOM      5  O   UNL     1      -6.143   2.575  25.119  0.00  0.00    -0.226 OA
ATOM      8  N   UNL     1      -3.902   2.013  25.497  0.00  0.00    -0.251 N 
ATOM     16  C   UNL     1      -4.998   2.854  25.450  0.00  0.00    +0.405 C 
ATOM     30  H   UNL     1      -3.026   2.433  25.799  0.00  0.00    +0.158 HD
BRANCH   8  18
ATOM     18  C   UNL     1      -3.846   0.638  25.176  0.00  0.00    +0.036 A 
ATOM     20  C   UNL     1      -3.735  -2.077  24.544  0.00  0.00    -0.045 A 
ATOM     21  C   UNL     1      -3.336  -0.273  26.101  0.00  0.00    +0.024 A 
ATOM     22  C   UNL     1      -4.301   0.193  23.935  0.00  0.00    +0.024 A 
ATOM     24  C   UNL     1      -3.281  -1.631  25.785  0.00  0.00    +0.006 A 
ATOM     25  C   UNL     1      -4.246  -1.165  23.619  0.00  0.00    +0.006 A 
BRANCH  20  19
ATOM     19  C   UNL     1      -3.677  -3.528  24.206  0.00  0.00    +0.013 C 
ATOM     26  C   UNL     1      -2.318  -3.940  23.609  0.00  0.00    +0.012 C 
ATOM     27  C   UNL     1      -4.815  -3.960  23.261  0.00  0.00    +0.012 C 
ENDBRANCH  20  19
ENDBRANCH   8  18
ENDBRANCH   3  16
ENDBRANCH  12   3
TORSDOF 6
ENDMDL
MODEL 7
REMARK VINA RESULT:       2.9     19.706     20.685
REMARK  Name = 11884100
REMARK  9 active torsions:
REMARK  status: ('A' for Active; 'I' for Inactive)
REMARK    1  A    between atoms: O_3  and  C_12
REMARK    2  A    between atoms: O_3  and  C_16
REMARK    3  A    between atoms: N_6  and  C_11
REMARK    4  A    between atoms: N_7  and  C_17
REMARK    5  A    between atoms: N_8  and  C_18
REMARK    6  A    between atoms: C_17  and  C_23
REMARK    7  A    between atoms: C_19  and  C_20
REMARK    8  A    between atoms: C_19  and  C_26
REMARK    9  A    between atoms: C_19  and  C_27
REMARK                            x       y       z     vdW  Elec       q    Type
REMARK                         _______ _______ _______ _____ _____    ______ ____
ROOT
ATOM      1  O   UNL     1      -2.764  -0.712  25.682  0.00  0.00    -0.368 OA
ATOM      2  O   UNL     1      -2.609  -3.424  24.259  0.00  0.00    -0.368 OA
ATOM      9  C   UNL     1      -1.816  -2.227  24.124  0.00  0.00    +0.173 C 
ATOM     10  C   UNL     1      -2.760  -1.053  24.286  0.00  0.00    +0.192 C 
ATOM     11  C   UNL     1      -0.871  -2.096  25.296  0.00  0.00    +0.131 C 
ATOM     12  C   UNL     1      -4.082  -1.635  23.847  0.00  0.00    +0.235 C 
ATOM     13  C   UNL     1      -1.763  -1.484  26.363  0.00  0.00    +0.185 C 
ATOM     14  C   UNL     1      -3.992  -3.054  24.361  0.00  0.00    +0.207 C 
ENDROOT
BRANCH  11   6
ATOM      4  O   UNL     1      -0.013  -1.258  22.670  0.00  0.00    -0.253 OA
ATOM      6  N   UNL     1       0.239  -1.230  24.979  0.00  0.00    -0.292 N 
ATOM      7  N   UNL     1       1.693  -0.032  23.656  0.00  0.00    -0.300 N 
ATOM     15  C   UNL     1       0.585  -0.876  23.676  0.00  0.00    +0.300 C 
ATOM     28  H   UNL     1       0.755  -0.806  25.743  0.00  0.00    +0.151 HD
ATOM     29  H   UNL     1       2.116   0.238  24.538  0.00  0.00    +0.150 HD
BRANCH   7  17
ATOM     17  C   UNL     1       2.261   0.485  22.434  0.00  0.00    +0.102 C 
ATOM     23  C   UNL     1       3.738   0.781  22.590  0.00  0.00    +0.024 C 
ENDBRANCH   7  17
ENDBRANCH  11   6
BRANCH  12   3
ATOM      3  O   UNL     1      -5.199  -0.952  24.370  0.00  0.00    -0.442 OA
BRANCH   3  16
ATOM      5  O   UNL     1      -5.724   0.874  25.644  0.00  0.00    -0.226 OA
ATOM      8  N   UNL     1      -3.850   0.852  24.241  0.00  0.00    -0.251 N 
ATOM     16  C   UNL     1      -4.985   0.331  24.832  0.00  0.00    +0.405 C 
ATOM     30  H   UNL     1      -3.364   0.244  23.587  0.00  0.00    +0.158 HD
BRANCH   8  18
ATOM     18  C   UNL     1      -3.277   2.130  24.434  0.00  0.00    +0.036 A 
ATOM     20  C   UNL     1      -2.146   4.651  24.814  0.00  0.00    -0.045 A 
ATOM     21  C   UNL     1      -1.931   2.245  24.784  0.00  0.00    +0.024 A 
ATOM     22  C   UNL     1      -4.058   3.275  24.275  0.00  0.00    +0.024 A 
ATOM     24  C   UNL     1      -1.366   3.506  24.974  0.00  0.00    +0.006 A 
ATOM     25  C   UNL     1      -3.491   4.536  24.464  0.00  0.00    +0.006 A 
BRANCH  20  19
ATOM     19  C   UNL     1      -1.540   5.999  25.017  0.00  0.00    +0.013 C 
ATOM     26  C   UNL     1      -2.267   7.097  24.218  0.00  0.00    +0.012 C 
ATOM     27  C   UNL     1      -0.035   6.024  24.690  0.00  0.00    +0.012 C 
ENDBRANCH  20  19
ENDBRANCH   8  18
ENDBRANCH   3  16
ENDBRANCH  12   3
TORSDOF 6
ENDMDL
