MODEL 1
REMARK VINA RESULT:       2.1      0.000      0.000
REMARK  Name = 40779205
REMARK  6 active torsions:
REMARK  status: ('A' for Active; 'I' for Inactive)
REMARK    1  A    between atoms: N_3  and  C_18
REMARK    2  A    between atoms: N_4  and  C_14
REMARK    3  A    between atoms: N_6  and  C_20
REMARK    4  A    between atoms: C_8  and  C_15
REMARK    5  A    between atoms: C_9  and  C_14
REMARK    6  A    between atoms: C_17  and  C_26
REMARK                            x       y       z     vdW  Elec       q    Type
REMARK                         _______ _______ _______ _____ _____    ______ ____
ROOT
ATOM      2  N   UNL     1      -4.368   4.434  24.813  0.00  0.00    -0.297 NA
ATOM      7  C   UNL     1      -2.536   3.368  26.328  0.00  0.00    +0.002 C 
ATOM      8  C   UNL     1      -1.938   3.768  24.950  0.00  0.00    +0.055 C 
ATOM      9  C   UNL     1      -4.860   3.150  25.379  0.00  0.00    +0.074 C 
ATOM     10  C   UNL     1      -3.721   2.404  26.109  0.00  0.00    +0.024 C 
ATOM     11  C   UNL     1      -3.109   4.657  26.956  0.00  0.00    +0.019 C 
ATOM     12  C   UNL     1      -3.122   4.204  24.041  0.00  0.00    +0.094 C 
ATOM     13  C   UNL     1      -4.049   5.337  25.945  0.00  0.00    +0.085 C 
ENDROOT
BRANCH   8  15
ATOM      3  N   UNL     1      -1.391   2.028  23.187  0.00  0.00    -0.270 N 
ATOM      5  N   UNL     1      -0.425   1.219  22.721  0.00  0.00    -0.171 NA
ATOM     15  C   UNL     1      -1.009   2.783  24.256  0.00  0.00    +0.044 A 
ATOM     16  C   UNL     1       0.299   2.445  24.507  0.00  0.00    +0.053 A 
ATOM     17  C   UNL     1       0.605   1.478  23.530  0.00  0.00    +0.093 A 
ATOM     18  C   UNL     1      -2.686   2.021  22.547  0.00  0.00    +0.172 C 
BRANCH  17  26
ATOM     26  C   UNL     1       1.862   0.798  23.357  0.00  0.00    +0.002 A 
ATOM     27  C   UNL     1       1.934  -0.586  23.520  0.00  0.00    +0.010 A 
ATOM     28  C   UNL     1       3.008   1.521  23.025  0.00  0.00    +0.010 A 
ATOM     29  C   UNL     1       3.151  -1.245  23.353  0.00  0.00    +0.001 A 
ATOM     30  C   UNL     1       4.225   0.861  22.858  0.00  0.00    +0.001 A 
ATOM     31  C   UNL     1       4.297  -0.522  23.022  0.00  0.00    +0.000 A 
ENDBRANCH  17  26
ENDBRANCH   8  15
BRANCH   9  14
ATOM     14  C   UNL     1      -5.535   2.270  24.326  0.00  0.00    +0.124 C 
BRANCH  14   4
ATOM      1  O   UNL     1      -4.987   0.018  26.029  0.00  0.00    -0.253 OA
ATOM      4  N   UNL     1      -4.721   1.137  24.011  0.00  0.00    -0.298 N 
ATOM      6  N   UNL     1      -3.675  -0.897  24.346  0.00  0.00    -0.297 N 
ATOM     19  C   UNL     1      -4.503   0.076  24.899  0.00  0.00    +0.300 C 
ATOM     32  H   UNL     1      -4.276   1.099  23.099  0.00  0.00    +0.150 HD
ATOM     33  H   UNL     1      -3.270  -0.713  23.433  0.00  0.00    +0.151 HD
BRANCH   6  20
ATOM     20  C   UNL     1      -3.288  -2.100  25.049  0.00  0.00    +0.074 C 
ATOM     21  C   UNL     1      -2.310  -2.935  24.216  0.00  0.00    +0.022 C 
ATOM     22  C   UNL     1      -2.703  -1.769  26.426  0.00  0.00    +0.022 C 
ATOM     23  C   UNL     1      -0.923  -2.296  24.129  0.00  0.00    +0.002 C 
ATOM     24  C   UNL     1      -1.316  -1.133  26.336  0.00  0.00    +0.002 C 
ATOM     25  C   UNL     1      -0.358  -1.987  25.512  0.00  0.00    +0.000 C 
ENDBRANCH   6  20
ENDBRANCH  14   4
ENDBRANCH   9  14
TORSDOF 5
ENDMDL
MODEL 2
REMARK VINA RESULT:       2.9      1.248      1.733
REMARK  Name = 40779205
REMARK  6 active torsions:
REMARK  status: ('A' for Active; 'I' for Inactive)
REMARK    1  A    between atoms: N_3  and  C_18
REMARK    2  A    between atoms: N_4  and  C_14
REMARK    3  A    between atoms: N_6  and  C_20
REMARK    4  A    between atoms: C_8  and  C_15
REMARK    5  A    between atoms: C_9  and  C_14
REMARK    6  A    between atoms: C_17  and  C_26
REMARK                            x       y       z     vdW  Elec       q    Type
REMARK                         _______ _______ _______ _____ _____    ______ ____
ROOT
ATOM      2  N   UNL     1      -4.167   4.754  24.724  0.00  0.00    -0.297 NA
ATOM      7  C   UNL     1      -2.960   3.563  26.701  0.00  0.00    +0.002 C 
ATOM      8  C   UNL     1      -1.927   4.053  25.649  0.00  0.00    +0.055 C 
ATOM      9  C   UNL     1      -4.807   3.439  24.992  0.00  0.00    +0.074 C 
ATOM     10  C   UNL     1      -3.982   2.631  26.017  0.00  0.00    +0.024 C 
ATOM     11  C   UNL     1      -3.734   4.811  27.180  0.00  0.00    +0.019 C 
ATOM     12  C   UNL     1      -2.728   4.565  24.418  0.00  0.00    +0.094 C 
ATOM     13  C   UNL     1      -4.274   5.571  25.956  0.00  0.00    +0.085 C 
ENDROOT
BRANCH   8  15
ATOM      3  N   UNL     1       0.020   2.509  26.162  0.00  0.00    -0.270 N 
ATOM      5  N   UNL     1       0.951   1.712  25.610  0.00  0.00    -0.171 NA
ATOM     15  C   UNL     1      -0.802   3.108  25.253  0.00  0.00    +0.044 A 
ATOM     16  C   UNL     1      -0.379   2.673  24.020  0.00  0.00    +0.053 A 
ATOM     17  C   UNL     1       0.703   1.816  24.302  0.00  0.00    +0.093 A 
ATOM     18  C   UNL     1      -0.022   2.654  27.599  0.00  0.00    +0.172 C 
BRANCH  17  26
ATOM     26  C   UNL     1       1.502   1.097  23.345  0.00  0.00    +0.002 A 
ATOM     27  C   UNL     1       2.867   1.366  23.235  0.00  0.00    +0.010 A 
ATOM     28  C   UNL     1       0.914   0.130  22.530  0.00  0.00    +0.010 A 
ATOM     29  C   UNL     1       3.642   0.669  22.308  0.00  0.00    +0.001 A 
ATOM     30  C   UNL     1       1.689  -0.567  21.603  0.00  0.00    +0.001 A 
ATOM     31  C   UNL     1       3.053  -0.297  21.492  0.00  0.00    +0.000 A 
ENDBRANCH  17  26
ENDBRANCH   8  15
BRANCH   9  14
ATOM     14  C   UNL     1      -5.062   2.643  23.711  0.00  0.00    +0.124 C 
BRANCH  14   4
ATOM      1  O   UNL     1      -5.066   0.313  25.396  0.00  0.00    -0.253 OA
ATOM      4  N   UNL     1      -4.178   1.522  23.623  0.00  0.00    -0.298 N 
ATOM      6  N   UNL     1      -3.274  -0.529  24.184  0.00  0.00    -0.297 N 
ATOM     19  C   UNL     1      -4.246   0.421  24.484  0.00  0.00    +0.300 C 
ATOM     32  H   UNL     1      -3.465   1.525  22.901  0.00  0.00    +0.150 HD
ATOM     33  H   UNL     1      -2.600  -0.305  23.457  0.00  0.00    +0.151 HD
BRANCH   6  20
ATOM     20  C   UNL     1      -3.120  -1.765  24.918  0.00  0.00    +0.074 C 
ATOM     21  C   UNL     1      -2.205  -2.741  24.171  0.00  0.00    +0.022 C 
ATOM     22  C   UNL     1      -2.609  -1.502  26.338  0.00  0.00    +0.022 C 
ATOM     23  C   UNL     1      -0.740  -2.306  24.197  0.00  0.00    +0.002 C 
ATOM     24  C   UNL     1      -1.142  -1.068  26.362  0.00  0.00    +0.002 C 
ATOM     25  C   UNL     1      -0.251  -2.060  25.622  0.00  0.00    +0.000 C 
ENDBRANCH   6  20
ENDBRANCH  14   4
ENDBRANCH   9  14
TORSDOF 5
ENDMDL
MODEL 3
REMARK VINA RESULT:       3.2      1.974      5.721
REMARK  Name = 40779205
REMARK  6 active torsions:
REMARK  status: ('A' for Active; 'I' for Inactive)
REMARK    1  A    between atoms: N_3  and  C_18
REMARK    2  A    between atoms: N_4  and  C_14
REMARK    3  A    between atoms: N_6  and  C_20
REMARK    4  A    between atoms: C_8  and  C_15
REMARK    5  A    between atoms: C_9  and  C_14
REMARK    6  A    between atoms: C_17  and  C_26
REMARK                            x       y       z     vdW  Elec       q    Type
REMARK                         _______ _______ _______ _____ _____    ______ ____
ROOT
ATOM      2  N   UNL     1      -1.830   4.677  26.026  0.00  0.00    -0.297 NA
ATOM      7  C   UNL     1      -2.850   4.011  23.723  0.00  0.00    +0.002 C 
ATOM      8  C   UNL     1      -3.695   3.417  24.885  0.00  0.00    +0.055 C 
ATOM      9  C   UNL     1      -0.771   4.118  25.144  0.00  0.00    +0.074 C 
ATOM     10  C   UNL     1      -1.390   3.529  23.857  0.00  0.00    +0.024 C 
ATOM     11  C   UNL     1      -2.841   5.543  23.916  0.00  0.00    +0.019 C 
ATOM     12  C   UNL     1      -2.918   3.684  26.206  0.00  0.00    +0.094 C 
ATOM     13  C   UNL     1      -2.399   5.869  25.354  0.00  0.00    +0.085 C 
ENDROOT
BRANCH   8  15
ATOM      3  N   UNL     1      -5.465   1.599  24.908  0.00  0.00    -0.270 N 
ATOM      5  N   UNL     1      -5.668   0.278  24.772  0.00  0.00    -0.171 NA
ATOM     15  C   UNL     1      -4.160   1.973  24.770  0.00  0.00    +0.044 A 
ATOM     16  C   UNL     1      -3.461   0.816  24.527  0.00  0.00    +0.053 A 
ATOM     17  C   UNL     1      -4.441  -0.196  24.540  0.00  0.00    +0.093 A 
ATOM     18  C   UNL     1      -6.591   2.462  25.177  0.00  0.00    +0.172 C 
BRANCH  17  26
ATOM     26  C   UNL     1      -4.226  -1.605  24.335  0.00  0.00    +0.002 A 
ATOM     27  C   UNL     1      -4.919  -2.276  23.328  0.00  0.00    +0.010 A 
ATOM     28  C   UNL     1      -3.323  -2.297  25.142  0.00  0.00    +0.010 A 
ATOM     29  C   UNL     1      -4.711  -3.641  23.130  0.00  0.00    +0.001 A 
ATOM     30  C   UNL     1      -3.114  -3.662  24.943  0.00  0.00    +0.001 A 
ATOM     31  C   UNL     1      -3.808  -4.334  23.937  0.00  0.00    +0.000 A 
ENDBRANCH  17  26
ENDBRANCH   8  15
BRANCH   9  14
ATOM     14  C   UNL     1       0.114   3.102  25.868  0.00  0.00    +0.124 C 
BRANCH  14   4
ATOM      1  O   UNL     1       0.228   0.882  24.044  0.00  0.00    -0.253 OA
ATOM      4  N   UNL     1       1.225   2.722  25.052  0.00  0.00    -0.298 N 
ATOM      6  N   UNL     1       2.408   1.472  23.508  0.00  0.00    -0.297 N 
ATOM     19  C   UNL     1       1.201   1.622  24.185  0.00  0.00    +0.300 C 
ATOM     32  H   UNL     1       2.075   3.274  25.103  0.00  0.00    +0.150 HD
ATOM     33  H   UNL     1       3.171   2.096  23.755  0.00  0.00    +0.151 HD
BRANCH   6  20
ATOM     20  C   UNL     1       2.655   0.417  22.552  0.00  0.00    +0.074 C 
ATOM     21  C   UNL     1       4.035   0.570  21.904  0.00  0.00    +0.022 C 
ATOM     22  C   UNL     1       2.497  -0.962  23.201  0.00  0.00    +0.022 C 
ATOM     23  C   UNL     1       5.174   0.240  22.869  0.00  0.00    +0.002 C 
ATOM     24  C   UNL     1       3.639  -1.291  24.164  0.00  0.00    +0.002 C 
ATOM     25  C   UNL     1       5.000  -1.141  23.493  0.00  0.00    +0.000 C 
ENDBRANCH   6  20
ENDBRANCH  14   4
ENDBRANCH   9  14
TORSDOF 5
ENDMDL
MODEL 4
REMARK VINA RESULT:       3.5      2.398      3.405
REMARK  Name = 40779205
REMARK  6 active torsions:
REMARK  status: ('A' for Active; 'I' for Inactive)
REMARK    1  A    between atoms: N_3  and  C_18
REMARK    2  A    between atoms: N_4  and  C_14
REMARK    3  A    between atoms: N_6  and  C_20
REMARK    4  A    between atoms: C_8  and  C_15
REMARK    5  A    between atoms: C_9  and  C_14
REMARK    6  A    between atoms: C_17  and  C_26
REMARK                            x       y       z     vdW  Elec       q    Type
REMARK                         _______ _______ _______ _____ _____    ______ ____
ROOT
ATOM      2  N   UNL     1      -4.478   2.771  23.184  0.00  0.00    -0.297 NA
ATOM      7  C   UNL     1      -3.156   4.635  24.435  0.00  0.00    +0.002 C 
ATOM      8  C   UNL     1      -2.192   3.514  23.953  0.00  0.00    +0.055 C 
ATOM      9  C   UNL     1      -5.128   3.068  24.488  0.00  0.00    +0.074 C 
ATOM     10  C   UNL     1      -4.249   4.017  25.331  0.00  0.00    +0.024 C 
ATOM     11  C   UNL     1      -3.860   5.188  23.177  0.00  0.00    +0.019 C 
ATOM     12  C   UNL     1      -3.070   2.355  23.402  0.00  0.00    +0.094 C 
ATOM     13  C   UNL     1      -4.471   4.020  22.384  0.00  0.00    +0.085 C 
ENDROOT
BRANCH   8  15
ATOM      3  N   UNL     1      -0.210   2.064  24.589  0.00  0.00    -0.270 N 
ATOM      5  N   UNL     1       0.647   1.768  25.581  0.00  0.00    -0.171 NA
ATOM     15  C   UNL     1      -1.124   3.022  24.917  0.00  0.00    +0.044 A 
ATOM     16  C   UNL     1      -0.844   3.379  26.215  0.00  0.00    +0.053 A 
ATOM     17  C   UNL     1       0.256   2.574  26.571  0.00  0.00    +0.093 A 
ATOM     18  C   UNL     1      -0.094   1.371  23.327  0.00  0.00    +0.172 C 
BRANCH  17  26
ATOM     26  C   UNL     1       0.937   2.562  27.839  0.00  0.00    +0.002 A 
ATOM     27  C   UNL     1       0.224   2.303  29.010  0.00  0.00    +0.010 A 
ATOM     28  C   UNL     1       2.309   2.806  27.897  0.00  0.00    +0.010 A 
ATOM     29  C   UNL     1       0.884   2.291  30.239  0.00  0.00    +0.001 A 
ATOM     30  C   UNL     1       2.969   2.793  29.126  0.00  0.00    +0.001 A 
ATOM     31  C   UNL     1       2.256   2.536  30.297  0.00  0.00    +0.000 A 
ENDBRANCH  17  26
ENDBRANCH   8  15
BRANCH   9  14
ATOM     14  C   UNL     1      -5.498   1.799  25.256  0.00  0.00    +0.124 C 
BRANCH  14   4
ATOM      1  O   UNL     1      -4.058  -0.360  26.496  0.00  0.00    -0.253 OA
ATOM      4  N   UNL     1      -4.971   0.638  24.608  0.00  0.00    -0.298 N 
ATOM      6  N   UNL     1      -3.873  -1.387  24.423  0.00  0.00    -0.297 N 
ATOM     19  C   UNL     1      -4.279  -0.373  25.285  0.00  0.00    +0.300 C 
ATOM     32  H   UNL     1      -5.102   0.542  23.606  0.00  0.00    +0.150 HD
ATOM     33  H   UNL     1      -4.043  -1.261  23.429  0.00  0.00    +0.151 HD
BRANCH   6  20
ATOM     20  C   UNL     1      -3.139  -2.553  24.861  0.00  0.00    +0.074 C 
ATOM     21  C   UNL     1      -2.109  -2.983  23.811  0.00  0.00    +0.022 C 
ATOM     22  C   UNL     1      -2.476  -2.308  26.220  0.00  0.00    +0.022 C 
ATOM     23  C   UNL     1      -0.925  -2.020  23.724  0.00  0.00    +0.002 C 
ATOM     24  C   UNL     1      -1.292  -1.345  26.129  0.00  0.00    +0.002 C 
ATOM     25  C   UNL     1      -0.276  -1.801  25.086  0.00  0.00    +0.000 C 
ENDBRANCH   6  20
ENDBRANCH  14   4
ENDBRANCH   9  14
TORSDOF 5
ENDMDL
MODEL 5
REMARK VINA RESULT:       3.8      2.203      6.703
REMARK  Name = 40779205
REMARK  6 active torsions:
REMARK  status: ('A' for Active; 'I' for Inactive)
REMARK    1  A    between atoms: N_3  and  C_18
REMARK    2  A    between atoms: N_4  and  C_14
REMARK    3  A    between atoms: N_6  and  C_20
REMARK    4  A    between atoms: C_8  and  C_15
REMARK    5  A    between atoms: C_9  and  C_14
REMARK    6  A    between atoms: C_17  and  C_26
REMARK                            x       y       z     vdW  Elec       q    Type
REMARK                         _______ _______ _______ _____ _____    ______ ____
ROOT
ATOM      2  N   UNL     1      -2.909  -2.402  23.887  0.00  0.00    -0.297 NA
ATOM      7  C   UNL     1      -2.834  -1.155  26.173  0.00  0.00    +0.002 C 
ATOM      8  C   UNL     1      -3.883  -0.501  25.230  0.00  0.00    +0.055 C 
ATOM      9  C   UNL     1      -1.503  -2.069  24.239  0.00  0.00    +0.074 C 
ATOM     10  C   UNL     1      -1.455  -1.152  25.480  0.00  0.00    +0.024 C 
ATOM     11  C   UNL     1      -3.251  -2.631  26.348  0.00  0.00    +0.019 C 
ATOM     12  C   UNL     1      -3.726  -1.165  23.832  0.00  0.00    +0.094 C 
ATOM     13  C   UNL     1      -3.453  -3.267  24.961  0.00  0.00    +0.085 C 
ENDROOT
BRANCH   8  15
ATOM      3  N   UNL     1      -5.038   1.748  25.448  0.00  0.00    -0.270 N 
ATOM      5  N   UNL     1      -4.871   3.074  25.310  0.00  0.00    -0.171 NA
ATOM     15  C   UNL     1      -3.926   1.018  25.147  0.00  0.00    +0.044 A 
ATOM     16  C   UNL     1      -2.964   1.930  24.786  0.00  0.00    +0.053 A 
ATOM     17  C   UNL     1      -3.603   3.180  24.906  0.00  0.00    +0.093 A 
ATOM     18  C   UNL     1      -6.320   1.240  25.879  0.00  0.00    +0.172 C 
BRANCH  17  26
ATOM     26  C   UNL     1      -3.024   4.471  24.640  0.00  0.00    +0.002 A 
ATOM     27  C   UNL     1      -3.682   5.371  23.802  0.00  0.00    +0.010 A 
ATOM     28  C   UNL     1      -1.806   4.823  25.222  0.00  0.00    +0.010 A 
ATOM     29  C   UNL     1      -3.121   6.622  23.544  0.00  0.00    +0.001 A 
ATOM     30  C   UNL     1      -1.245   6.074  24.964  0.00  0.00    +0.001 A 
ATOM     31  C   UNL     1      -1.902   6.973  24.126  0.00  0.00    +0.000 A 
ENDBRANCH  17  26
ENDBRANCH   8  15
BRANCH   9  14
ATOM     14  C   UNL     1      -0.734  -1.472  23.059  0.00  0.00    +0.124 C 
BRANCH  14   4
ATOM      1  O   UNL     1       1.441  -0.524  21.434  0.00  0.00    -0.253 OA
ATOM      4  N   UNL     1       0.431  -0.775  23.510  0.00  0.00    -0.298 N 
ATOM      6  N   UNL     1       2.466   0.308  23.344  0.00  0.00    -0.297 N 
ATOM     19  C   UNL     1       1.449  -0.344  22.651  0.00  0.00    +0.300 C 
ATOM     32  H   UNL     1       0.526  -0.584  24.503  0.00  0.00    +0.150 HD
ATOM     33  H   UNL     1       2.407   0.335  24.358  0.00  0.00    +0.151 HD
BRANCH   6  20
ATOM     20  C   UNL     1       3.640   0.853  22.700  0.00  0.00    +0.074 C 
ATOM     21  C   UNL     1       4.533   1.583  23.708  0.00  0.00    +0.022 C 
ATOM     22  C   UNL     1       4.417  -0.238  21.957  0.00  0.00    +0.022 C 
ATOM     23  C   UNL     1       5.251   0.622  24.656  0.00  0.00    +0.002 C 
ATOM     24  C   UNL     1       5.136  -1.196  22.908  0.00  0.00    +0.002 C 
ATOM     25  C   UNL     1       6.027  -0.447  23.893  0.00  0.00    +0.000 C 
ENDBRANCH   6  20
ENDBRANCH  14   4
ENDBRANCH   9  14
TORSDOF 5
ENDMDL
MODEL 6
REMARK VINA RESULT:       4.5      1.852      5.135
REMARK  Name = 40779205
REMARK  6 active torsions:
REMARK  status: ('A' for Active; 'I' for Inactive)
REMARK    1  A    between atoms: N_3  and  C_18
REMARK    2  A    between atoms: N_4  and  C_14
REMARK    3  A    between atoms: N_6  and  C_20
REMARK    4  A    between atoms: C_8  and  C_15
REMARK    5  A    between atoms: C_9  and  C_14
REMARK    6  A    between atoms: C_17  and  C_26
REMARK                            x       y       z     vdW  Elec       q    Type
REMARK                         _______ _______ _______ _____ _____    ______ ____
ROOT
ATOM      2  N   UNL     1      -2.425   5.418  25.757  0.00  0.00    -0.297 NA
ATOM      7  C   UNL     1      -3.263   4.305  23.556  0.00  0.00    +0.002 C 
ATOM      8  C   UNL     1      -4.012   3.715  24.783  0.00  0.00    +0.055 C 
ATOM      9  C   UNL     1      -1.266   4.956  24.948  0.00  0.00    +0.074 C 
ATOM     10  C   UNL     1      -1.744   4.114  23.745  0.00  0.00    +0.024 C 
ATOM     11  C   UNL     1      -3.533   5.826  23.559  0.00  0.00    +0.019 C 
ATOM     12  C   UNL     1      -3.322   4.275  26.060  0.00  0.00    +0.094 C 
ATOM     13  C   UNL     1      -3.185   6.398  24.944  0.00  0.00    +0.085 C 
ENDROOT
BRANCH   8  15
ATOM      3  N   UNL     1      -5.287   1.623  25.445  0.00  0.00    -0.270 N 
ATOM      5  N   UNL     1      -5.273   0.280  25.396  0.00  0.00    -0.171 NA
ATOM     15  C   UNL     1      -4.209   2.207  24.847  0.00  0.00    +0.044 A 
ATOM     16  C   UNL     1      -3.436   1.174  24.374  0.00  0.00    +0.053 A 
ATOM     17  C   UNL     1      -4.141   0.012  24.740  0.00  0.00    +0.093 A 
ATOM     18  C   UNL     1      -6.386   2.294  26.099  0.00  0.00    +0.172 C 
BRANCH  17  26
ATOM     26  C   UNL     1      -3.752  -1.349  24.476  0.00  0.00    +0.002 A 
ATOM     27  C   UNL     1      -4.608  -2.194  23.770  0.00  0.00    +0.010 A 
ATOM     28  C   UNL     1      -2.519  -1.822  24.925  0.00  0.00    +0.010 A 
ATOM     29  C   UNL     1      -4.232  -3.513  23.514  0.00  0.00    +0.001 A 
ATOM     30  C   UNL     1      -2.143  -3.140  24.670  0.00  0.00    +0.001 A 
ATOM     31  C   UNL     1      -2.999  -3.986  23.964  0.00  0.00    +0.000 A 
ENDBRANCH  17  26
ENDBRANCH   8  15
BRANCH   9  14
ATOM     14  C   UNL     1      -0.229   4.212  25.790  0.00  0.00    +0.124 C 
BRANCH  14   4
ATOM      1  O   UNL     1      -0.300   1.338  25.743  0.00  0.00    -0.253 OA
ATOM      4  N   UNL     1       0.567   3.350  24.972  0.00  0.00    -0.298 N 
ATOM      6  N   UNL     1       1.354   1.353  24.114  0.00  0.00    -0.297 N 
ATOM     19  C   UNL     1       0.471   1.953  25.008  0.00  0.00    +0.300 C 
ATOM     32  H   UNL     1       1.236   3.769  24.334  0.00  0.00    +0.150 HD
ATOM     33  H   UNL     1       2.000   1.953  23.609  0.00  0.00    +0.151 HD
BRANCH   6  20
ATOM     20  C   UNL     1       1.462  -0.079  23.949  0.00  0.00    +0.074 C 
ATOM     21  C   UNL     1       0.189  -0.660  23.325  0.00  0.00    +0.022 C 
ATOM     22  C   UNL     1       2.701  -0.447  23.127  0.00  0.00    +0.022 C 
ATOM     23  C   UNL     1       0.044  -0.296  21.847  0.00  0.00    +0.002 C 
ATOM     24  C   UNL     1       2.553  -0.084  21.649  0.00  0.00    +0.002 C 
ATOM     25  C   UNL     1       1.285  -0.682  21.048  0.00  0.00    +0.000 C 
ENDBRANCH   6  20
ENDBRANCH  14   4
ENDBRANCH   9  14
TORSDOF 5
ENDMDL
MODEL 7
REMARK VINA RESULT:       4.6      2.795      4.443
REMARK  Name = 40779205
REMARK  6 active torsions:
REMARK  status: ('A' for Active; 'I' for Inactive)
REMARK    1  A    between atoms: N_3  and  C_18
REMARK    2  A    between atoms: N_4  and  C_14
REMARK    3  A    between atoms: N_6  and  C_20
REMARK    4  A    between atoms: C_8  and  C_15
REMARK    5  A    between atoms: C_9  and  C_14
REMARK    6  A    between atoms: C_17  and  C_26
REMARK                            x       y       z     vdW  Elec       q    Type
REMARK                         _______ _______ _______ _____ _____    ______ ____
ROOT
ATOM      2  N   UNL     1      -3.869   2.769  25.543  0.00  0.00    -0.297 NA
ATOM      7  C   UNL     1      -3.647   1.369  23.357  0.00  0.00    +0.002 C 
ATOM      8  C   UNL     1      -2.889   0.678  24.525  0.00  0.00    +0.055 C 
ATOM      9  C   UNL     1      -3.438   3.643  24.421  0.00  0.00    +0.074 C 
ATOM     10  C   UNL     1      -3.102   2.800  23.171  0.00  0.00    +0.024 C 
ATOM     11  C   UNL     1      -5.121   1.499  23.798  0.00  0.00    +0.019 C 
ATOM     12  C   UNL     1      -2.896   1.663  25.729  0.00  0.00    +0.094 C 
ATOM     13  C   UNL     1      -5.178   2.175  25.180  0.00  0.00    +0.085 C 
ENDROOT
BRANCH   8  15
ATOM      3  N   UNL     1      -1.227  -1.221  24.261  0.00  0.00    -0.270 N 
ATOM      5  N   UNL     1       0.057  -1.512  23.993  0.00  0.00    -0.171 NA
ATOM     15  C   UNL     1      -1.503   0.115  24.248  0.00  0.00    +0.044 A 
ATOM     16  C   UNL     1      -0.316   0.741  23.950  0.00  0.00    +0.053 A 
ATOM     17  C   UNL     1       0.609  -0.311  23.804  0.00  0.00    +0.093 A 
ATOM     18  C   UNL     1      -2.153  -2.296  24.529  0.00  0.00    +0.172 C 
BRANCH  17  26
ATOM     26  C   UNL     1       2.008  -0.188  23.488  0.00  0.00    +0.002 A 
ATOM     27  C   UNL     1       2.494   0.992  22.924  0.00  0.00    +0.010 A 
ATOM     28  C   UNL     1       2.878  -1.247  23.747  0.00  0.00    +0.010 A 
ATOM     29  C   UNL     1       3.850   1.111  22.618  0.00  0.00    +0.001 A 
ATOM     30  C   UNL     1       4.233  -1.128  23.441  0.00  0.00    +0.001 A 
ATOM     31  C   UNL     1       4.719   0.051  22.877  0.00  0.00    +0.000 A 
ENDBRANCH  17  26
ENDBRANCH   8  15
BRANCH   9  14
ATOM     14  C   UNL     1      -2.283   4.567  24.813  0.00  0.00    +0.124 C 
BRANCH  14   4
ATOM      1  O   UNL     1       0.081   2.942  25.009  0.00  0.00    -0.253 OA
ATOM      4  N   UNL     1      -1.654   4.114  26.015  0.00  0.00    -0.298 N 
ATOM      6  N   UNL     1      -0.093   3.021  27.323  0.00  0.00    -0.297 N 
ATOM     19  C   UNL     1      -0.499   3.322  26.026  0.00  0.00    +0.300 C 
ATOM     32  H   UNL     1      -2.065   4.377  26.905  0.00  0.00    +0.150 HD
ATOM     33  H   UNL     1      -0.687   3.324  28.088  0.00  0.00    +0.151 HD
BRANCH   6  20
ATOM     20  C   UNL     1       1.071   2.218  27.621  0.00  0.00    +0.074 C 
ATOM     21  C   UNL     1       2.351   3.060  27.571  0.00  0.00    +0.022 C 
ATOM     22  C   UNL     1       0.923   1.515  28.974  0.00  0.00    +0.022 C 
ATOM     23  C   UNL     1       2.462   4.025  28.752  0.00  0.00    +0.002 C 
ATOM     24  C   UNL     1       1.037   2.482  30.153  0.00  0.00    +0.002 C 
ATOM     25  C   UNL     1       2.322   3.300  30.087  0.00  0.00    +0.000 C 
ENDBRANCH   6  20
ENDBRANCH  14   4
ENDBRANCH   9  14
TORSDOF 5
ENDMDL
MODEL 8
REMARK VINA RESULT:       5.1      1.658      4.458
REMARK  Name = 40779205
REMARK  6 active torsions:
REMARK  status: ('A' for Active; 'I' for Inactive)
REMARK    1  A    between atoms: N_3  and  C_18
REMARK    2  A    between atoms: N_4  and  C_14
REMARK    3  A    between atoms: N_6  and  C_20
REMARK    4  A    between atoms: C_8  and  C_15
REMARK    5  A    between atoms: C_9  and  C_14
REMARK    6  A    between atoms: C_17  and  C_26
REMARK                            x       y       z     vdW  Elec       q    Type
REMARK                         _______ _______ _______ _____ _____    ______ ____
ROOT
ATOM      2  N   UNL     1      -3.975  -0.796  25.657  0.00  0.00    -0.297 NA
ATOM      7  C   UNL     1      -2.710  -2.365  24.007  0.00  0.00    +0.002 C 
ATOM      8  C   UNL     1      -1.702  -1.588  24.899  0.00  0.00    +0.055 C 
ATOM      9  C   UNL     1      -4.482  -0.594  24.274  0.00  0.00    +0.074 C 
ATOM     10  C   UNL     1      -3.608  -1.359  23.256  0.00  0.00    +0.024 C 
ATOM     11  C   UNL     1      -3.624  -3.166  24.959  0.00  0.00    +0.019 C 
ATOM     12  C   UNL     1      -2.515  -0.536  25.706  0.00  0.00    +0.094 C 
ATOM     13  C   UNL     1      -4.204  -2.215  26.022  0.00  0.00    +0.085 C 
ENDROOT
BRANCH   8  15
ATOM      3  N   UNL     1      -0.546  -0.074  23.223  0.00  0.00    -0.270 N 
ATOM      5  N   UNL     1       0.652   0.336  22.774  0.00  0.00    -0.171 NA
ATOM     15  C   UNL     1      -0.473  -0.984  24.236  0.00  0.00    +0.044 A 
ATOM     16  C   UNL     1       0.867  -1.183  24.467  0.00  0.00    +0.053 A 
ATOM     17  C   UNL     1       1.512  -0.344  23.537  0.00  0.00    +0.093 A 
ATOM     18  C   UNL     1      -1.745   0.458  22.619  0.00  0.00    +0.172 C 
BRANCH  17  26
ATOM     26  C   UNL     1       2.931  -0.182  23.364  0.00  0.00    +0.002 A 
ATOM     27  C   UNL     1       3.806  -1.166  23.826  0.00  0.00    +0.010 A 
ATOM     28  C   UNL     1       3.433   0.957  22.734  0.00  0.00    +0.010 A 
ATOM     29  C   UNL     1       5.182  -1.009  23.659  0.00  0.00    +0.001 A 
ATOM     30  C   UNL     1       4.809   1.113  22.567  0.00  0.00    +0.001 A 
ATOM     31  C   UNL     1       5.683   0.130  23.029  0.00  0.00    +0.000 A 
ENDBRANCH  17  26
ENDBRANCH   8  15
BRANCH   9  14
ATOM     14  C   UNL     1      -4.614   0.886  23.913  0.00  0.00    +0.124 C 
BRANCH  14   4
ATOM      1  O   UNL     1      -2.268   2.549  23.935  0.00  0.00    -0.253 OA
ATOM      4  N   UNL     1      -4.163   1.715  24.988  0.00  0.00    -0.298 N 
ATOM      6  N   UNL     1      -2.793   3.209  26.098  0.00  0.00    -0.297 N 
ATOM     19  C   UNL     1      -3.005   2.499  24.919  0.00  0.00    +0.300 C 
ATOM     32  H   UNL     1      -4.707   1.736  25.844  0.00  0.00    +0.150 HD
ATOM     33  H   UNL     1      -3.423   3.037  26.876  0.00  0.00    +0.151 HD
BRANCH   6  20
ATOM     20  C   UNL     1      -1.669   4.096  26.297  0.00  0.00    +0.074 C 
ATOM     21  C   UNL     1      -0.447   3.330  26.815  0.00  0.00    +0.022 C 
ATOM     22  C   UNL     1      -1.338   4.863  25.012  0.00  0.00    +0.022 C 
ATOM     23  C   UNL     1       0.184   2.441  25.744  0.00  0.00    +0.002 C 
ATOM     24  C   UNL     1      -0.706   3.971  23.943  0.00  0.00    +0.002 C 
ATOM     25  C   UNL     1       0.513   3.229  24.480  0.00  0.00    +0.000 C 
ENDBRANCH   6  20
ENDBRANCH  14   4
ENDBRANCH   9  14
TORSDOF 5
ENDMDL
MODEL 9
REMARK VINA RESULT:       5.8      1.555      4.874
REMARK  Name = 40779205
REMARK  6 active torsions:
REMARK  status: ('A' for Active; 'I' for Inactive)
REMARK    1  A    between atoms: N_3  and  C_18
REMARK    2  A    between atoms: N_4  and  C_14
REMARK    3  A    between atoms: N_6  and  C_20
REMARK    4  A    between atoms: C_8  and  C_15
REMARK    5  A    between atoms: C_9  and  C_14
REMARK    6  A    between atoms: C_17  and  C_26
REMARK                            x       y       z     vdW  Elec       q    Type
REMARK                         _______ _______ _______ _____ _____    ______ ____
ROOT
ATOM      2  N   UNL     1      -3.848  -1.241  25.603  0.00  0.00    -0.297 NA
ATOM      7  C   UNL     1      -2.183  -2.851  24.411  0.00  0.00    +0.002 C 
ATOM      8  C   UNL     1      -1.411  -1.752  25.194  0.00  0.00    +0.055 C 
ATOM      9  C   UNL     1      -4.230  -1.400  24.175  0.00  0.00    +0.074 C 
ATOM     10  C   UNL     1      -3.143  -2.181  23.405  0.00  0.00    +0.024 C 
ATOM     11  C   UNL     1      -3.056  -3.601  25.440  0.00  0.00    +0.019 C 
ATOM     12  C   UNL     1      -2.461  -0.724  25.704  0.00  0.00    +0.094 C 
ATOM     13  C   UNL     1      -3.888  -2.581  26.237  0.00  0.00    +0.085 C 
ENDROOT
BRANCH   8  15
ATOM      3  N   UNL     1      -0.362  -0.015  23.671  0.00  0.00    -0.270 N 
ATOM      5  N   UNL     1       0.802   0.431  23.170  0.00  0.00    -0.171 NA
ATOM     15  C   UNL     1      -0.229  -1.080  24.512  0.00  0.00    +0.044 A 
ATOM     16  C   UNL     1       1.118  -1.350  24.566  0.00  0.00    +0.053 A 
ATOM     17  C   UNL     1       1.703  -0.387  23.720  0.00  0.00    +0.093 A 
ATOM     18  C   UNL     1      -1.591   0.641  23.288  0.00  0.00    +0.172 C 
BRANCH  17  26
ATOM     26  C   UNL     1       3.104  -0.237  23.428  0.00  0.00    +0.002 A 
ATOM     27  C   UNL     1       3.556   0.887  22.737  0.00  0.00    +0.010 A 
ATOM     28  C   UNL     1       4.011  -1.214  23.839  0.00  0.00    +0.010 A 
ATOM     29  C   UNL     1       4.914   1.032  22.454  0.00  0.00    +0.001 A 
ATOM     30  C   UNL     1       5.370  -1.069  23.556  0.00  0.00    +0.001 A 
ATOM     31  C   UNL     1       5.821   0.055  22.863  0.00  0.00    +0.000 A 
ENDBRANCH  17  26
ENDBRANCH   8  15
BRANCH   9  14
ATOM     14  C   UNL     1      -4.554  -0.063  23.507  0.00  0.00    +0.124 C 
BRANCH  14   4
ATOM      1  O   UNL     1      -3.641   2.664  23.459  0.00  0.00    -0.253 OA
ATOM      4  N   UNL     1      -4.819   0.945  24.486  0.00  0.00    -0.298 N 
ATOM      6  N   UNL     1      -4.738   3.035  25.471  0.00  0.00    -0.297 N 
ATOM     19  C   UNL     1      -4.336   2.256  24.389  0.00  0.00    +0.300 C 
ATOM     32  H   UNL     1      -5.383   0.699  25.293  0.00  0.00    +0.150 HD
ATOM     33  H   UNL     1      -5.249   2.577  26.221  0.00  0.00    +0.151 HD
BRANCH   6  20
ATOM     20  C   UNL     1      -4.379   4.427  25.622  0.00  0.00    +0.074 C 
ATOM     21  C   UNL     1      -3.419   4.624  26.800  0.00  0.00    +0.022 C 
ATOM     22  C   UNL     1      -3.787   4.986  24.324  0.00  0.00    +0.022 C 
ATOM     23  C   UNL     1      -2.019   4.083  26.510  0.00  0.00    +0.002 C 
ATOM     24  C   UNL     1      -2.386   4.445  24.038  0.00  0.00    +0.002 C 
ATOM     25  C   UNL     1      -1.447   4.663  25.220  0.00  0.00    +0.000 C 
ENDBRANCH   6  20
ENDBRANCH  14   4
ENDBRANCH   9  14
TORSDOF 5
ENDMDL
