MODEL 1
REMARK VINA RESULT:       1.3      0.000      0.000
REMARK  Name = 28962709
REMARK  12 active torsions:
REMARK  status: ('A' for Active; 'I' for Inactive)
REMARK    1  A    between atoms: O_1  and  C_9
REMARK    2  A    between atoms: N_4  and  C_13
REMARK    3  A    between atoms: N_5  and  C_27
REMARK    4  A    between atoms: N_5  and  C_28
REMARK    5  A    between atoms: C_6  and  C_16
REMARK    6  A    between atoms: C_8  and  C_18
REMARK    7  A    between atoms: C_12  and  C_17
REMARK    8  A    between atoms: C_17  and  C_19
REMARK    9  A    between atoms: C_17  and  C_20
REMARK   10  A    between atoms: C_21  and  C_22
REMARK   11  A    between atoms: C_27  and  C_30
REMARK   12  A    between atoms: C_28  and  C_31
REMARK                            x       y       z     vdW  Elec       q    Type
REMARK                         _______ _______ _______ _____ _____    ______ ____
ROOT
ATOM      6  C   UNL     1      -2.142  -0.754  25.119  0.00  0.00    -0.027 C 
ATOM      7  C   UNL     1      -2.192   0.322  23.983  0.00  0.00    +0.028 C 
ATOM      8  C   UNL     1      -0.764   0.556  23.371  0.00  0.00    +0.012 C 
ATOM      9  C   UNL     1      -2.936   1.605  24.453  0.00  0.00    +0.122 C 
ATOM     10  C   UNL     1      -3.577  -1.042  25.619  0.00  0.00    +0.007 C 
ATOM     11  C   UNL     1      -1.573  -2.070  24.540  0.00  0.00    +0.009 C 
ATOM     12  C   UNL     1      -4.329   1.299  25.051  0.00  0.00    +0.029 C 
ATOM     13  C   UNL     1      -0.170  -0.787  22.862  0.00  0.00    +0.076 C 
ATOM     14  C   UNL     1      -4.294   0.206  26.118  0.00  0.00    +0.007 C 
ATOM     15  C   UNL     1      -0.198  -1.900  23.909  0.00  0.00    +0.023 C 
ATOM     16  C   UNL     1      -1.275  -0.307  26.322  0.00  0.00    +0.011 C 
ATOM     18  C   UNL     1      -0.745   1.584  22.226  0.00  0.00    +0.010 C 
ENDROOT
BRANCH  13   4
ATOM      3  O   UNL     1       1.850   1.024  23.897  0.00  0.00    -0.276 OA
ATOM      4  N   UNL     1       1.193  -0.629  22.397  0.00  0.00    -0.312 N 
ATOM     21  C   UNL     1       2.083   0.266  22.959  0.00  0.00    +0.216 C 
ATOM     32  H   UNL     1       1.477  -1.173  21.586  0.00  0.00    +0.149 HD
BRANCH  21  22
ATOM     22  C   UNL     1       3.433   0.209  22.303  0.00  0.00    +0.075 C 
ATOM     23  C   UNL     1       4.352   1.308  22.840  0.00  0.00    +0.013 C 
ATOM     24  C   UNL     1       4.032  -1.191  22.456  0.00  0.00    +0.013 C 
ATOM     25  C   UNL     1       4.910   1.010  24.231  0.00  0.00    +0.001 C 
ATOM     26  C   UNL     1       4.576  -1.460  23.857  0.00  0.00    +0.001 C 
ATOM     29  C   UNL     1       5.548  -0.373  24.303  0.00  0.00    +0.000 C 
ENDBRANCH  21  22
ENDBRANCH  13   4
BRANCH   9   1
ATOM      1  O   UNL     1      -3.150   2.469  23.337  0.00  0.00    -0.391 OA
ATOM     33  H   UNL     1      -3.959   2.985  23.505  0.00  0.00    +0.210 HD
ENDBRANCH   9   1
BRANCH  12  17
ATOM     17  C   UNL     1      -4.991   2.557  25.627  0.00  0.00    +0.078 C 
ATOM     19  C   UNL     1      -6.467   2.584  25.230  0.00  0.00    +0.017 C 
BRANCH  17  20
ATOM      2  O   UNL     1      -4.732   4.438  24.169  0.00  0.00    -0.275 OA
ATOM      5  N   UNL     1      -3.067   4.164  25.751  0.00  0.00    -0.302 N 
ATOM     20  C   UNL     1      -4.262   3.804  25.119  0.00  0.00    +0.219 C 
BRANCH   5  27
ATOM     27  C   UNL     1      -2.337   5.335  25.278  0.00  0.00    +0.104 C 
ATOM     30  C   UNL     1      -0.990   4.953  24.701  0.00  0.00    +0.024 C 
ENDBRANCH   5  27
BRANCH   5  28
ATOM     28  C   UNL     1      -2.462   3.492  26.900  0.00  0.00    +0.104 C 
ATOM     31  C   UNL     1      -1.059   3.014  26.589  0.00  0.00    +0.024 C 
ENDBRANCH   5  28
ENDBRANCH  17  20
ENDBRANCH  12  17
TORSDOF 7
ENDMDL
