MODEL 1
REMARK VINA RESULT:       8.5      0.000      0.000
REMARK  Name = 28991375
REMARK  7 active torsions:
REMARK  status: ('A' for Active; 'I' for Inactive)
REMARK    1  A    between atoms: O_2  and  C_20
REMARK    2  A    between atoms: O_2  and  C_32
REMARK    3  A    between atoms: N_6  and  C_11
REMARK    4  A    between atoms: N_6  and  C_21
REMARK    5  A    between atoms: C_9  and  C_17
REMARK    6  A    between atoms: C_13  and  C_20
REMARK    7  A    between atoms: C_21  and  C_27
REMARK                            x       y       z     vdW  Elec       q    Type
REMARK                         _______ _______ _______ _____ _____    ______ ____
ROOT
ATOM      4  N   UNL     1      -1.050   1.513  25.810  0.00  0.00    -0.274 NA
ATOM      5  N   UNL     1      -3.775  -0.007  23.718  0.00  0.00    -0.356 N 
ATOM      8  C   UNL     1      -2.051   1.610  24.703  0.00  0.00    +0.106 C 
ATOM      9  C   UNL     1      -0.400   2.819  26.086  0.00  0.00    +0.090 C 
ATOM     10  C   UNL     1      -3.131   2.650  25.036  0.00  0.00    +0.044 C 
ATOM     11  C   UNL     1      -2.498   4.020  25.278  0.00  0.00    +0.058 C 
ATOM     12  C   UNL     1      -1.453   3.913  26.388  0.00  0.00    +0.042 C 
ATOM     13  C   UNL     1      -0.111   0.371  25.643  0.00  0.00    +0.172 C 
ATOM     14  C   UNL     1      -2.646   0.258  24.442  0.00  0.00    +0.038 A 
ATOM     15  C   UNL     1      -0.837  -0.999  25.626  0.00  0.00    +0.068 C 
ATOM     16  C   UNL     1      -2.099  -0.942  24.838  0.00  0.00    -0.016 A 
ATOM     18  C   UNL     1      -2.945  -1.983  24.368  0.00  0.00    +0.003 A 
ATOM     19  C   UNL     1      -3.991  -1.368  23.670  0.00  0.00    +0.047 A 
ATOM     24  C   UNL     1      -2.929  -3.389  24.463  0.00  0.00    +0.010 A 
ATOM     25  C   UNL     1      -5.020  -2.095  23.062  0.00  0.00    +0.026 A 
ATOM     26  C   UNL     1      -3.954  -4.127  23.860  0.00  0.00    +0.001 A 
ATOM     30  C   UNL     1      -4.982  -3.488  23.170  0.00  0.00    +0.002 A 
ATOM     37  H   UNL     1      -4.370   0.684  23.283  0.00  0.00    +0.166 HD
ENDROOT
BRANCH   9  17
ATOM      1  F   UNL     1       3.251   2.715  30.404  0.00  0.00    -0.205 F 
ATOM     17  C   UNL     1       0.585   2.791  27.251  0.00  0.00    -0.030 A 
ATOM     22  C   UNL     1       0.160   2.378  28.515  0.00  0.00    +0.008 A 
ATOM     23  C   UNL     1       1.911   3.177  27.053  0.00  0.00    +0.008 A 
ATOM     28  C   UNL     1       1.060   2.353  29.580  0.00  0.00    +0.038 A 
ATOM     29  C   UNL     1       2.811   3.152  28.119  0.00  0.00    +0.038 A 
ATOM     31  C   UNL     1       2.386   2.740  29.382  0.00  0.00    +0.123 A 
ENDBRANCH   9  17
BRANCH  13  20
ATOM      3  O   UNL     1       1.328   1.578  24.131  0.00  0.00    -0.249 OA
ATOM     20  C   UNL     1       0.723   0.551  24.405  0.00  0.00    +0.325 C 
BRANCH  20   2
ATOM      2  O   UNL     1       0.691  -0.592  23.664  0.00  0.00    -0.467 OA
ATOM     32  C   UNL     1       1.235  -0.486  22.344  0.00  0.00    +0.280 C 
ENDBRANCH  20   2
ENDBRANCH  13  20
BRANCH  11   6
ATOM      6  N   UNL     1      -3.529   4.997  25.627  0.00  0.00    -0.309 NA
ATOM     38  H   UNL     1      -3.723   4.938  26.627  0.00  0.00    +0.123 HD
BRANCH   6  21
ATOM     21  C   UNL     1      -4.758   4.733  24.894  0.00  0.00    +0.118 C 
BRANCH  21  27
ATOM      7  N   UNL     1      -6.258   2.170  27.241  0.00  0.00    -0.263 NA
ATOM     27  C   UNL     1      -5.444   3.485  25.383  0.00  0.00    -0.015 A 
ATOM     33  C   UNL     1      -5.890   2.515  24.492  0.00  0.00    +0.008 A 
ATOM     34  C   UNL     1      -5.651   3.266  26.736  0.00  0.00    +0.115 A 
ATOM     35  C   UNL     1      -6.519   1.372  24.973  0.00  0.00    +0.020 A 
ATOM     36  C   UNL     1      -6.677   1.248  26.344  0.00  0.00    +0.111 A 
ENDBRANCH  21  27
ENDBRANCH   6  21
ENDBRANCH  11   6
TORSDOF 6
ENDMDL
MODEL 2
REMARK VINA RESULT:      11.9      3.410      8.354
REMARK  Name = 28991375
REMARK  7 active torsions:
REMARK  status: ('A' for Active; 'I' for Inactive)
REMARK    1  A    between atoms: O_2  and  C_20
REMARK    2  A    between atoms: O_2  and  C_32
REMARK    3  A    between atoms: N_6  and  C_11
REMARK    4  A    between atoms: N_6  and  C_21
REMARK    5  A    between atoms: C_9  and  C_17
REMARK    6  A    between atoms: C_13  and  C_20
REMARK    7  A    between atoms: C_21  and  C_27
REMARK                            x       y       z     vdW  Elec       q    Type
REMARK                         _______ _______ _______ _____ _____    ______ ____
ROOT
ATOM      4  N   UNL     1      -0.941   0.593  24.904  0.00  0.00    -0.274 NA
ATOM      5  N   UNL     1       1.775   2.704  26.413  0.00  0.00    -0.356 N 
ATOM      8  C   UNL     1       0.163   1.592  24.764  0.00  0.00    +0.106 C 
ATOM      9  C   UNL     1      -1.461   0.152  23.586  0.00  0.00    +0.090 C 
ATOM     10  C   UNL     1       1.319   1.013  23.935  0.00  0.00    +0.044 C 
ATOM     11  C   UNL     1       0.826   0.593  22.550  0.00  0.00    +0.058 C 
ATOM     12  C   UNL     1      -0.323  -0.404  22.695  0.00  0.00    +0.042 C 
ATOM     13  C   UNL     1      -1.984   1.016  25.877  0.00  0.00    +0.172 C 
ATOM     14  C   UNL     1       0.622   2.030  26.123  0.00  0.00    +0.038 A 
ATOM     15  C   UNL     1      -1.420   1.207  27.308  0.00  0.00    +0.068 C 
ATOM     16  C   UNL     1      -0.093   1.880  27.291  0.00  0.00    -0.016 A 
ATOM     18  C   UNL     1       0.670   2.454  28.344  0.00  0.00    +0.003 A 
ATOM     19  C   UNL     1       1.838   2.962  27.767  0.00  0.00    +0.047 A 
ATOM     24  C   UNL     1       0.484   2.596  29.734  0.00  0.00    +0.010 A 
ATOM     25  C   UNL     1       2.830   3.606  28.514  0.00  0.00    +0.026 A 
ATOM     26  C   UNL     1       1.470   3.236  30.493  0.00  0.00    +0.001 A 
ATOM     30  C   UNL     1       2.624   3.733  29.891  0.00  0.00    +0.002 A 
ATOM     37  H   UNL     1       2.483   2.974  25.744  0.00  0.00    +0.166 HD
ENDROOT
BRANCH   9  17
ATOM      1  F   UNL     1      -5.484  -3.811  23.896  0.00  0.00    -0.205 F 
ATOM     17  C   UNL     1      -2.546  -0.917  23.669  0.00  0.00    -0.030 A 
ATOM     22  C   UNL     1      -2.221  -2.210  24.081  0.00  0.00    +0.008 A 
ATOM     23  C   UNL     1      -3.863  -0.602  23.335  0.00  0.00    +0.008 A 
ATOM     28  C   UNL     1      -3.214  -3.188  24.157  0.00  0.00    +0.038 A 
ATOM     29  C   UNL     1      -4.856  -1.580  23.411  0.00  0.00    +0.038 A 
ATOM     31  C   UNL     1      -4.531  -2.873  23.822  0.00  0.00    +0.123 A 
ENDBRANCH   9  17
BRANCH  13  20
ATOM      3  O   UNL     1      -2.094   3.310  25.145  0.00  0.00    -0.249 OA
ATOM     20  C   UNL     1      -2.673   2.264  25.402  0.00  0.00    +0.325 C 
BRANCH  20   2
ATOM      2  O   UNL     1      -4.014   2.037  25.306  0.00  0.00    -0.467 OA
ATOM     32  C   UNL     1      -4.849   3.179  25.520  0.00  0.00    +0.280 C 
ENDBRANCH  20   2
ENDBRANCH  13  20
BRANCH  11   6
ATOM      6  N   UNL     1       1.925   0.013  21.779  0.00  0.00    -0.309 NA
ATOM     38  H   UNL     1       2.104  -0.935  22.111  0.00  0.00    +0.123 HD
BRANCH   6  21
ATOM     21  C   UNL     1       3.137   0.802  21.935  0.00  0.00    +0.118 C 
BRANCH  21  27
ATOM      7  N   UNL     1       4.797  -1.826  24.095  0.00  0.00    -0.263 NA
ATOM     27  C   UNL     1       4.117   0.144  22.869  0.00  0.00    -0.015 A 
ATOM     33  C   UNL     1       5.212   0.841  23.369  0.00  0.00    +0.008 A 
ATOM     34  C   UNL     1       3.957  -1.176  23.260  0.00  0.00    +0.115 A 
ATOM     35  C   UNL     1       6.100   0.206  24.231  0.00  0.00    +0.020 A 
ATOM     36  C   UNL     1       5.850  -1.116  24.561  0.00  0.00    +0.111 A 
ENDBRANCH  21  27
ENDBRANCH   6  21
ENDBRANCH  11   6
TORSDOF 6
ENDMDL
