MODEL 1
REMARK VINA RESULT:      -1.9      0.000      0.000
REMARK  Name = 75367646
REMARK  6 active torsions:
REMARK  status: ('A' for Active; 'I' for Inactive)
REMARK    1  A    between atoms: O_5  and  C_11
REMARK    2  A    between atoms: O_5  and  C_19
REMARK    3  A    between atoms: N_8  and  C_21
REMARK    4  A    between atoms: C_16  and  C_17
REMARK    5  A    between atoms: C_20  and  C_23
REMARK    6  A    between atoms: C_25  and  C_27
REMARK                            x       y       z     vdW  Elec       q    Type
REMARK                         _______ _______ _______ _____ _____    ______ ____
ROOT
ATOM      4  O   UNL     1      -0.917  -3.146  25.269  0.00  0.00    -0.375 OA
ATOM      6  O   UNL     1      -4.974  -1.039  23.210  0.00  0.00    -0.268 OA
ATOM      7  N   UNL     1      -3.348  -1.360  24.867  0.00  0.00    -0.291 N 
ATOM     11  C   UNL     1      -1.047  -0.647  25.416  0.00  0.00    +0.218 C 
ATOM     12  C   UNL     1      -2.480  -0.810  25.921  0.00  0.00    +0.155 C 
ATOM     13  C   UNL     1      -3.197  -2.789  24.581  0.00  0.00    +0.136 C 
ATOM     14  C   UNL     1      -0.215  -1.929  25.493  0.00  0.00    +0.206 C 
ATOM     15  C   UNL     1      -1.782  -3.150  24.140  0.00  0.00    +0.179 C 
ATOM     16  C   UNL     1      -4.261  -0.609  24.116  0.00  0.00    +0.265 C 
ENDROOT
BRANCH  16  17
ATOM      8  N   UNL     1      -3.733   1.828  23.777  0.00  0.00    -0.262 N 
ATOM      9  N   UNL     1      -4.031   3.054  24.242  0.00  0.00    -0.176 NA
ATOM     17  C   UNL     1      -4.394   0.821  24.416  0.00  0.00    +0.123 A 
ATOM     18  C   UNL     1      -5.180   1.430  25.363  0.00  0.00    +0.057 A 
ATOM     20  C   UNL     1      -4.915   2.804  25.210  0.00  0.00    +0.061 A 
ATOM     21  C   UNL     1      -2.784   1.694  22.696  0.00  0.00    +0.173 C 
ATOM     23  C   UNL     1      -5.494   3.920  25.978  0.00  0.00    +0.067 C 
ENDBRANCH  16  17
BRANCH  11   5
ATOM      5  O   UNL     1      -0.402   0.370  26.182  0.00  0.00    -0.469 OA
BRANCH   5  19
ATOM     10  N   UNL     1      -1.451   2.408  26.534  0.00  0.00    -0.221 NA
ATOM     19  C   UNL     1      -0.611   1.661  25.782  0.00  0.00    +0.215 A 
ATOM     22  C   UNL     1       0.036   2.126  24.649  0.00  0.00    +0.068 A 
ATOM     24  C   UNL     1      -0.192   3.441  24.262  0.00  0.00    +0.019 A 
ATOM     25  C   UNL     1      -1.049   4.241  25.010  0.00  0.00    +0.073 A 
ATOM     26  C   UNL     1      -1.648   3.682  26.127  0.00  0.00    +0.127 A 
BRANCH  25  27
ATOM      1  F   UNL     1      -2.250   5.787  23.635  0.00  0.00    -0.166 F 
ATOM      2  F   UNL     1      -1.773   6.429  25.650  0.00  0.00    -0.166 F 
ATOM      3  F   UNL     1      -0.200   6.291  24.156  0.00  0.00    -0.166 F 
ATOM     27  C   UNL     1      -1.314   5.653  24.623  0.00  0.00    +0.419 C 
ENDBRANCH  25  27
ENDBRANCH   5  19
ENDBRANCH  11   5
TORSDOF 4
ENDMDL
MODEL 2
REMARK VINA RESULT:      -0.6      3.905      6.573
REMARK  Name = 75367646
REMARK  6 active torsions:
REMARK  status: ('A' for Active; 'I' for Inactive)
REMARK    1  A    between atoms: O_5  and  C_11
REMARK    2  A    between atoms: O_5  and  C_19
REMARK    3  A    between atoms: N_8  and  C_21
REMARK    4  A    between atoms: C_16  and  C_17
REMARK    5  A    between atoms: C_20  and  C_23
REMARK    6  A    between atoms: C_25  and  C_27
REMARK                            x       y       z     vdW  Elec       q    Type
REMARK                         _______ _______ _______ _____ _____    ______ ____
ROOT
ATOM      4  O   UNL     1      -2.183   5.681  25.058  0.00  0.00    -0.375 OA
ATOM      6  O   UNL     1       1.474   2.407  24.037  0.00  0.00    -0.268 OA
ATOM      7  N   UNL     1      -0.439   3.190  25.144  0.00  0.00    -0.291 N 
ATOM     11  C   UNL     1      -2.888   3.286  24.838  0.00  0.00    +0.218 C 
ATOM     12  C   UNL     1      -1.740   2.923  25.777  0.00  0.00    +0.155 C 
ATOM     13  C   UNL     1      -0.034   4.596  25.056  0.00  0.00    +0.136 C 
ATOM     14  C   UNL     1      -3.258   4.771  24.858  0.00  0.00    +0.206 C 
ATOM     15  C   UNL     1      -1.027   5.441  24.265  0.00  0.00    +0.179 C 
ATOM     16  C   UNL     1       0.399   2.207  24.600  0.00  0.00    +0.265 C 
ENDROOT
BRANCH  16  17
ATOM      8  N   UNL     1       0.176  -0.149  23.741  0.00  0.00    -0.262 N 
ATOM      9  N   UNL     1      -0.312  -1.358  24.071  0.00  0.00    -0.176 NA
ATOM     17  C   UNL     1      -0.027   0.805  24.694  0.00  0.00    +0.123 A 
ATOM     18  C   UNL     1      -0.692   0.177  25.718  0.00  0.00    +0.057 A 
ATOM     20  C   UNL     1      -0.840  -1.152  25.280  0.00  0.00    +0.061 A 
ATOM     21  C   UNL     1       0.837   0.023  22.469  0.00  0.00    +0.173 C 
ATOM     23  C   UNL     1      -1.487  -2.266  25.994  0.00  0.00    +0.067 C 
ENDBRANCH  16  17
BRANCH  11   5
ATOM      5  O   UNL     1      -4.036   2.518  25.196  0.00  0.00    -0.469 OA
BRANCH   5  19
ATOM     10  N   UNL     1      -4.420   0.312  25.798  0.00  0.00    -0.221 NA
ATOM     19  C   UNL     1      -4.016   1.194  24.856  0.00  0.00    +0.215 A 
ATOM     22  C   UNL     1      -3.589   0.833  23.588  0.00  0.00    +0.068 A 
ATOM     24  C   UNL     1      -3.577  -0.519  23.266  0.00  0.00    +0.019 A 
ATOM     25  C   UNL     1      -3.987  -1.457  24.208  0.00  0.00    +0.073 A 
ATOM     26  C   UNL     1      -4.395  -0.994  25.448  0.00  0.00    +0.127 A 
BRANCH  25  27
ATOM      1  F   UNL     1      -2.858  -3.335  23.249  0.00  0.00    -0.166 F 
ATOM      2  F   UNL     1      -4.083  -3.712  24.997  0.00  0.00    -0.166 F 
ATOM      3  F   UNL     1      -5.025  -3.278  23.087  0.00  0.00    -0.166 F 
ATOM     27  C   UNL     1      -3.986  -2.911  23.894  0.00  0.00    +0.419 C 
ENDBRANCH  25  27
ENDBRANCH   5  19
ENDBRANCH  11   5
TORSDOF 4
ENDMDL
MODEL 3
REMARK VINA RESULT:      -0.5      3.630      6.224
REMARK  Name = 75367646
REMARK  6 active torsions:
REMARK  status: ('A' for Active; 'I' for Inactive)
REMARK    1  A    between atoms: O_5  and  C_11
REMARK    2  A    between atoms: O_5  and  C_19
REMARK    3  A    between atoms: N_8  and  C_21
REMARK    4  A    between atoms: C_16  and  C_17
REMARK    5  A    between atoms: C_20  and  C_23
REMARK    6  A    between atoms: C_25  and  C_27
REMARK                            x       y       z     vdW  Elec       q    Type
REMARK                         _______ _______ _______ _____ _____    ______ ____
ROOT
ATOM      4  O   UNL     1      -6.335   3.167  25.852  0.00  0.00    -0.375 OA
ATOM      6  O   UNL     1      -1.722   4.816  24.785  0.00  0.00    -0.268 OA
ATOM      7  N   UNL     1      -3.308   3.279  25.574  0.00  0.00    -0.291 N 
ATOM     11  C   UNL     1      -4.820   1.523  24.719  0.00  0.00    +0.218 C 
ATOM     12  C   UNL     1      -3.752   1.887  25.748  0.00  0.00    +0.155 C 
ATOM     13  C   UNL     1      -4.230   4.319  26.038  0.00  0.00    +0.136 C 
ATOM     14  C   UNL     1      -6.234   1.954  25.116  0.00  0.00    +0.206 C 
ATOM     15  C   UNL     1      -5.582   4.257  25.335  0.00  0.00    +0.179 C 
ATOM     16  C   UNL     1      -2.102   3.660  24.971  0.00  0.00    +0.265 C 
ENDROOT
BRANCH  16  17
ATOM      8  N   UNL     1      -0.116   2.130  25.199  0.00  0.00    -0.262 N 
ATOM      9  N   UNL     1       0.556   1.159  24.556  0.00  0.00    -0.176 NA
ATOM     17  C   UNL     1      -1.194   2.603  24.510  0.00  0.00    +0.123 A 
ATOM     18  C   UNL     1      -1.230   1.893  23.335  0.00  0.00    +0.057 A 
ATOM     20  C   UNL     1      -0.130   1.018  23.419  0.00  0.00    +0.061 A 
ATOM     21  C   UNL     1       0.342   2.565  26.497  0.00  0.00    +0.173 C 
ATOM     23  C   UNL     1       0.302   0.024  22.422  0.00  0.00    +0.067 C 
ENDBRANCH  16  17
BRANCH  11   5
ATOM      5  O   UNL     1      -4.805   0.110  24.521  0.00  0.00    -0.469 OA
BRANCH   5  19
ATOM     10  N   UNL     1      -2.930  -0.154  25.858  0.00  0.00    -0.221 NA
ATOM     19  C   UNL     1      -3.619  -0.527  24.756  0.00  0.00    +0.215 A 
ATOM     22  C   UNL     1      -3.192  -1.503  23.869  0.00  0.00    +0.068 A 
ATOM     24  C   UNL     1      -1.983  -2.136  24.130  0.00  0.00    +0.019 A 
ATOM     25  C   UNL     1      -1.246  -1.780  25.254  0.00  0.00    +0.073 A 
ATOM     26  C   UNL     1      -1.758  -0.792  26.079  0.00  0.00    +0.127 A 
BRANCH  25  27
ATOM      1  F   UNL     1       0.012  -3.803  25.474  0.00  0.00    -0.166 F 
ATOM      2  F   UNL     1       1.071  -2.063  24.732  0.00  0.00    -0.166 F 
ATOM      3  F   UNL     1       0.496  -2.170  26.826  0.00  0.00    -0.166 F 
ATOM     27  C   UNL     1       0.052  -2.440  25.561  0.00  0.00    +0.419 C 
ENDBRANCH  25  27
ENDBRANCH   5  19
ENDBRANCH  11   5
TORSDOF 4
ENDMDL
MODEL 4
REMARK VINA RESULT:      -0.3      3.173      4.342
REMARK  Name = 75367646
REMARK  6 active torsions:
REMARK  status: ('A' for Active; 'I' for Inactive)
REMARK    1  A    between atoms: O_5  and  C_11
REMARK    2  A    between atoms: O_5  and  C_19
REMARK    3  A    between atoms: N_8  and  C_21
REMARK    4  A    between atoms: C_16  and  C_17
REMARK    5  A    between atoms: C_20  and  C_23
REMARK    6  A    between atoms: C_25  and  C_27
REMARK                            x       y       z     vdW  Elec       q    Type
REMARK                         _______ _______ _______ _____ _____    ______ ____
ROOT
ATOM      4  O   UNL     1      -3.628  -2.765  24.427  0.00  0.00    -0.375 OA
ATOM      6  O   UNL     1      -5.356   1.869  23.605  0.00  0.00    -0.268 OA
ATOM      7  N   UNL     1      -4.194   0.203  24.777  0.00  0.00    -0.291 N 
ATOM     11  C   UNL     1      -1.987  -0.905  24.786  0.00  0.00    +0.218 C 
ATOM     12  C   UNL     1      -3.056  -0.201  25.618  0.00  0.00    +0.155 C 
ATOM     13  C   UNL     1      -5.105  -0.865  24.357  0.00  0.00    +0.136 C 
ATOM     14  C   UNL     1      -2.261  -2.394  24.558  0.00  0.00    +0.206 C 
ATOM     15  C   UNL     1      -4.399  -1.951  23.551  0.00  0.00    +0.179 C 
ATOM     16  C   UNL     1      -4.432   1.511  24.334  0.00  0.00    +0.265 C 
ENDROOT
BRANCH  16  17
ATOM      8  N   UNL     1      -3.776   3.526  25.694  0.00  0.00    -0.262 N 
ATOM      9  N   UNL     1      -2.758   4.378  25.907  0.00  0.00    -0.176 NA
ATOM     17  C   UNL     1      -3.506   2.566  24.763  0.00  0.00    +0.123 A 
ATOM     18  C   UNL     1      -2.222   2.807  24.338  0.00  0.00    +0.057 A 
ATOM     20  C   UNL     1      -1.811   3.933  25.077  0.00  0.00    +0.061 A 
ATOM     21  C   UNL     1      -5.005   3.696  26.432  0.00  0.00    +0.173 C 
ATOM     23  C   UNL     1      -0.510   4.619  25.016  0.00  0.00    +0.067 C 
ENDBRANCH  16  17
BRANCH  11   5
ATOM      5  O   UNL     1      -0.726  -0.762  25.440  0.00  0.00    -0.469 OA
BRANCH   5  19
ATOM     10  N   UNL     1       1.161  -1.317  24.213  0.00  0.00    -0.221 NA
ATOM     19  C   UNL     1       0.322  -0.356  24.663  0.00  0.00    +0.215 A 
ATOM     22  C   UNL     1       0.469   0.993  24.382  0.00  0.00    +0.068 A 
ATOM     24  C   UNL     1       1.542   1.381  23.590  0.00  0.00    +0.019 A 
ATOM     25  C   UNL     1       2.426   0.421  23.108  0.00  0.00    +0.073 A 
ATOM     26  C   UNL     1       2.194  -0.902  23.446  0.00  0.00    +0.127 A 
BRANCH  25  27
ATOM      1  F   UNL     1       4.746   0.158  22.584  0.00  0.00    -0.166 F 
ATOM      2  F   UNL     1       3.402   0.548  20.928  0.00  0.00    -0.166 F 
ATOM      3  F   UNL     1       3.880   2.136  22.333  0.00  0.00    -0.166 F 
ATOM     27  C   UNL     1       3.586   0.804  22.258  0.00  0.00    +0.419 C 
ENDBRANCH  25  27
ENDBRANCH   5  19
ENDBRANCH  11   5
TORSDOF 4
ENDMDL
MODEL 5
REMARK VINA RESULT:      -0.3      3.744      5.830
REMARK  Name = 75367646
REMARK  6 active torsions:
REMARK  status: ('A' for Active; 'I' for Inactive)
REMARK    1  A    between atoms: O_5  and  C_11
REMARK    2  A    between atoms: O_5  and  C_19
REMARK    3  A    between atoms: N_8  and  C_21
REMARK    4  A    between atoms: C_16  and  C_17
REMARK    5  A    between atoms: C_20  and  C_23
REMARK    6  A    between atoms: C_25  and  C_27
REMARK                            x       y       z     vdW  Elec       q    Type
REMARK                         _______ _______ _______ _____ _____    ______ ____
ROOT
ATOM      4  O   UNL     1      -1.353   5.955  25.012  0.00  0.00    -0.375 OA
ATOM      6  O   UNL     1      -5.524   3.176  25.153  0.00  0.00    -0.268 OA
ATOM      7  N   UNL     1      -3.415   3.817  24.354  0.00  0.00    -0.291 N 
ATOM     11  C   UNL     1      -1.022   3.475  24.862  0.00  0.00    +0.218 C 
ATOM     12  C   UNL     1      -2.106   3.454  23.786  0.00  0.00    +0.155 C 
ATOM     13  C   UNL     1      -3.623   5.235  24.655  0.00  0.00    +0.136 C 
ATOM     14  C   UNL     1      -0.445   4.867  25.132  0.00  0.00    +0.206 C 
ATOM     15  C   UNL     1      -2.608   5.774  25.658  0.00  0.00    +0.179 C 
ATOM     16  C   UNL     1      -4.435   2.903  24.649  0.00  0.00    +0.265 C 
ENDROOT
BRANCH  16  17
ATOM      8  N   UNL     1      -3.536   1.010  23.254  0.00  0.00    -0.262 N 
ATOM      9  N   UNL     1      -3.464  -0.332  23.204  0.00  0.00    -0.176 NA
ATOM     17  C   UNL     1      -4.205   1.486  24.343  0.00  0.00    +0.123 A 
ATOM     18  C   UNL     1      -4.597   0.379  25.055  0.00  0.00    +0.057 A 
ATOM     20  C   UNL     1      -4.113  -0.711  24.307  0.00  0.00    +0.061 A 
ATOM     21  C   UNL     1      -2.930   1.790  22.200  0.00  0.00    +0.173 C 
ATOM     23  C   UNL     1      -4.252  -2.144  24.617  0.00  0.00    +0.067 C 
ENDBRANCH  16  17
BRANCH  11   5
ATOM      5  O   UNL     1       0.037   2.604  24.464  0.00  0.00    -0.469 OA
BRANCH   5  19
ATOM     10  N   UNL     1       0.232   0.467  23.587  0.00  0.00    -0.221 NA
ATOM     19  C   UNL     1      -0.194   1.263  24.594  0.00  0.00    +0.215 A 
ATOM     22  C   UNL     1      -0.841   0.800  25.728  0.00  0.00    +0.068 A 
ATOM     24  C   UNL     1      -1.065  -0.568  25.837  0.00  0.00    +0.019 A 
ATOM     25  C   UNL     1      -0.641  -1.419  24.822  0.00  0.00    +0.073 A 
ATOM     26  C   UNL     1      -0.003  -0.857  23.729  0.00  0.00    +0.127 A 
BRANCH  25  27
ATOM      1  F   UNL     1       0.187  -3.575  25.448  0.00  0.00    -0.166 F 
ATOM      2  F   UNL     1      -1.943  -3.236  25.674  0.00  0.00    -0.166 F 
ATOM      3  F   UNL     1      -1.085  -3.462  23.689  0.00  0.00    -0.166 F 
ATOM     27  C   UNL     1      -0.865  -2.888  24.909  0.00  0.00    +0.419 C 
ENDBRANCH  25  27
ENDBRANCH   5  19
ENDBRANCH  11   5
TORSDOF 4
ENDMDL
MODEL 6
REMARK VINA RESULT:      -0.0      4.106      5.964
REMARK  Name = 75367646
REMARK  6 active torsions:
REMARK  status: ('A' for Active; 'I' for Inactive)
REMARK    1  A    between atoms: O_5  and  C_11
REMARK    2  A    between atoms: O_5  and  C_19
REMARK    3  A    between atoms: N_8  and  C_21
REMARK    4  A    between atoms: C_16  and  C_17
REMARK    5  A    between atoms: C_20  and  C_23
REMARK    6  A    between atoms: C_25  and  C_27
REMARK                            x       y       z     vdW  Elec       q    Type
REMARK                         _______ _______ _______ _____ _____    ______ ____
ROOT
ATOM      4  O   UNL     1      -0.489   4.040  23.987  0.00  0.00    -0.375 OA
ATOM      6  O   UNL     1      -4.293   1.557  26.108  0.00  0.00    -0.268 OA
ATOM      7  N   UNL     1      -2.783   2.084  24.394  0.00  0.00    -0.291 N 
ATOM     11  C   UNL     1      -0.479   1.553  23.680  0.00  0.00    +0.218 C 
ATOM     12  C   UNL     1      -1.944   1.657  23.262  0.00  0.00    +0.155 C 
ATOM     13  C   UNL     1      -2.701   3.499  24.767  0.00  0.00    +0.136 C 
ATOM     14  C   UNL     1       0.271   2.887  23.647  0.00  0.00    +0.206 C 
ATOM     15  C   UNL     1      -1.288   3.919  25.158  0.00  0.00    +0.179 C 
ATOM     16  C   UNL     1      -3.608   1.232  25.139  0.00  0.00    +0.265 C 
ENDROOT
BRANCH  16  17
ATOM      8  N   UNL     1      -2.773  -1.143  25.109  0.00  0.00    -0.262 N 
ATOM      9  N   UNL     1      -3.059  -2.363  24.622  0.00  0.00    -0.176 NA
ATOM     17  C   UNL     1      -3.673  -0.183  24.752  0.00  0.00    +0.123 A 
ATOM     18  C   UNL     1      -4.612  -0.818  23.978  0.00  0.00    +0.057 A 
ATOM     20  C   UNL     1      -4.184  -2.159  23.933  0.00  0.00    +0.061 A 
ATOM     21  C   UNL     1      -1.595  -0.967  25.926  0.00  0.00    +0.173 C 
ATOM     23  C   UNL     1      -4.828  -3.283  23.235  0.00  0.00    +0.067 C 
ENDBRANCH  16  17
BRANCH  11   5
ATOM      5  O   UNL     1       0.181   0.629  22.816  0.00  0.00    -0.469 OA
BRANCH   5  19
ATOM     10  N   UNL     1       2.322   1.513  22.930  0.00  0.00    -0.221 NA
ATOM     19  C   UNL     1       1.516   0.433  23.037  0.00  0.00    +0.215 A 
ATOM     22  C   UNL     1       1.964  -0.840  23.352  0.00  0.00    +0.068 A 
ATOM     24  C   UNL     1       3.325  -1.015  23.573  0.00  0.00    +0.019 A 
ATOM     25  C   UNL     1       4.186   0.073  23.472  0.00  0.00    +0.073 A 
ATOM     26  C   UNL     1       3.639   1.305  23.151  0.00  0.00    +0.127 A 
BRANCH  25  27
ATOM      1  F   UNL     1       5.963  -1.045  24.619  0.00  0.00    -0.166 F 
ATOM      2  F   UNL     1       6.349  -0.419  22.579  0.00  0.00    -0.166 F 
ATOM      3  F   UNL     1       6.234   1.064  24.165  0.00  0.00    -0.166 F 
ATOM     27  C   UNL     1       5.648  -0.081  23.703  0.00  0.00    +0.419 C 
ENDBRANCH  25  27
ENDBRANCH   5  19
ENDBRANCH  11   5
TORSDOF 4
ENDMDL
MODEL 7
REMARK VINA RESULT:       0.0      3.708      6.411
REMARK  Name = 75367646
REMARK  6 active torsions:
REMARK  status: ('A' for Active; 'I' for Inactive)
REMARK    1  A    between atoms: O_5  and  C_11
REMARK    2  A    between atoms: O_5  and  C_19
REMARK    3  A    between atoms: N_8  and  C_21
REMARK    4  A    between atoms: C_16  and  C_17
REMARK    5  A    between atoms: C_20  and  C_23
REMARK    6  A    between atoms: C_25  and  C_27
REMARK                            x       y       z     vdW  Elec       q    Type
REMARK                         _______ _______ _______ _____ _____    ______ ____
ROOT
ATOM      4  O   UNL     1      -6.117   4.099  26.175  0.00  0.00    -0.375 OA
ATOM      6  O   UNL     1      -1.370   4.828  24.737  0.00  0.00    -0.268 OA
ATOM      7  N   UNL     1      -3.177   3.594  25.578  0.00  0.00    -0.291 N 
ATOM     11  C   UNL     1      -5.109   2.287  24.767  0.00  0.00    +0.218 C 
ATOM     12  C   UNL     1      -3.899   2.318  25.698  0.00  0.00    +0.155 C 
ATOM     13  C   UNL     1      -3.801   4.757  26.215  0.00  0.00    +0.136 C 
ATOM     14  C   UNL     1      -6.352   2.968  25.346  0.00  0.00    +0.206 C 
ATOM     15  C   UNL     1      -5.192   5.049  25.660  0.00  0.00    +0.179 C 
ATOM     16  C   UNL     1      -1.976   3.767  24.878  0.00  0.00    +0.265 C 
ENDROOT
BRANCH  16  17
ATOM      8  N   UNL     1      -1.764   2.035  23.064  0.00  0.00    -0.262 N 
ATOM      9  N   UNL     1      -1.043   0.959  22.701  0.00  0.00    -0.176 NA
ATOM     17  C   UNL     1      -1.368   2.590  24.245  0.00  0.00    +0.123 A 
ATOM     18  C   UNL     1      -0.316   1.825  24.685  0.00  0.00    +0.057 A 
ATOM     20  C   UNL     1      -0.160   0.837  23.695  0.00  0.00    +0.061 A 
ATOM     21  C   UNL     1      -2.840   2.483  22.212  0.00  0.00    +0.173 C 
ATOM     23  C   UNL     1       0.831  -0.252  23.663  0.00  0.00    +0.067 C 
ENDBRANCH  16  17
BRANCH  11   5
ATOM      5  O   UNL     1      -5.424   0.928  24.466  0.00  0.00    -0.469 OA
BRANCH   5  19
ATOM     10  N   UNL     1      -4.069  -0.690  23.505  0.00  0.00    -0.221 NA
ATOM     19  C   UNL     1      -4.409   0.021  24.604  0.00  0.00    +0.215 A 
ATOM     22  C   UNL     1      -3.796  -0.118  25.839  0.00  0.00    +0.068 A 
ATOM     24  C   UNL     1      -2.768  -1.046  25.953  0.00  0.00    +0.019 A 
ATOM     25  C   UNL     1      -2.389  -1.797  24.845  0.00  0.00    +0.073 A 
ATOM     26  C   UNL     1      -3.065  -1.583  23.656  0.00  0.00    +0.127 A 
BRANCH  25  27
ATOM      1  F   UNL     1      -0.887  -3.282  23.723  0.00  0.00    -0.166 F 
ATOM      2  F   UNL     1      -0.154  -2.317  25.521  0.00  0.00    -0.166 F 
ATOM      3  F   UNL     1      -1.639  -3.898  25.668  0.00  0.00    -0.166 F 
ATOM     27  C   UNL     1      -1.292  -2.798  24.936  0.00  0.00    +0.419 C 
ENDBRANCH  25  27
ENDBRANCH   5  19
ENDBRANCH  11   5
TORSDOF 4
ENDMDL
MODEL 8
REMARK VINA RESULT:       0.1      1.891      3.855
REMARK  Name = 75367646
REMARK  6 active torsions:
REMARK  status: ('A' for Active; 'I' for Inactive)
REMARK    1  A    between atoms: O_5  and  C_11
REMARK    2  A    between atoms: O_5  and  C_19
REMARK    3  A    between atoms: N_8  and  C_21
REMARK    4  A    between atoms: C_16  and  C_17
REMARK    5  A    between atoms: C_20  and  C_23
REMARK    6  A    between atoms: C_25  and  C_27
REMARK                            x       y       z     vdW  Elec       q    Type
REMARK                         _______ _______ _______ _____ _____    ______ ____
ROOT
ATOM      4  O   UNL     1      -4.242  -3.390  23.836  0.00  0.00    -0.375 OA
ATOM      6  O   UNL     1       0.162  -2.038  25.813  0.00  0.00    -0.268 OA
ATOM      7  N   UNL     1      -1.600  -1.946  24.270  0.00  0.00    -0.291 N 
ATOM     11  C   UNL     1      -3.834  -0.924  24.017  0.00  0.00    +0.218 C 
ATOM     12  C   UNL     1      -2.468  -1.162  23.377  0.00  0.00    +0.155 C 
ATOM     13  C   UNL     1      -1.895  -3.377  24.372  0.00  0.00    +0.136 C 
ATOM     14  C   UNL     1      -4.813  -2.087  23.838  0.00  0.00    +0.206 C 
ATOM     15  C   UNL     1      -3.309  -3.647  24.878  0.00  0.00    +0.179 C 
ATOM     16  C   UNL     1      -0.556  -1.411  25.037  0.00  0.00    +0.265 C 
ENDROOT
BRANCH  16  17
ATOM      8  N   UNL     1       0.446   0.615  23.929  0.00  0.00    -0.262 N 
ATOM      9  N   UNL     1       0.555   1.949  24.054  0.00  0.00    -0.176 NA
ATOM     17  C   UNL     1      -0.279   0.026  24.922  0.00  0.00    +0.123 A 
ATOM     18  C   UNL     1      -0.672   1.045  25.754  0.00  0.00    +0.057 A 
ATOM     20  C   UNL     1      -0.131   2.206  25.170  0.00  0.00    +0.061 A 
ATOM     21  C   UNL     1       1.078  -0.043  22.809  0.00  0.00    +0.173 C 
ATOM     23  C   UNL     1      -0.248   3.592  25.654  0.00  0.00    +0.067 C 
ENDBRANCH  16  17
BRANCH  11   5
ATOM      5  O   UNL     1      -4.408   0.254  23.452  0.00  0.00    -0.469 OA
BRANCH   5  19
ATOM     10  N   UNL     1      -4.677   1.536  25.365  0.00  0.00    -0.221 NA
ATOM     19  C   UNL     1      -4.173   1.427  24.115  0.00  0.00    +0.215 A 
ATOM     22  C   UNL     1      -3.446   2.422  23.482  0.00  0.00    +0.068 A 
ATOM     24  C   UNL     1      -3.220   3.605  24.177  0.00  0.00    +0.019 A 
ATOM     25  C   UNL     1      -3.722   3.754  25.465  0.00  0.00    +0.073 A 
ATOM     26  C   UNL     1      -4.437   2.700  26.009  0.00  0.00    +0.127 A 
BRANCH  25  27
ATOM      1  F   UNL     1      -3.077   4.798  27.519  0.00  0.00    -0.166 F 
ATOM      2  F   UNL     1      -2.555   5.831  25.685  0.00  0.00    -0.166 F 
ATOM      3  F   UNL     1      -4.626   5.771  26.343  0.00  0.00    -0.166 F 
ATOM     27  C   UNL     1      -3.497   5.008  26.235  0.00  0.00    +0.419 C 
ENDBRANCH  25  27
ENDBRANCH   5  19
ENDBRANCH  11   5
TORSDOF 4
ENDMDL
MODEL 9
REMARK VINA RESULT:       0.2      3.173      5.325
REMARK  Name = 75367646
REMARK  6 active torsions:
REMARK  status: ('A' for Active; 'I' for Inactive)
REMARK    1  A    between atoms: O_5  and  C_11
REMARK    2  A    between atoms: O_5  and  C_19
REMARK    3  A    between atoms: N_8  and  C_21
REMARK    4  A    between atoms: C_16  and  C_17
REMARK    5  A    between atoms: C_20  and  C_23
REMARK    6  A    between atoms: C_25  and  C_27
REMARK                            x       y       z     vdW  Elec       q    Type
REMARK                         _______ _______ _______ _____ _____    ______ ____
ROOT
ATOM      4  O   UNL     1      -3.239   4.625  25.344  0.00  0.00    -0.375 OA
ATOM      6  O   UNL     1      -6.027   0.616  24.206  0.00  0.00    -0.268 OA
ATOM      7  N   UNL     1      -4.055   1.879  24.320  0.00  0.00    -0.291 N 
ATOM     11  C   UNL     1      -2.238   2.399  25.911  0.00  0.00    +0.218 C 
ATOM     12  C   UNL     1      -2.595   1.944  24.497  0.00  0.00    +0.155 C 
ATOM     13  C   UNL     1      -4.750   3.160  24.174  0.00  0.00    +0.136 C 
ATOM     14  C   UNL     1      -2.261   3.918  26.096  0.00  0.00    +0.206 C 
ATOM     15  C   UNL     1      -4.550   4.074  25.379  0.00  0.00    +0.179 C 
ATOM     16  C   UNL     1      -4.804   0.695  24.320  0.00  0.00    +0.265 C 
ENDROOT
BRANCH  16  17
ATOM      8  N   UNL     1      -3.729  -1.146  25.657  0.00  0.00    -0.262 N 
ATOM      9  N   UNL     1      -3.080  -2.316  25.524  0.00  0.00    -0.176 NA
ATOM     17  C   UNL     1      -4.089  -0.578  24.471  0.00  0.00    +0.123 A 
ATOM     18  C   UNL     1      -3.647  -1.435  23.494  0.00  0.00    +0.057 A 
ATOM     20  C   UNL     1      -3.034  -2.488  24.200  0.00  0.00    +0.061 A 
ATOM     21  C   UNL     1      -3.972  -0.621  26.980  0.00  0.00    +0.173 C 
ATOM     23  C   UNL     1      -2.387  -3.686  23.640  0.00  0.00    +0.067 C 
ENDBRANCH  16  17
BRANCH  11   5
ATOM      5  O   UNL     1      -0.935   1.913  26.235  0.00  0.00    -0.469 OA
BRANCH   5  19
ATOM     10  N   UNL     1       0.713   2.161  24.623  0.00  0.00    -0.221 NA
ATOM     19  C   UNL     1      -0.214   1.369  25.209  0.00  0.00    +0.215 A 
ATOM     22  C   UNL     1      -0.466   0.060  24.830  0.00  0.00    +0.068 A 
ATOM     24  C   UNL     1       0.280  -0.470  23.785  0.00  0.00    +0.019 A 
ATOM     25  C   UNL     1       1.243   0.313  23.157  0.00  0.00    +0.073 A 
ATOM     26  C   UNL     1       1.419   1.610  23.610  0.00  0.00    +0.127 A 
BRANCH  25  27
ATOM      1  F   UNL     1       1.323  -0.573  20.936  0.00  0.00    -0.166 F 
ATOM      2  F   UNL     1       2.998   0.650  21.568  0.00  0.00    -0.166 F 
ATOM      3  F   UNL     1       2.751  -1.352  22.378  0.00  0.00    -0.166 F 
ATOM     27  C   UNL     1       2.059  -0.226  22.035  0.00  0.00    +0.419 C 
ENDBRANCH  25  27
ENDBRANCH   5  19
ENDBRANCH  11   5
TORSDOF 4
ENDMDL
MODEL 10
REMARK VINA RESULT:       0.9      3.926      6.807
REMARK  Name = 75367646
REMARK  6 active torsions:
REMARK  status: ('A' for Active; 'I' for Inactive)
REMARK    1  A    between atoms: O_5  and  C_11
REMARK    2  A    between atoms: O_5  and  C_19
REMARK    3  A    between atoms: N_8  and  C_21
REMARK    4  A    between atoms: C_16  and  C_17
REMARK    5  A    between atoms: C_20  and  C_23
REMARK    6  A    between atoms: C_25  and  C_27
REMARK                            x       y       z     vdW  Elec       q    Type
REMARK                         _______ _______ _______ _____ _____    ______ ____
ROOT
ATOM      4  O   UNL     1      -4.114   4.860  25.911  0.00  0.00    -0.375 OA
ATOM      6  O   UNL     1       0.641   3.298  26.197  0.00  0.00    -0.268 OA
ATOM      7  N   UNL     1      -1.677   3.040  25.966  0.00  0.00    -0.291 N 
ATOM     11  C   UNL     1      -3.422   3.144  24.221  0.00  0.00    +0.218 C 
ATOM     12  C   UNL     1      -2.825   2.336  25.371  0.00  0.00    +0.155 C 
ATOM     13  C   UNL     1      -1.990   4.187  26.822  0.00  0.00    +0.136 C 
ATOM     14  C   UNL     1      -4.404   4.229  24.670  0.00  0.00    +0.206 C 
ATOM     15  C   UNL     1      -2.764   5.274  26.082  0.00  0.00    +0.179 C 
ATOM     16  C   UNL     1      -0.335   2.707  25.738  0.00  0.00    +0.265 C 
ENDROOT
BRANCH  16  17
ATOM      8  N   UNL     1      -0.411   0.267  25.125  0.00  0.00    -0.262 N 
ATOM      9  N   UNL     1      -0.021  -0.602  24.176  0.00  0.00    -0.176 NA
ATOM     17  C   UNL     1      -0.044   1.557  24.875  0.00  0.00    +0.123 A 
ATOM     18  C   UNL     1       0.634   1.529  23.681  0.00  0.00    +0.057 A 
ATOM     20  C   UNL     1       0.616   0.175  23.297  0.00  0.00    +0.061 A 
ATOM     21  C   UNL     1      -1.148  -0.219  26.268  0.00  0.00    +0.173 C 
ATOM     23  C   UNL     1       1.203  -0.421  22.085  0.00  0.00    +0.067 C 
ENDBRANCH  16  17
BRANCH  11   5
ATOM      5  O   UNL     1      -4.093   2.251  23.332  0.00  0.00    -0.469 OA
BRANCH   5  19
ATOM     10  N   UNL     1      -3.111   0.214  22.821  0.00  0.00    -0.221 NA
ATOM     19  C   UNL     1      -3.967   0.916  23.597  0.00  0.00    +0.215 A 
ATOM     22  C   UNL     1      -4.711   0.363  24.628  0.00  0.00    +0.068 A 
ATOM     24  C   UNL     1      -4.566  -0.996  24.878  0.00  0.00    +0.019 A 
ATOM     25  C   UNL     1      -3.694  -1.752  24.102  0.00  0.00    +0.073 A 
ATOM     26  C   UNL     1      -2.997  -1.105  23.095  0.00  0.00    +0.127 A 
BRANCH  25  27
ATOM      1  F   UNL     1      -3.553  -3.556  25.666  0.00  0.00    -0.166 F 
ATOM      2  F   UNL     1      -4.471  -3.986  23.750  0.00  0.00    -0.166 F 
ATOM      3  F   UNL     1      -2.322  -3.681  23.879  0.00  0.00    -0.166 F 
ATOM     27  C   UNL     1      -3.517  -3.209  24.345  0.00  0.00    +0.419 C 
ENDBRANCH  25  27
ENDBRANCH   5  19
ENDBRANCH  11   5
TORSDOF 4
ENDMDL
