MODEL 1
REMARK VINA RESULT:      -3.0      0.000      0.000
REMARK  Name = 7049408
REMARK  14 active torsions:
REMARK  status: ('A' for Active; 'I' for Inactive)
REMARK    1  A    between atoms: S_1  and  C_19
REMARK    2  A    between atoms: S_1  and  C_25
REMARK    3  A    between atoms: O_5  and  C_21
REMARK    4  A    between atoms: O_5  and  C_26
REMARK    5  A    between atoms: N_8  and  C_12
REMARK    6  A    between atoms: N_9  and  C_17
REMARK    7  A    between atoms: N_10  and  C_24
REMARK    8  A    between atoms: C_11  and  C_15
REMARK    9  A    between atoms: C_16  and  C_19
REMARK   10  A    between atoms: C_17  and  C_18
REMARK   11  A    between atoms: C_17  and  C_21
REMARK   12  A    between atoms: C_18  and  C_22
REMARK   13  A    between atoms: C_18  and  C_23
REMARK   14  A    between atoms: C_24  and  C_27
REMARK                            x       y       z     vdW  Elec       q    Type
REMARK                         _______ _______ _______ _____ _____    ______ ____
ROOT
ATOM      3  O   UNL     1      -4.291   0.060  25.143  0.00  0.00    -0.275 OA
ATOM      7  N   UNL     1      -2.199  -0.772  24.611  0.00  0.00    -0.287 N 
ATOM     11  C   UNL     1      -1.542  -0.352  25.839  0.00  0.00    +0.164 C 
ATOM     12  C   UNL     1       0.091  -1.354  24.367  0.00  0.00    +0.094 C 
ATOM     13  C   UNL     1      -0.203  -1.088  25.845  0.00  0.00    +0.055 C 
ATOM     14  C   UNL     1      -1.294  -1.543  23.757  0.00  0.00    +0.131 C 
ATOM     16  C   UNL     1      -3.558  -0.596  24.402  0.00  0.00    +0.226 C 
ENDROOT
BRANCH  12   8
ATOM      4  O   UNL     1       2.847  -1.330  23.510  0.00  0.00    -0.253 OA
ATOM      8  N   UNL     1       0.802  -0.259  23.756  0.00  0.00    -0.295 N 
ATOM     10  N   UNL     1       2.575   0.864  22.808  0.00  0.00    -0.296 N 
ATOM     20  C   UNL     1       2.140  -0.334  23.371  0.00  0.00    +0.300 C 
ATOM     29  H   UNL     1       0.323   0.632  23.655  0.00  0.00    +0.151 HD
ATOM     31  H   UNL     1       1.923   1.643  22.754  0.00  0.00    +0.151 HD
BRANCH  10  24
ATOM     24  C   UNL     1       3.920   1.059  22.324  0.00  0.00    +0.132 C 
BRANCH  24  27
ATOM     27  C   UNL     1       4.881   0.796  23.436  0.00  0.00    -0.016 C 
ATOM     28  C   UNL     1       5.834  -0.142  23.391  0.00  0.00    +0.005 C 
ENDBRANCH  24  27
ENDBRANCH  10  24
ENDBRANCH  12   8
BRANCH  11  15
ATOM      2  O   UNL     1      -0.522   1.700  26.509  0.00  0.00    -0.274 OA
ATOM      9  N   UNL     1      -2.216   1.751  24.912  0.00  0.00    -0.301 N 
ATOM     15  C   UNL     1      -1.351   1.134  25.800  0.00  0.00    +0.234 C 
ATOM     30  H   UNL     1      -2.793   1.167  24.314  0.00  0.00    +0.150 HD
BRANCH   9  17
ATOM     17  C   UNL     1      -2.249   3.180  24.705  0.00  0.00    +0.184 C 
BRANCH  17  18
ATOM     18  C   UNL     1      -0.865   3.837  24.897  0.00  0.00    +0.014 C 
ATOM     22  C   UNL     1       0.127   3.361  23.833  0.00  0.00    +0.009 C 
ATOM     23  C   UNL     1      -0.920   5.369  24.912  0.00  0.00    +0.009 C 
ENDBRANCH  17  18
BRANCH  17  21
ATOM      6  O   UNL     1      -3.065   4.276  26.701  0.00  0.00    -0.249 OA
ATOM     21  C   UNL     1      -3.307   3.850  25.576  0.00  0.00    +0.328 C 
BRANCH  21   5
ATOM      5  O   UNL     1      -4.520   3.910  24.959  0.00  0.00    -0.467 OA
ATOM     26  C   UNL     1      -5.579   3.188  25.597  0.00  0.00    +0.280 C 
ENDBRANCH  21   5
ENDBRANCH  17  21
ENDBRANCH   9  17
ENDBRANCH  11  15
BRANCH  16  19
ATOM     19  C   UNL     1      -4.119  -1.261  23.170  0.00  0.00    +0.164 C 
BRANCH  19   1
ATOM      1  S   UNL     1      -4.687  -2.901  23.644  0.00  0.00    -0.155 S 
ATOM     25  C   UNL     1      -3.517  -3.225  24.986  0.00  0.00    +0.085 C 
ENDBRANCH  19   1
ENDBRANCH  16  19
TORSDOF 10
ENDMDL
MODEL 2
REMARK VINA RESULT:      -2.6      2.185      6.495
REMARK  Name = 7049408
REMARK  14 active torsions:
REMARK  status: ('A' for Active; 'I' for Inactive)
REMARK    1  A    between atoms: S_1  and  C_19
REMARK    2  A    between atoms: S_1  and  C_25
REMARK    3  A    between atoms: O_5  and  C_21
REMARK    4  A    between atoms: O_5  and  C_26
REMARK    5  A    between atoms: N_8  and  C_12
REMARK    6  A    between atoms: N_9  and  C_17
REMARK    7  A    between atoms: N_10  and  C_24
REMARK    8  A    between atoms: C_11  and  C_15
REMARK    9  A    between atoms: C_16  and  C_19
REMARK   10  A    between atoms: C_17  and  C_18
REMARK   11  A    between atoms: C_17  and  C_21
REMARK   12  A    between atoms: C_18  and  C_22
REMARK   13  A    between atoms: C_18  and  C_23
REMARK   14  A    between atoms: C_24  and  C_27
REMARK                            x       y       z     vdW  Elec       q    Type
REMARK                         _______ _______ _______ _____ _____    ______ ____
ROOT
ATOM      3  O   UNL     1       0.332  -1.167  24.261  0.00  0.00    -0.275 OA
ATOM      7  N   UNL     1       0.136   1.130  24.461  0.00  0.00    -0.287 N 
ATOM     11  C   UNL     1      -0.488   1.124  25.776  0.00  0.00    +0.164 C 
ATOM     12  C   UNL     1      -0.361   3.397  24.967  0.00  0.00    +0.094 C 
ATOM     13  C   UNL     1      -0.419   2.572  26.256  0.00  0.00    +0.055 C 
ATOM     14  C   UNL     1       0.398   2.494  24.001  0.00  0.00    +0.131 C 
ATOM     16  C   UNL     1       0.571  -0.033  23.843  0.00  0.00    +0.226 C 
ENDROOT
BRANCH  12   8
ATOM      4  O   UNL     1      -2.658   4.174  26.532  0.00  0.00    -0.253 OA
ATOM      8  N   UNL     1      -1.678   3.720  24.478  0.00  0.00    -0.295 N 
ATOM     10  N   UNL     1      -3.892   4.345  24.576  0.00  0.00    -0.296 N 
ATOM     20  C   UNL     1      -2.736   4.088  25.308  0.00  0.00    +0.300 C 
ATOM     29  H   UNL     1      -1.863   3.616  23.484  0.00  0.00    +0.151 HD
ATOM     31  H   UNL     1      -3.867   4.225  23.566  0.00  0.00    +0.151 HD
BRANCH  10  24
ATOM     24  C   UNL     1      -5.136   4.745  25.189  0.00  0.00    +0.132 C 
BRANCH  24  27
ATOM     27  C   UNL     1      -5.807   3.540  25.759  0.00  0.00    -0.016 C 
ATOM     28  C   UNL     1      -6.003   2.404  25.080  0.00  0.00    +0.005 C 
ENDBRANCH  24  27
ENDBRANCH  10  24
ENDBRANCH  12   8
BRANCH  11  15
ATOM      2  O   UNL     1      -2.857   1.414  25.821  0.00  0.00    -0.274 OA
ATOM      9  N   UNL     1      -1.988  -0.682  25.301  0.00  0.00    -0.301 N 
ATOM     15  C   UNL     1      -1.906   0.659  25.634  0.00  0.00    +0.234 C 
ATOM     30  H   UNL     1      -1.131  -1.180  25.081  0.00  0.00    +0.150 HD
BRANCH   9  17
ATOM     17  C   UNL     1      -3.242  -1.379  25.128  0.00  0.00    +0.184 C 
BRANCH  17  18
ATOM     18  C   UNL     1      -3.046  -2.856  24.725  0.00  0.00    +0.014 C 
ATOM     22  C   UNL     1      -4.182  -3.339  23.818  0.00  0.00    +0.009 C 
ATOM     23  C   UNL     1      -1.694  -3.127  24.057  0.00  0.00    +0.009 C 
ENDBRANCH  17  18
BRANCH  17  21
ATOM      6  O   UNL     1      -5.337  -0.425  24.386  0.00  0.00    -0.249 OA
ATOM     21  C   UNL     1      -4.156  -0.653  24.146  0.00  0.00    +0.328 C 
BRANCH  21   5
ATOM      5  O   UNL     1      -3.508  -0.302  23.000  0.00  0.00    -0.467 OA
ATOM     26  C   UNL     1      -3.288   1.100  22.814  0.00  0.00    +0.280 C 
ENDBRANCH  21   5
ENDBRANCH  17  21
ENDBRANCH   9  17
ENDBRANCH  11  15
BRANCH  16  19
ATOM     19  C   UNL     1       1.372   0.162  22.581  0.00  0.00    +0.164 C 
BRANCH  19   1
ATOM      1  S   UNL     1       3.030  -0.469  22.882  0.00  0.00    -0.155 S 
ATOM     25  C   UNL     1       3.951   1.080  22.725  0.00  0.00    +0.085 C 
ENDBRANCH  19   1
ENDBRANCH  16  19
TORSDOF 10
ENDMDL
MODEL 3
REMARK VINA RESULT:      -1.7      2.946      5.561
REMARK  Name = 7049408
REMARK  14 active torsions:
REMARK  status: ('A' for Active; 'I' for Inactive)
REMARK    1  A    between atoms: S_1  and  C_19
REMARK    2  A    between atoms: S_1  and  C_25
REMARK    3  A    between atoms: O_5  and  C_21
REMARK    4  A    between atoms: O_5  and  C_26
REMARK    5  A    between atoms: N_8  and  C_12
REMARK    6  A    between atoms: N_9  and  C_17
REMARK    7  A    between atoms: N_10  and  C_24
REMARK    8  A    between atoms: C_11  and  C_15
REMARK    9  A    between atoms: C_16  and  C_19
REMARK   10  A    between atoms: C_17  and  C_18
REMARK   11  A    between atoms: C_17  and  C_21
REMARK   12  A    between atoms: C_18  and  C_22
REMARK   13  A    between atoms: C_18  and  C_23
REMARK   14  A    between atoms: C_24  and  C_27
REMARK                            x       y       z     vdW  Elec       q    Type
REMARK                         _______ _______ _______ _____ _____    ______ ____
ROOT
ATOM      3  O   UNL     1      -4.555   1.738  23.988  0.00  0.00    -0.275 OA
ATOM      7  N   UNL     1      -2.731   3.129  24.296  0.00  0.00    -0.287 N 
ATOM     11  C   UNL     1      -1.905   2.544  23.251  0.00  0.00    +0.164 C 
ATOM     12  C   UNL     1      -0.640   4.250  24.403  0.00  0.00    +0.094 C 
ATOM     13  C   UNL     1      -0.753   3.528  23.057  0.00  0.00    +0.055 C 
ATOM     14  C   UNL     1      -2.078   4.286  24.909  0.00  0.00    +0.131 C 
ATOM     16  C   UNL     1      -4.037   2.720  24.523  0.00  0.00    +0.226 C 
ENDROOT
BRANCH  12   8
ATOM      4  O   UNL     1      -1.306   3.240  27.023  0.00  0.00    -0.253 OA
ATOM      8  N   UNL     1       0.233   3.552  25.314  0.00  0.00    -0.295 N 
ATOM     10  N   UNL     1       0.867   2.458  27.238  0.00  0.00    -0.296 N 
ATOM     20  C   UNL     1      -0.173   3.097  26.567  0.00  0.00    +0.300 C 
ATOM     29  H   UNL     1       1.210   3.439  25.056  0.00  0.00    +0.151 HD
ATOM     31  H   UNL     1       1.778   2.406  26.789  0.00  0.00    +0.151 HD
BRANCH  10  24
ATOM     24  C   UNL     1       0.718   1.891  28.557  0.00  0.00    +0.132 C 
BRANCH  24  27
ATOM     27  C   UNL     1       1.806   2.411  29.436  0.00  0.00    -0.016 C 
ATOM     28  C   UNL     1       2.889   3.053  28.982  0.00  0.00    +0.005 C 
ENDBRANCH  24  27
ENDBRANCH  10  24
ENDBRANCH  12   8
BRANCH  11  15
ATOM      2  O   UNL     1      -0.215   0.968  23.851  0.00  0.00    -0.274 OA
ATOM      9  N   UNL     1      -2.449   0.316  23.942  0.00  0.00    -0.301 N 
ATOM     15  C   UNL     1      -1.413   1.207  23.717  0.00  0.00    +0.234 C 
ATOM     30  H   UNL     1      -3.403   0.658  23.885  0.00  0.00    +0.150 HD
BRANCH   9  17
ATOM     17  C   UNL     1      -2.239  -1.047  24.375  0.00  0.00    +0.184 C 
BRANCH  17  18
ATOM     18  C   UNL     1      -3.361  -1.996  23.902  0.00  0.00    +0.014 C 
ATOM     22  C   UNL     1      -3.361  -3.299  24.707  0.00  0.00    +0.009 C 
ATOM     23  C   UNL     1      -4.753  -1.356  23.945  0.00  0.00    +0.009 C 
ENDBRANCH  17  18
BRANCH  17  21
ATOM      6  O   UNL     1      -2.969  -1.044  26.680  0.00  0.00    -0.249 OA
ATOM     21  C   UNL     1      -2.040  -1.132  25.884  0.00  0.00    +0.328 C 
BRANCH  21   5
ATOM      5  O   UNL     1      -0.733  -1.312  26.223  0.00  0.00    -0.467 OA
ATOM     26  C   UNL     1       0.045  -2.092  25.309  0.00  0.00    +0.280 C 
ENDBRANCH  21   5
ENDBRANCH  17  21
ENDBRANCH   9  17
ENDBRANCH  11  15
BRANCH  16  19
ATOM     19  C   UNL     1      -4.820   3.556  25.503  0.00  0.00    +0.164 C 
BRANCH  19   1
ATOM      1  S   UNL     1      -6.495   2.900  25.565  0.00  0.00    -0.155 S 
ATOM     25  C   UNL     1      -6.250   1.627  26.827  0.00  0.00    +0.085 C 
ENDBRANCH  19   1
ENDBRANCH  16  19
TORSDOF 10
ENDMDL
MODEL 4
REMARK VINA RESULT:      -1.5      2.328      6.466
REMARK  Name = 7049408
REMARK  14 active torsions:
REMARK  status: ('A' for Active; 'I' for Inactive)
REMARK    1  A    between atoms: S_1  and  C_19
REMARK    2  A    between atoms: S_1  and  C_25
REMARK    3  A    between atoms: O_5  and  C_21
REMARK    4  A    between atoms: O_5  and  C_26
REMARK    5  A    between atoms: N_8  and  C_12
REMARK    6  A    between atoms: N_9  and  C_17
REMARK    7  A    between atoms: N_10  and  C_24
REMARK    8  A    between atoms: C_11  and  C_15
REMARK    9  A    between atoms: C_16  and  C_19
REMARK   10  A    between atoms: C_17  and  C_18
REMARK   11  A    between atoms: C_17  and  C_21
REMARK   12  A    between atoms: C_18  and  C_22
REMARK   13  A    between atoms: C_18  and  C_23
REMARK   14  A    between atoms: C_24  and  C_27
REMARK                            x       y       z     vdW  Elec       q    Type
REMARK                         _______ _______ _______ _____ _____    ______ ____
ROOT
ATOM      3  O   UNL     1       0.879  -1.131  23.988  0.00  0.00    -0.275 OA
ATOM      7  N   UNL     1       0.483   1.134  24.246  0.00  0.00    -0.287 N 
ATOM     11  C   UNL     1      -0.141   1.039  25.557  0.00  0.00    +0.164 C 
ATOM     12  C   UNL     1      -0.212   3.335  24.807  0.00  0.00    +0.094 C 
ATOM     13  C   UNL     1      -0.200   2.476  26.074  0.00  0.00    +0.055 C 
ATOM     14  C   UNL     1       0.626   2.527  23.822  0.00  0.00    +0.131 C 
ATOM     16  C   UNL     1       1.020   0.030  23.601  0.00  0.00    +0.226 C 
ENDROOT
BRANCH  12   8
ATOM      4  O   UNL     1      -2.520   4.121  26.352  0.00  0.00    -0.253 OA
ATOM      8  N   UNL     1      -1.551   3.554  24.320  0.00  0.00    -0.295 N 
ATOM     10  N   UNL     1      -3.792   4.076  24.413  0.00  0.00    -0.296 N 
ATOM     20  C   UNL     1      -2.613   3.934  25.141  0.00  0.00    +0.300 C 
ATOM     29  H   UNL     1      -1.747   3.363  23.341  0.00  0.00    +0.151 HD
ATOM     31  H   UNL     1      -3.777   3.879  23.416  0.00  0.00    +0.151 HD
BRANCH  10  24
ATOM     24  C   UNL     1      -5.044   4.463  25.018  0.00  0.00    +0.132 C 
BRANCH  24  27
ATOM     27  C   UNL     1      -5.629   3.284  25.722  0.00  0.00    -0.016 C 
ATOM     28  C   UNL     1      -6.063   2.183  25.098  0.00  0.00    +0.005 C 
ENDBRANCH  24  27
ENDBRANCH  10  24
ENDBRANCH  12   8
BRANCH  11  15
ATOM      2  O   UNL     1      -2.486   0.917  25.989  0.00  0.00    -0.274 OA
ATOM      9  N   UNL     1      -1.523  -0.636  24.547  0.00  0.00    -0.301 N 
ATOM     15  C   UNL     1      -1.513   0.456  25.397  0.00  0.00    +0.234 C 
ATOM     30  H   UNL     1      -0.671  -0.866  24.044  0.00  0.00    +0.150 HD
BRANCH   9  17
ATOM     17  C   UNL     1      -2.717  -1.391  24.244  0.00  0.00    +0.184 C 
BRANCH  17  18
ATOM     18  C   UNL     1      -3.791  -0.537  23.536  0.00  0.00    +0.014 C 
ATOM     22  C   UNL     1      -5.005  -0.311  24.442  0.00  0.00    +0.009 C 
ATOM     23  C   UNL     1      -3.258   0.808  23.030  0.00  0.00    +0.009 C 
ENDBRANCH  17  18
BRANCH  17  21
ATOM      6  O   UNL     1      -3.373  -1.506  26.568  0.00  0.00    -0.249 OA
ATOM     21  C   UNL     1      -3.281  -2.073  25.485  0.00  0.00    +0.328 C 
BRANCH  21   5
ATOM      5  O   UNL     1      -3.657  -3.360  25.240  0.00  0.00    -0.467 OA
ATOM     26  C   UNL     1      -3.678  -3.751  23.864  0.00  0.00    +0.280 C 
ENDBRANCH  21   5
ENDBRANCH  17  21
ENDBRANCH   9  17
ENDBRANCH  11  15
BRANCH  16  19
ATOM     19  C   UNL     1       1.803   0.326  22.347  0.00  0.00    +0.164 C 
BRANCH  19   1
ATOM      1  S   UNL     1       3.475   0.773  22.840  0.00  0.00    -0.155 S 
ATOM     25  C   UNL     1       4.032  -0.842  23.436  0.00  0.00    +0.085 C 
ENDBRANCH  19   1
ENDBRANCH  16  19
TORSDOF 10
ENDMDL
MODEL 5
REMARK VINA RESULT:      -0.9      2.938      5.389
REMARK  Name = 7049408
REMARK  14 active torsions:
REMARK  status: ('A' for Active; 'I' for Inactive)
REMARK    1  A    between atoms: S_1  and  C_19
REMARK    2  A    between atoms: S_1  and  C_25
REMARK    3  A    between atoms: O_5  and  C_21
REMARK    4  A    between atoms: O_5  and  C_26
REMARK    5  A    between atoms: N_8  and  C_12
REMARK    6  A    between atoms: N_9  and  C_17
REMARK    7  A    between atoms: N_10  and  C_24
REMARK    8  A    between atoms: C_11  and  C_15
REMARK    9  A    between atoms: C_16  and  C_19
REMARK   10  A    between atoms: C_17  and  C_18
REMARK   11  A    between atoms: C_17  and  C_21
REMARK   12  A    between atoms: C_18  and  C_22
REMARK   13  A    between atoms: C_18  and  C_23
REMARK   14  A    between atoms: C_24  and  C_27
REMARK                            x       y       z     vdW  Elec       q    Type
REMARK                         _______ _______ _______ _____ _____    ______ ____
ROOT
ATOM      3  O   UNL     1      -4.539   1.470  24.074  0.00  0.00    -0.275 OA
ATOM      7  N   UNL     1      -2.750   2.921  24.295  0.00  0.00    -0.287 N 
ATOM     11  C   UNL     1      -1.914   2.300  23.279  0.00  0.00    +0.164 C 
ATOM     12  C   UNL     1      -0.688   4.098  24.328  0.00  0.00    +0.094 C 
ATOM     13  C   UNL     1      -0.787   3.300  23.026  0.00  0.00    +0.055 C 
ATOM     14  C   UNL     1      -2.124   4.126  24.839  0.00  0.00    +0.131 C 
ATOM     16  C   UNL     1      -4.044   2.492  24.551  0.00  0.00    +0.226 C 
ENDROOT
BRANCH  12   8
ATOM      4  O   UNL     1      -1.331   3.171  26.985  0.00  0.00    -0.253 OA
ATOM      8  N   UNL     1       0.206   3.474  25.272  0.00  0.00    -0.295 N 
ATOM     10  N   UNL     1       0.870   2.487  27.243  0.00  0.00    -0.296 N 
ATOM     20  C   UNL     1      -0.191   3.055  26.541  0.00  0.00    +0.300 C 
ATOM     29  H   UNL     1       1.188   3.390  25.024  0.00  0.00    +0.151 HD
ATOM     31  H   UNL     1       1.785   2.453  26.802  0.00  0.00    +0.151 HD
BRANCH  10  24
ATOM     24  C   UNL     1       0.734   1.969  28.584  0.00  0.00    +0.132 C 
BRANCH  24  27
ATOM     27  C   UNL     1       1.809   2.549  29.441  0.00  0.00    -0.016 C 
ATOM     28  C   UNL     1       3.000   2.946  28.976  0.00  0.00    +0.005 C 
ENDBRANCH  24  27
ENDBRANCH  10  24
ENDBRANCH  12   8
BRANCH  11  15
ATOM      2  O   UNL     1      -0.272   0.583  23.515  0.00  0.00    -0.274 OA
ATOM      9  N   UNL     1      -2.298   0.367  24.641  0.00  0.00    -0.301 N 
ATOM     15  C   UNL     1      -1.386   1.003  23.816  0.00  0.00    +0.234 C 
ATOM     30  H   UNL     1      -3.151   0.858  24.889  0.00  0.00    +0.150 HD
BRANCH   9  17
ATOM     17  C   UNL     1      -2.041  -0.909  25.267  0.00  0.00    +0.184 C 
BRANCH  17  18
ATOM     18  C   UNL     1      -0.851  -1.654  24.624  0.00  0.00    +0.014 C 
ATOM     22  C   UNL     1       0.126  -2.161  25.689  0.00  0.00    +0.009 C 
ATOM     23  C   UNL     1      -1.282  -2.812  23.717  0.00  0.00    +0.009 C 
ENDBRANCH  17  18
BRANCH  17  21
ATOM      6  O   UNL     1      -3.426  -2.719  26.077  0.00  0.00    -0.249 OA
ATOM     21  C   UNL     1      -3.291  -1.783  25.297  0.00  0.00    +0.328 C 
BRANCH  21   5
ATOM      5  O   UNL     1      -4.212  -1.397  24.369  0.00  0.00    -0.467 OA
ATOM     26  C   UNL     1      -4.724  -2.437  23.530  0.00  0.00    +0.280 C 
ENDBRANCH  21   5
ENDBRANCH  17  21
ENDBRANCH   9  17
ENDBRANCH  11  15
BRANCH  16  19
ATOM     19  C   UNL     1      -4.845   3.362  25.487  0.00  0.00    +0.164 C 
BRANCH  19   1
ATOM      1  S   UNL     1      -6.534   2.742  25.499  0.00  0.00    -0.155 S 
ATOM     25  C   UNL     1      -6.422   1.654  26.941  0.00  0.00    +0.085 C 
ENDBRANCH  19   1
ENDBRANCH  16  19
TORSDOF 10
ENDMDL
MODEL 6
REMARK VINA RESULT:      -0.9      2.358      6.536
REMARK  Name = 7049408
REMARK  14 active torsions:
REMARK  status: ('A' for Active; 'I' for Inactive)
REMARK    1  A    between atoms: S_1  and  C_19
REMARK    2  A    between atoms: S_1  and  C_25
REMARK    3  A    between atoms: O_5  and  C_21
REMARK    4  A    between atoms: O_5  and  C_26
REMARK    5  A    between atoms: N_8  and  C_12
REMARK    6  A    between atoms: N_9  and  C_17
REMARK    7  A    between atoms: N_10  and  C_24
REMARK    8  A    between atoms: C_11  and  C_15
REMARK    9  A    between atoms: C_16  and  C_19
REMARK   10  A    between atoms: C_17  and  C_18
REMARK   11  A    between atoms: C_17  and  C_21
REMARK   12  A    between atoms: C_18  and  C_22
REMARK   13  A    between atoms: C_18  and  C_23
REMARK   14  A    between atoms: C_24  and  C_27
REMARK                            x       y       z     vdW  Elec       q    Type
REMARK                         _______ _______ _______ _____ _____    ______ ____
ROOT
ATOM      3  O   UNL     1       1.537  -0.631  23.578  0.00  0.00    -0.275 OA
ATOM      7  N   UNL     1       0.885   1.476  24.277  0.00  0.00    -0.287 N 
ATOM     11  C   UNL     1      -0.009   1.026  25.334  0.00  0.00    +0.164 C 
ATOM     12  C   UNL     1      -0.119   3.434  25.172  0.00  0.00    +0.094 C 
ATOM     13  C   UNL     1      -0.316   2.277  26.155  0.00  0.00    +0.055 C 
ATOM     14  C   UNL     1       0.991   2.936  24.253  0.00  0.00    +0.131 C 
ATOM     16  C   UNL     1       1.654   0.595  23.532  0.00  0.00    +0.226 C 
ENDROOT
BRANCH  12   8
ATOM      4  O   UNL     1      -2.834   3.144  26.110  0.00  0.00    -0.253 OA
ATOM      8  N   UNL     1      -1.328   3.729  24.443  0.00  0.00    -0.295 N 
ATOM     10  N   UNL     1      -3.590   3.920  24.059  0.00  0.00    -0.296 N 
ATOM     20  C   UNL     1      -2.605   3.559  24.975  0.00  0.00    +0.300 C 
ATOM     29  H   UNL     1      -1.248   4.019  23.472  0.00  0.00    +0.151 HD
ATOM     31  H   UNL     1      -3.305   4.233  23.134  0.00  0.00    +0.151 HD
BRANCH  10  24
ATOM     24  C   UNL     1      -5.001   3.841  24.353  0.00  0.00    +0.132 C 
BRANCH  24  27
ATOM     27  C   UNL     1      -5.340   4.865  25.385  0.00  0.00    -0.016 C 
ATOM     28  C   UNL     1      -6.583   5.303  25.619  0.00  0.00    +0.005 C 
ENDBRANCH  24  27
ENDBRANCH  10  24
ENDBRANCH  12   8
BRANCH  11  15
ATOM      2  O   UNL     1      -1.490   0.597  23.511  0.00  0.00    -0.274 OA
ATOM      9  N   UNL     1      -2.055  -0.184  25.631  0.00  0.00    -0.301 N 
ATOM     15  C   UNL     1      -1.249   0.461  24.708  0.00  0.00    +0.234 C 
ATOM     30  H   UNL     1      -1.704  -0.312  26.574  0.00  0.00    +0.150 HD
BRANCH   9  17
ATOM     17  C   UNL     1      -3.318  -0.794  25.286  0.00  0.00    +0.184 C 
BRANCH  17  18
ATOM     18  C   UNL     1      -3.177  -1.856  24.173  0.00  0.00    +0.014 C 
ATOM     22  C   UNL     1      -2.096  -2.884  24.522  0.00  0.00    +0.009 C 
ATOM     23  C   UNL     1      -4.493  -2.571  23.849  0.00  0.00    +0.009 C 
ENDBRANCH  17  18
BRANCH  17  21
ATOM      6  O   UNL     1      -4.444   0.754  23.808  0.00  0.00    -0.249 OA
ATOM     21  C   UNL     1      -4.367   0.251  24.924  0.00  0.00    +0.328 C 
BRANCH  21   5
ATOM      5  O   UNL     1      -5.185   0.546  25.974  0.00  0.00    -0.467 OA
ATOM     26  C   UNL     1      -6.229   1.487  25.706  0.00  0.00    +0.280 C 
ENDBRANCH  21   5
ENDBRANCH  17  21
ENDBRANCH   9  17
ENDBRANCH  11  15
BRANCH  16  19
ATOM     19  C   UNL     1       2.670   1.230  22.618  0.00  0.00    +0.164 C 
BRANCH  19   1
ATOM      1  S   UNL     1       3.993   0.037  22.359  0.00  0.00    -0.155 S 
ATOM     25  C   UNL     1       5.110   0.568  23.680  0.00  0.00    +0.085 C 
ENDBRANCH  19   1
ENDBRANCH  16  19
TORSDOF 10
ENDMDL
MODEL 7
REMARK VINA RESULT:      -0.7      3.102      5.642
REMARK  Name = 7049408
REMARK  14 active torsions:
REMARK  status: ('A' for Active; 'I' for Inactive)
REMARK    1  A    between atoms: S_1  and  C_19
REMARK    2  A    between atoms: S_1  and  C_25
REMARK    3  A    between atoms: O_5  and  C_21
REMARK    4  A    between atoms: O_5  and  C_26
REMARK    5  A    between atoms: N_8  and  C_12
REMARK    6  A    between atoms: N_9  and  C_17
REMARK    7  A    between atoms: N_10  and  C_24
REMARK    8  A    between atoms: C_11  and  C_15
REMARK    9  A    between atoms: C_16  and  C_19
REMARK   10  A    between atoms: C_17  and  C_18
REMARK   11  A    between atoms: C_17  and  C_21
REMARK   12  A    between atoms: C_18  and  C_22
REMARK   13  A    between atoms: C_18  and  C_23
REMARK   14  A    between atoms: C_24  and  C_27
REMARK                            x       y       z     vdW  Elec       q    Type
REMARK                         _______ _______ _______ _____ _____    ______ ____
ROOT
ATOM      3  O   UNL     1      -6.247   2.064  25.073  0.00  0.00    -0.275 OA
ATOM      7  N   UNL     1      -4.139   2.677  24.344  0.00  0.00    -0.287 N 
ATOM     11  C   UNL     1      -3.876   1.467  23.579  0.00  0.00    +0.164 C 
ATOM     12  C   UNL     1      -1.920   2.884  23.523  0.00  0.00    +0.094 C 
ATOM     13  C   UNL     1      -2.645   1.791  22.734  0.00  0.00    +0.055 C 
ATOM     14  C   UNL     1      -3.054   3.648  24.198  0.00  0.00    +0.131 C 
ATOM     16  C   UNL     1      -5.355   2.907  24.969  0.00  0.00    +0.226 C 
ENDROOT
BRANCH  12   8
ATOM      4  O   UNL     1      -0.468   4.313  25.569  0.00  0.00    -0.253 OA
ATOM      8  N   UNL     1      -0.999   2.330  24.484  0.00  0.00    -0.295 N 
ATOM     10  N   UNL     1       0.490   2.310  26.240  0.00  0.00    -0.296 N 
ATOM     20  C   UNL     1      -0.337   3.097  25.443  0.00  0.00    +0.300 C 
ATOM     29  H   UNL     1      -0.773   1.341  24.422  0.00  0.00    +0.151 HD
ATOM     31  H   UNL     1       0.551   1.314  26.047  0.00  0.00    +0.151 HD
BRANCH  10  24
ATOM     24  C   UNL     1       1.291   2.852  27.312  0.00  0.00    +0.132 C 
BRANCH  24  27
ATOM     27  C   UNL     1       0.793   2.312  28.612  0.00  0.00    -0.016 C 
ATOM     28  C   UNL     1       1.486   2.367  29.756  0.00  0.00    +0.005 C 
ENDBRANCH  24  27
ENDBRANCH  10  24
ENDBRANCH  12   8
BRANCH  11  15
ATOM      2  O   UNL     1      -4.359   0.097  25.472  0.00  0.00    -0.274 OA
ATOM      9  N   UNL     1      -2.437  -0.333  24.230  0.00  0.00    -0.301 N 
ATOM     15  C   UNL     1      -3.607   0.342  24.532  0.00  0.00    +0.234 C 
ATOM     30  H   UNL     1      -1.949  -0.096  23.372  0.00  0.00    +0.150 HD
BRANCH   9  17
ATOM     17  C   UNL     1      -1.942  -1.444  25.010  0.00  0.00    +0.184 C 
BRANCH  17  18
ATOM     18  C   UNL     1      -0.545  -1.913  24.549  0.00  0.00    +0.014 C 
ATOM     22  C   UNL     1       0.237  -0.769  23.898  0.00  0.00    +0.009 C 
ATOM     23  C   UNL     1       0.285  -2.538  25.676  0.00  0.00    +0.009 C 
ENDBRANCH  17  18
BRANCH  17  21
ATOM      6  O   UNL     1      -3.333  -3.112  26.074  0.00  0.00    -0.249 OA
ATOM     21  C   UNL     1      -2.936  -2.601  25.033  0.00  0.00    +0.328 C 
BRANCH  21   5
ATOM      5  O   UNL     1      -3.312  -2.982  23.780  0.00  0.00    -0.467 OA
ATOM     26  C   UNL     1      -4.686  -2.757  23.447  0.00  0.00    +0.280 C 
ENDBRANCH  21   5
ENDBRANCH  17  21
ENDBRANCH   9  17
ENDBRANCH  11  15
BRANCH  16  19
ATOM     19  C   UNL     1      -5.538   4.286  25.551  0.00  0.00    +0.164 C 
BRANCH  19   1
ATOM      1  S   UNL     1      -3.911   4.911  25.996  0.00  0.00    -0.155 S 
ATOM     25  C   UNL     1      -3.577   3.836  27.413  0.00  0.00    +0.085 C 
ENDBRANCH  19   1
ENDBRANCH  16  19
TORSDOF 10
ENDMDL
MODEL 8
REMARK VINA RESULT:      -0.7      2.400      5.124
REMARK  Name = 7049408
REMARK  14 active torsions:
REMARK  status: ('A' for Active; 'I' for Inactive)
REMARK    1  A    between atoms: S_1  and  C_19
REMARK    2  A    between atoms: S_1  and  C_25
REMARK    3  A    between atoms: O_5  and  C_21
REMARK    4  A    between atoms: O_5  and  C_26
REMARK    5  A    between atoms: N_8  and  C_12
REMARK    6  A    between atoms: N_9  and  C_17
REMARK    7  A    between atoms: N_10  and  C_24
REMARK    8  A    between atoms: C_11  and  C_15
REMARK    9  A    between atoms: C_16  and  C_19
REMARK   10  A    between atoms: C_17  and  C_18
REMARK   11  A    between atoms: C_17  and  C_21
REMARK   12  A    between atoms: C_18  and  C_22
REMARK   13  A    between atoms: C_18  and  C_23
REMARK   14  A    between atoms: C_24  and  C_27
REMARK                            x       y       z     vdW  Elec       q    Type
REMARK                         _______ _______ _______ _____ _____    ______ ____
ROOT
ATOM      3  O   UNL     1      -5.989   2.484  24.509  0.00  0.00    -0.275 OA
ATOM      7  N   UNL     1      -3.997   3.509  25.087  0.00  0.00    -0.287 N 
ATOM     11  C   UNL     1      -3.468   3.605  23.735  0.00  0.00    +0.164 C 
ATOM     12  C   UNL     1      -1.814   4.423  25.296  0.00  0.00    +0.094 C 
ATOM     13  C   UNL     1      -2.275   4.553  23.842  0.00  0.00    +0.055 C 
ATOM     14  C   UNL     1      -3.108   4.152  26.056  0.00  0.00    +0.131 C 
ATOM     16  C   UNL     1      -5.267   3.020  25.351  0.00  0.00    +0.226 C 
ENDROOT
BRANCH  12   8
ATOM      4  O   UNL     1       0.119   3.497  23.362  0.00  0.00    -0.253 OA
ATOM      8  N   UNL     1      -0.860   3.354  25.462  0.00  0.00    -0.295 N 
ATOM     10  N   UNL     1       0.846   1.916  24.896  0.00  0.00    -0.296 N 
ATOM     20  C   UNL     1       0.042   2.971  24.471  0.00  0.00    +0.300 C 
ATOM     29  H   UNL     1      -0.887   2.813  26.322  0.00  0.00    +0.151 HD
ATOM     31  H   UNL     1       0.695   1.530  25.824  0.00  0.00    +0.151 HD
BRANCH  10  24
ATOM     24  C   UNL     1       1.866   1.325  24.064  0.00  0.00    +0.132 C 
BRANCH  24  27
ATOM     27  C   UNL     1       1.215   0.472  23.026  0.00  0.00    -0.016 C 
ATOM     28  C   UNL     1       1.890  -0.259  22.131  0.00  0.00    +0.005 C 
ENDBRANCH  24  27
ENDBRANCH  10  24
ENDBRANCH  12   8
BRANCH  11  15
ATOM      2  O   UNL     1      -2.712   2.015  22.123  0.00  0.00    -0.274 OA
ATOM      9  N   UNL     1      -3.103   1.308  24.307  0.00  0.00    -0.301 N 
ATOM     15  C   UNL     1      -3.045   2.239  23.284  0.00  0.00    +0.234 C 
ATOM     30  H   UNL     1      -3.304   1.633  25.247  0.00  0.00    +0.150 HD
BRANCH   9  17
ATOM     17  C   UNL     1      -2.767  -0.086  24.126  0.00  0.00    +0.184 C 
BRANCH  17  18
ATOM     18  C   UNL     1      -3.934  -1.027  24.497  0.00  0.00    +0.014 C 
ATOM     22  C   UNL     1      -4.198  -2.047  23.385  0.00  0.00    +0.009 C 
ATOM     23  C   UNL     1      -3.727  -1.751  25.832  0.00  0.00    +0.009 C 
ENDBRANCH  17  18
BRANCH  17  21
ATOM      6  O   UNL     1      -1.097   0.163  25.857  0.00  0.00    -0.249 OA
ATOM     21  C   UNL     1      -1.494  -0.459  24.878  0.00  0.00    +0.328 C 
BRANCH  21   5
ATOM      5  O   UNL     1      -0.873  -1.543  24.333  0.00  0.00    -0.467 OA
ATOM     26  C   UNL     1      -0.041  -2.296  25.222  0.00  0.00    +0.280 C 
ENDBRANCH  21   5
ENDBRANCH  17  21
ENDBRANCH   9  17
ENDBRANCH  11  15
BRANCH  16  19
ATOM     19  C   UNL     1      -5.740   3.170  26.775  0.00  0.00    +0.164 C 
BRANCH  19   1
ATOM      1  S   UNL     1      -6.614   1.663  27.223  0.00  0.00    -0.155 S 
ATOM     25  C   UNL     1      -6.202   0.660  25.775  0.00  0.00    +0.085 C 
ENDBRANCH  19   1
ENDBRANCH  16  19
TORSDOF 10
ENDMDL
MODEL 9
REMARK VINA RESULT:      -0.6      2.673      5.719
REMARK  Name = 7049408
REMARK  14 active torsions:
REMARK  status: ('A' for Active; 'I' for Inactive)
REMARK    1  A    between atoms: S_1  and  C_19
REMARK    2  A    between atoms: S_1  and  C_25
REMARK    3  A    between atoms: O_5  and  C_21
REMARK    4  A    between atoms: O_5  and  C_26
REMARK    5  A    between atoms: N_8  and  C_12
REMARK    6  A    between atoms: N_9  and  C_17
REMARK    7  A    between atoms: N_10  and  C_24
REMARK    8  A    between atoms: C_11  and  C_15
REMARK    9  A    between atoms: C_16  and  C_19
REMARK   10  A    between atoms: C_17  and  C_18
REMARK   11  A    between atoms: C_17  and  C_21
REMARK   12  A    between atoms: C_18  and  C_22
REMARK   13  A    between atoms: C_18  and  C_23
REMARK   14  A    between atoms: C_24  and  C_27
REMARK                            x       y       z     vdW  Elec       q    Type
REMARK                         _______ _______ _______ _____ _____    ______ ____
ROOT
ATOM      3  O   UNL     1      -5.769   1.516  24.461  0.00  0.00    -0.275 OA
ATOM      7  N   UNL     1      -3.741   2.545  24.036  0.00  0.00    -0.287 N 
ATOM     11  C   UNL     1      -3.195   1.485  23.202  0.00  0.00    +0.164 C 
ATOM     12  C   UNL     1      -1.523   3.204  23.497  0.00  0.00    +0.094 C 
ATOM     13  C   UNL     1      -1.963   2.097  22.536  0.00  0.00    +0.055 C 
ATOM     14  C   UNL     1      -2.835   3.693  24.102  0.00  0.00    +0.131 C 
ATOM     16  C   UNL     1      -5.034   2.502  24.535  0.00  0.00    +0.226 C 
ENDROOT
BRANCH  12   8
ATOM      4  O   UNL     1      -1.764   3.513  26.357  0.00  0.00    -0.253 OA
ATOM      8  N   UNL     1      -0.618   2.711  24.505  0.00  0.00    -0.295 N 
ATOM     10  N   UNL     1       0.212   2.327  26.618  0.00  0.00    -0.296 N 
ATOM     20  C   UNL     1      -0.811   2.906  25.871  0.00  0.00    +0.300 C 
ATOM     29  H   UNL     1       0.237   2.251  24.202  0.00  0.00    +0.151 HD
ATOM     31  H   UNL     1       0.972   1.864  26.127  0.00  0.00    +0.151 HD
BRANCH  10  24
ATOM     24  C   UNL     1       0.257   2.381  28.059  0.00  0.00    +0.132 C 
BRANCH  24  27
ATOM     27  C   UNL     1       1.661   2.646  28.493  0.00  0.00    -0.016 C 
ATOM     28  C   UNL     1       2.121   2.393  29.724  0.00  0.00    +0.005 C 
ENDBRANCH  24  27
ENDBRANCH  10  24
ENDBRANCH  12   8
BRANCH  11  15
ATOM      2  O   UNL     1      -3.008   0.346  25.291  0.00  0.00    -0.274 OA
ATOM      9  N   UNL     1      -2.259  -0.714  23.359  0.00  0.00    -0.301 N 
ATOM     15  C   UNL     1      -2.826   0.325  24.076  0.00  0.00    +0.234 C 
ATOM     30  H   UNL     1      -2.246  -0.652  22.345  0.00  0.00    +0.150 HD
BRANCH   9  17
ATOM     17  C   UNL     1      -1.797  -1.938  23.971  0.00  0.00    +0.184 C 
BRANCH  17  18
ATOM     18  C   UNL     1      -2.930  -2.706  24.685  0.00  0.00    +0.014 C 
ATOM     22  C   UNL     1      -3.178  -2.150  26.090  0.00  0.00    +0.009 C 
ATOM     23  C   UNL     1      -4.242  -2.723  23.892  0.00  0.00    +0.009 C 
ENDBRANCH  17  18
BRANCH  17  21
ATOM      6  O   UNL     1      -0.236  -2.519  25.725  0.00  0.00    -0.249 OA
ATOM     21  C   UNL     1      -0.621  -1.688  24.909  0.00  0.00    +0.328 C 
BRANCH  21   5
ATOM      5  O   UNL     1      -0.069  -0.455  24.727  0.00  0.00    -0.467 OA
ATOM     26  C   UNL     1       0.792  -0.320  23.592  0.00  0.00    +0.280 C 
ENDBRANCH  21   5
ENDBRANCH  17  21
ENDBRANCH   9  17
ENDBRANCH  11  15
BRANCH  16  19
ATOM     19  C   UNL     1      -5.513   3.761  25.211  0.00  0.00    +0.164 C 
BRANCH  19   1
ATOM      1  S   UNL     1      -5.464   3.480  26.988  0.00  0.00    -0.155 S 
ATOM     25  C   UNL     1      -6.420   1.946  27.055  0.00  0.00    +0.085 C 
ENDBRANCH  19   1
ENDBRANCH  16  19
TORSDOF 10
ENDMDL
MODEL 10
REMARK VINA RESULT:      -0.5      2.271      5.207
REMARK  Name = 7049408
REMARK  14 active torsions:
REMARK  status: ('A' for Active; 'I' for Inactive)
REMARK    1  A    between atoms: S_1  and  C_19
REMARK    2  A    between atoms: S_1  and  C_25
REMARK    3  A    between atoms: O_5  and  C_21
REMARK    4  A    between atoms: O_5  and  C_26
REMARK    5  A    between atoms: N_8  and  C_12
REMARK    6  A    between atoms: N_9  and  C_17
REMARK    7  A    between atoms: N_10  and  C_24
REMARK    8  A    between atoms: C_11  and  C_15
REMARK    9  A    between atoms: C_16  and  C_19
REMARK   10  A    between atoms: C_17  and  C_18
REMARK   11  A    between atoms: C_17  and  C_21
REMARK   12  A    between atoms: C_18  and  C_22
REMARK   13  A    between atoms: C_18  and  C_23
REMARK   14  A    between atoms: C_24  and  C_27
REMARK                            x       y       z     vdW  Elec       q    Type
REMARK                         _______ _______ _______ _____ _____    ______ ____
ROOT
ATOM      3  O   UNL     1      -3.456  -1.690  23.138  0.00  0.00    -0.275 OA
ATOM      7  N   UNL     1      -4.218   0.052  24.456  0.00  0.00    -0.287 N 
ATOM     11  C   UNL     1      -4.359   1.019  23.378  0.00  0.00    +0.164 C 
ATOM     12  C   UNL     1      -4.878   2.091  25.480  0.00  0.00    +0.094 C 
ATOM     13  C   UNL     1      -5.165   2.169  23.978  0.00  0.00    +0.055 C 
ATOM     14  C   UNL     1      -4.690   0.598  25.729  0.00  0.00    +0.131 C 
ATOM     16  C   UNL     1      -3.849  -1.265  24.225  0.00  0.00    +0.226 C 
ENDROOT
BRANCH  12   8
ATOM      4  O   UNL     1      -3.905   4.501  24.225  0.00  0.00    -0.253 OA
ATOM      8  N   UNL     1      -3.706   2.848  25.842  0.00  0.00    -0.295 N 
ATOM     10  N   UNL     1      -2.143   4.535  25.732  0.00  0.00    -0.296 N 
ATOM     20  C   UNL     1      -3.306   4.007  25.178  0.00  0.00    +0.300 C 
ATOM     29  H   UNL     1      -3.106   2.486  26.578  0.00  0.00    +0.151 HD
ATOM     31  H   UNL     1      -1.705   4.044  26.507  0.00  0.00    +0.151 HD
BRANCH  10  24
ATOM     24  C   UNL     1      -1.513   5.734  25.235  0.00  0.00    +0.132 C 
BRANCH  24  27
ATOM     27  C   UNL     1      -0.261   5.363  24.512  0.00  0.00    -0.016 C 
ATOM     28  C   UNL     1      -0.235   4.893  23.259  0.00  0.00    +0.005 C 
ENDBRANCH  24  27
ENDBRANCH  10  24
ENDBRANCH  12   8
BRANCH  11  15
ATOM      2  O   UNL     1      -2.835   2.333  22.094  0.00  0.00    -0.274 OA
ATOM      9  N   UNL     1      -1.987   0.787  23.615  0.00  0.00    -0.301 N 
ATOM     15  C   UNL     1      -2.994   1.468  22.952  0.00  0.00    +0.234 C 
ATOM     30  H   UNL     1      -2.243   0.160  24.371  0.00  0.00    +0.150 HD
BRANCH   9  17
ATOM     17  C   UNL     1      -0.582   1.019  23.369  0.00  0.00    +0.184 C 
BRANCH  17  18
ATOM     18  C   UNL     1       0.176  -0.277  23.010  0.00  0.00    +0.014 C 
ATOM     22  C   UNL     1       1.537   0.033  22.379  0.00  0.00    +0.009 C 
ATOM     23  C   UNL     1       0.357  -1.223  24.203  0.00  0.00    +0.009 C 
ENDBRANCH  17  18
BRANCH  17  21
ATOM      6  O   UNL     1       1.229   2.170  24.485  0.00  0.00    -0.249 OA
ATOM     21  C   UNL     1       0.080   1.743  24.536  0.00  0.00    +0.328 C 
BRANCH  21   5
ATOM      5  O   UNL     1      -0.748   1.851  25.613  0.00  0.00    -0.467 OA
ATOM     26  C   UNL     1      -0.140   2.320  26.821  0.00  0.00    +0.280 C 
ENDBRANCH  21   5
ENDBRANCH  17  21
ENDBRANCH   9  17
ENDBRANCH  11  15
BRANCH  16  19
ATOM     19  C   UNL     1      -3.942  -2.185  25.416  0.00  0.00    +0.164 C 
BRANCH  19   1
ATOM      1  S   UNL     1      -2.273  -2.721  25.824  0.00  0.00    -0.155 S 
ATOM     25  C   UNL     1      -1.642  -1.171  26.511  0.00  0.00    +0.085 C 
ENDBRANCH  19   1
ENDBRANCH  16  19
TORSDOF 10
ENDMDL
