MODEL 1
REMARK VINA RESULT:      -5.6      0.000      0.000
REMARK  Name = 40781523
REMARK  9 active torsions:
REMARK  status: ('A' for Active; 'I' for Inactive)
REMARK    1  A    between atoms: O_2  and  C_10
REMARK    2  A    between atoms: O_3  and  C_11
REMARK    3  A    between atoms: N_7  and  C_14
REMARK    4  A    between atoms: N_8  and  C_21
REMARK    5  A    between atoms: C_9  and  C_13
REMARK    6  A    between atoms: C_12  and  C_14
REMARK    7  A    between atoms: C_13  and  C_15
REMARK    8  A    between atoms: C_21  and  C_22
REMARK    9  A    between atoms: C_21  and  C_23
REMARK                            x       y       z     vdW  Elec       q    Type
REMARK                         _______ _______ _______ _____ _____    ______ ____
ROOT
ATOM      1  O   UNL     1      -2.235   2.888  23.486  0.00  0.00    -0.366 OA
ATOM      9  C   UNL     1      -3.456   3.290  24.133  0.00  0.00    +0.159 C 
ATOM     10  C   UNL     1      -3.125   3.388  25.611  0.00  0.00    +0.175 C 
ATOM     11  C   UNL     1      -1.701   3.902  25.570  0.00  0.00    +0.176 C 
ATOM     12  C   UNL     1      -1.126   3.149  24.376  0.00  0.00    +0.167 C 
ENDROOT
BRANCH  10   2
ATOM      2  O   UNL     1      -4.010   4.248  26.297  0.00  0.00    -0.387 OA
ATOM     24  H   UNL     1      -4.080   5.068  25.779  0.00  0.00    +0.210 HD
ENDBRANCH  10   2
BRANCH  11   3
ATOM      3  O   UNL     1      -1.686   5.296  25.263  0.00  0.00    -0.387 OA
ATOM     25  H   UNL     1      -1.039   5.716  25.854  0.00  0.00    +0.210 HD
ENDBRANCH  11   3
BRANCH   9  13
ATOM     13  C   UNL     1      -4.552   2.285  23.826  0.00  0.00    +0.130 C 
BRANCH  13  15
ATOM      4  O   UNL     1      -5.419   1.578  25.928  0.00  0.00    -0.276 OA
ATOM      6  N   UNL     1      -3.992   0.128  24.834  0.00  0.00    -0.301 N 
ATOM     15  C   UNL     1      -4.703   1.307  24.962  0.00  0.00    +0.218 C 
ATOM     16  C   UNL     1      -4.026  -0.915  25.849  0.00  0.00    +0.108 C 
ATOM     17  C   UNL     1      -3.133  -0.255  23.718  0.00  0.00    +0.108 C 
ATOM     18  C   UNL     1      -3.396  -2.123  25.173  0.00  0.00    +0.020 C 
ATOM     19  C   UNL     1      -2.396  -1.491  24.213  0.00  0.00    +0.020 C 
ENDBRANCH  13  15
ENDBRANCH   9  13
BRANCH  12  14
ATOM     14  C   UNL     1      -0.510   1.809  24.757  0.00  0.00    +0.140 C 
BRANCH  14   7
ATOM      5  O   UNL     1       0.910  -0.213  23.265  0.00  0.00    -0.253 OA
ATOM      7  N   UNL     1       0.921   1.808  24.400  0.00  0.00    -0.297 N 
ATOM      8  N   UNL     1       2.852   1.037  23.487  0.00  0.00    -0.297 N 
ATOM     20  C   UNL     1       1.496   0.785  23.682  0.00  0.00    +0.300 C 
ATOM     26  H   UNL     1       1.490   2.597  24.693  0.00  0.00    +0.150 HD
ATOM     27  H   UNL     1       3.229   1.925  23.803  0.00  0.00    +0.150 HD
BRANCH   8  21
ATOM     21  C   UNL     1       3.719   0.136  22.764  0.00  0.00    +0.068 C 
ATOM     22  C   UNL     1       5.145   0.239  23.290  0.00  0.00    +0.027 C 
ATOM     23  C   UNL     1       3.659   0.422  21.269  0.00  0.00    +0.027 C 
ENDBRANCH   8  21
ENDBRANCH  14   7
ENDBRANCH  12  14
TORSDOF 7
ENDMDL
MODEL 2
REMARK VINA RESULT:      -4.6      2.793      5.662
REMARK  Name = 40781523
REMARK  9 active torsions:
REMARK  status: ('A' for Active; 'I' for Inactive)
REMARK    1  A    between atoms: O_2  and  C_10
REMARK    2  A    between atoms: O_3  and  C_11
REMARK    3  A    between atoms: N_7  and  C_14
REMARK    4  A    between atoms: N_8  and  C_21
REMARK    5  A    between atoms: C_9  and  C_13
REMARK    6  A    between atoms: C_12  and  C_14
REMARK    7  A    between atoms: C_13  and  C_15
REMARK    8  A    between atoms: C_21  and  C_22
REMARK    9  A    between atoms: C_21  and  C_23
REMARK                            x       y       z     vdW  Elec       q    Type
REMARK                         _______ _______ _______ _____ _____    ______ ____
ROOT
ATOM      1  O   UNL     1      -0.210   2.363  26.144  0.00  0.00    -0.366 OA
ATOM      9  C   UNL     1      -0.256   1.077  25.501  0.00  0.00    +0.159 C 
ATOM     10  C   UNL     1      -0.475   1.364  24.026  0.00  0.00    +0.175 C 
ATOM     11  C   UNL     1       0.321   2.640  23.842  0.00  0.00    +0.176 C 
ATOM     12  C   UNL     1       0.040   3.379  25.146  0.00  0.00    +0.167 C 
ENDROOT
BRANCH  10   2
ATOM      2  O   UNL     1      -0.029   0.304  23.207  0.00  0.00    -0.387 OA
ATOM     24  H   UNL     1       0.866   0.530  22.900  0.00  0.00    +0.210 HD
ENDBRANCH  10   2
BRANCH  11   3
ATOM      3  O   UNL     1       1.717   2.349  23.789  0.00  0.00    -0.387 OA
ATOM     25  H   UNL     1       1.945   1.871  24.604  0.00  0.00    +0.210 HD
ENDBRANCH  11   3
BRANCH   9  13
ATOM     13  C   UNL     1      -1.355   0.234  26.121  0.00  0.00    +0.130 C 
BRANCH  13  15
ATOM      4  O   UNL     1      -0.309  -1.862  25.689  0.00  0.00    -0.276 OA
ATOM      6  N   UNL     1      -2.473  -1.587  24.929  0.00  0.00    -0.301 N 
ATOM     15  C   UNL     1      -1.320  -1.167  25.567  0.00  0.00    +0.218 C 
ATOM     16  C   UNL     1      -2.596  -2.910  24.335  0.00  0.00    +0.108 C 
ATOM     17  C   UNL     1      -3.702  -0.818  24.755  0.00  0.00    +0.108 C 
ATOM     18  C   UNL     1      -4.082  -3.063  24.051  0.00  0.00    +0.020 C 
ATOM     19  C   UNL     1      -4.521  -1.632  23.764  0.00  0.00    +0.020 C 
ENDBRANCH  13  15
ENDBRANCH   9  13
BRANCH  12  14
ATOM     14  C   UNL     1      -1.191   4.272  25.071  0.00  0.00    +0.140 C 
BRANCH  14   7
ATOM      5  O   UNL     1      -3.884   3.933  24.090  0.00  0.00    -0.253 OA
ATOM      7  N   UNL     1      -2.315   3.618  25.767  0.00  0.00    -0.297 N 
ATOM      8  N   UNL     1      -4.432   2.854  26.070  0.00  0.00    -0.297 N 
ATOM     20  C   UNL     1      -3.564   3.513  25.201  0.00  0.00    +0.300 C 
ATOM     26  H   UNL     1      -2.148   3.229  26.690  0.00  0.00    +0.150 HD
ATOM     27  H   UNL     1      -4.056   2.476  26.934  0.00  0.00    +0.150 HD
BRANCH   8  21
ATOM     21  C   UNL     1      -5.815   2.596  25.747  0.00  0.00    +0.068 C 
ATOM     22  C   UNL     1      -6.511   1.907  26.914  0.00  0.00    +0.027 C 
ATOM     23  C   UNL     1      -5.921   1.766  24.473  0.00  0.00    +0.027 C 
ENDBRANCH   8  21
ENDBRANCH  14   7
ENDBRANCH  12  14
TORSDOF 7
ENDMDL
MODEL 3
REMARK VINA RESULT:      -4.6      1.280      1.907
REMARK  Name = 40781523
REMARK  9 active torsions:
REMARK  status: ('A' for Active; 'I' for Inactive)
REMARK    1  A    between atoms: O_2  and  C_10
REMARK    2  A    between atoms: O_3  and  C_11
REMARK    3  A    between atoms: N_7  and  C_14
REMARK    4  A    between atoms: N_8  and  C_21
REMARK    5  A    between atoms: C_9  and  C_13
REMARK    6  A    between atoms: C_12  and  C_14
REMARK    7  A    between atoms: C_13  and  C_15
REMARK    8  A    between atoms: C_21  and  C_22
REMARK    9  A    between atoms: C_21  and  C_23
REMARK                            x       y       z     vdW  Elec       q    Type
REMARK                         _______ _______ _______ _____ _____    ______ ____
ROOT
ATOM      1  O   UNL     1      -2.189   3.697  24.253  0.00  0.00    -0.366 OA
ATOM      9  C   UNL     1      -3.619   3.532  24.252  0.00  0.00    +0.159 C 
ATOM     10  C   UNL     1      -3.995   3.210  25.688  0.00  0.00    +0.175 C 
ATOM     11  C   UNL     1      -3.003   4.054  26.459  0.00  0.00    +0.176 C 
ATOM     12  C   UNL     1      -1.744   3.919  25.610  0.00  0.00    +0.167 C 
ENDROOT
BRANCH  10   2
ATOM      2  O   UNL     1      -5.341   3.532  25.968  0.00  0.00    -0.387 OA
ATOM     24  H   UNL     1      -5.343   4.131  26.735  0.00  0.00    +0.210 HD
ENDBRANCH  10   2
BRANCH  11   3
ATOM      3  O   UNL     1      -3.401   5.425  26.445  0.00  0.00    -0.387 OA
ATOM     25  H   UNL     1      -4.102   5.530  27.110  0.00  0.00    +0.210 HD
ENDBRANCH  11   3
BRANCH   9  13
ATOM     13  C   UNL     1      -4.007   2.443  23.268  0.00  0.00    +0.130 C 
BRANCH  13  15
ATOM      4  O   UNL     1      -1.872   1.680  22.540  0.00  0.00    -0.276 OA
ATOM      6  N   UNL     1      -3.155   0.205  23.771  0.00  0.00    -0.301 N 
ATOM     15  C   UNL     1      -2.908   1.419  23.155  0.00  0.00    +0.218 C 
ATOM     16  C   UNL     1      -2.196  -0.889  23.746  0.00  0.00    +0.108 C 
ATOM     17  C   UNL     1      -4.354  -0.165  24.517  0.00  0.00    +0.108 C 
ATOM     18  C   UNL     1      -2.712  -1.869  24.789  0.00  0.00    +0.020 C 
ATOM     19  C   UNL     1      -4.221  -1.666  24.728  0.00  0.00    +0.020 C 
ENDBRANCH  13  15
ENDBRANCH   9  13
BRANCH  12  14
ATOM     14  C   UNL     1      -0.876   2.734  26.015  0.00  0.00    +0.140 C 
BRANCH  14   7
ATOM      5  O   UNL     1       0.111   0.245  24.939  0.00  0.00    -0.253 OA
ATOM      7  N   UNL     1       0.207   2.560  25.029  0.00  0.00    -0.297 N 
ATOM      8  N   UNL     1       1.635   1.442  23.662  0.00  0.00    -0.297 N 
ATOM     20  C   UNL     1       0.598   1.318  24.584  0.00  0.00    +0.300 C 
ATOM     26  H   UNL     1       0.667   3.390  24.668  0.00  0.00    +0.150 HD
ATOM     27  H   UNL     1       1.918   2.374  23.376  0.00  0.00    +0.150 HD
BRANCH   8  21
ATOM     21  C   UNL     1       2.252   0.305  23.022  0.00  0.00    +0.068 C 
ATOM     22  C   UNL     1       3.645   0.670  22.524  0.00  0.00    +0.027 C 
ATOM     23  C   UNL     1       1.377  -0.209  21.886  0.00  0.00    +0.027 C 
ENDBRANCH   8  21
ENDBRANCH  14   7
ENDBRANCH  12  14
TORSDOF 7
ENDMDL
MODEL 4
REMARK VINA RESULT:      -4.3      2.295      4.507
REMARK  Name = 40781523
REMARK  9 active torsions:
REMARK  status: ('A' for Active; 'I' for Inactive)
REMARK    1  A    between atoms: O_2  and  C_10
REMARK    2  A    between atoms: O_3  and  C_11
REMARK    3  A    between atoms: N_7  and  C_14
REMARK    4  A    between atoms: N_8  and  C_21
REMARK    5  A    between atoms: C_9  and  C_13
REMARK    6  A    between atoms: C_12  and  C_14
REMARK    7  A    between atoms: C_13  and  C_15
REMARK    8  A    between atoms: C_21  and  C_22
REMARK    9  A    between atoms: C_21  and  C_23
REMARK                            x       y       z     vdW  Elec       q    Type
REMARK                         _______ _______ _______ _____ _____    ______ ____
ROOT
ATOM      1  O   UNL     1       0.096   3.291  23.831  0.00  0.00    -0.366 OA
ATOM      9  C   UNL     1      -1.007   3.673  24.672  0.00  0.00    +0.159 C 
ATOM     10  C   UNL     1      -1.234   2.500  25.610  0.00  0.00    +0.175 C 
ATOM     11  C   UNL     1       0.182   2.012  25.835  0.00  0.00    +0.176 C 
ATOM     12  C   UNL     1       0.804   2.195  24.455  0.00  0.00    +0.167 C 
ENDROOT
BRANCH  10   2
ATOM      2  O   UNL     1      -1.886   2.891  26.799  0.00  0.00    -0.387 OA
ATOM     24  H   UNL     1      -1.231   3.347  27.355  0.00  0.00    +0.210 HD
ENDBRANCH  10   2
BRANCH  11   3
ATOM      3  O   UNL     1       0.864   2.874  26.745  0.00  0.00    -0.387 OA
ATOM     25  H   UNL     1       1.397   2.313  27.333  0.00  0.00    +0.210 HD
ENDBRANCH  11   3
BRANCH   9  13
ATOM     13  C   UNL     1      -2.215   4.002  23.814  0.00  0.00    +0.130 C 
BRANCH  13  15
ATOM      4  O   UNL     1      -2.776   1.930  22.782  0.00  0.00    -0.276 OA
ATOM      6  N   UNL     1      -4.187   2.697  24.442  0.00  0.00    -0.301 N 
ATOM     15  C   UNL     1      -3.075   2.778  23.624  0.00  0.00    +0.218 C 
ATOM     16  C   UNL     1      -5.120   1.582  24.376  0.00  0.00    +0.108 C 
ATOM     17  C   UNL     1      -4.594   3.662  25.459  0.00  0.00    +0.108 C 
ATOM     18  C   UNL     1      -5.972   1.725  25.628  0.00  0.00    +0.020 C 
ATOM     19  C   UNL     1      -6.001   3.233  25.847  0.00  0.00    +0.020 C 
ENDBRANCH  13  15
ENDBRANCH   9  13
BRANCH  12  14
ATOM     14  C   UNL     1       0.646   0.971  23.563  0.00  0.00    +0.140 C 
BRANCH  14   7
ATOM      5  O   UNL     1      -0.286  -1.378  24.958  0.00  0.00    -0.253 OA
ATOM      7  N   UNL     1      -0.741   0.479  23.646  0.00  0.00    -0.297 N 
ATOM      8  N   UNL     1      -2.444  -0.894  24.257  0.00  0.00    -0.297 N 
ATOM     20  C   UNL     1      -1.073  -0.660  24.343  0.00  0.00    +0.300 C 
ATOM     26  H   UNL     1      -1.469   1.009  23.177  0.00  0.00    +0.150 HD
ATOM     27  H   UNL     1      -3.024  -0.203  23.791  0.00  0.00    +0.150 HD
BRANCH   8  21
ATOM     21  C   UNL     1      -3.087  -2.021  24.892  0.00  0.00    +0.068 C 
ATOM     22  C   UNL     1      -4.228  -2.536  24.024  0.00  0.00    +0.027 C 
ATOM     23  C   UNL     1      -3.578  -1.642  26.283  0.00  0.00    +0.027 C 
ENDBRANCH   8  21
ENDBRANCH  14   7
ENDBRANCH  12  14
TORSDOF 7
ENDMDL
MODEL 5
REMARK VINA RESULT:      -3.8      1.727      5.381
REMARK  Name = 40781523
REMARK  9 active torsions:
REMARK  status: ('A' for Active; 'I' for Inactive)
REMARK    1  A    between atoms: O_2  and  C_10
REMARK    2  A    between atoms: O_3  and  C_11
REMARK    3  A    between atoms: N_7  and  C_14
REMARK    4  A    between atoms: N_8  and  C_21
REMARK    5  A    between atoms: C_9  and  C_13
REMARK    6  A    between atoms: C_12  and  C_14
REMARK    7  A    between atoms: C_13  and  C_15
REMARK    8  A    between atoms: C_21  and  C_22
REMARK    9  A    between atoms: C_21  and  C_23
REMARK                            x       y       z     vdW  Elec       q    Type
REMARK                         _______ _______ _______ _____ _____    ______ ____
ROOT
ATOM      1  O   UNL     1      -3.301   2.581  25.658  0.00  0.00    -0.366 OA
ATOM      9  C   UNL     1      -2.243   2.460  24.690  0.00  0.00    +0.159 C 
ATOM     10  C   UNL     1      -2.931   2.241  23.354  0.00  0.00    +0.175 C 
ATOM     11  C   UNL     1      -4.168   3.102  23.505  0.00  0.00    +0.176 C 
ATOM     12  C   UNL     1      -4.537   2.875  24.967  0.00  0.00    +0.167 C 
ENDROOT
BRANCH  10   2
ATOM      2  O   UNL     1      -2.114   2.622  22.268  0.00  0.00    -0.387 OA
ATOM     24  H   UNL     1      -1.481   1.899  22.113  0.00  0.00    +0.210 HD
ENDBRANCH  10   2
BRANCH  11   3
ATOM      3  O   UNL     1      -3.835   4.481  23.341  0.00  0.00    -0.387 OA
ATOM     25  H   UNL     1      -4.057   4.933  24.172  0.00  0.00    +0.210 HD
ENDBRANCH  11   3
BRANCH   9  13
ATOM     13  C   UNL     1      -1.317   1.323  25.084  0.00  0.00    +0.130 C 
BRANCH  13  15
ATOM      4  O   UNL     1       0.639   2.609  25.526  0.00  0.00    -0.276 OA
ATOM      6  N   UNL     1       0.782   1.008  23.866  0.00  0.00    -0.301 N 
ATOM     15  C   UNL     1       0.121   1.713  24.857  0.00  0.00    +0.218 C 
ATOM     16  C   UNL     1       2.171   1.270  23.521  0.00  0.00    +0.108 C 
ATOM     17  C   UNL     1       0.230  -0.064  23.044  0.00  0.00    +0.108 C 
ATOM     18  C   UNL     1       2.576   0.089  22.653  0.00  0.00    +0.020 C 
ATOM     19  C   UNL     1       1.272  -0.282  21.956  0.00  0.00    +0.020 C 
ENDBRANCH  13  15
ENDBRANCH   9  13
BRANCH  12  14
ATOM     14  C   UNL     1      -5.475   1.693  25.168  0.00  0.00    +0.140 C 
BRANCH  14   7
ATOM      5  O   UNL     1      -4.463  -0.602  23.741  0.00  0.00    -0.253 OA
ATOM      7  N   UNL     1      -4.721   0.558  25.731  0.00  0.00    -0.297 N 
ATOM      8  N   UNL     1      -3.604  -1.419  25.735  0.00  0.00    -0.297 N 
ATOM     20  C   UNL     1      -4.286  -0.489  24.953  0.00  0.00    +0.300 C 
ATOM     26  H   UNL     1      -4.515   0.563  26.725  0.00  0.00    +0.150 HD
ATOM     27  H   UNL     1      -3.441  -1.201  26.713  0.00  0.00    +0.150 HD
BRANCH   8  21
ATOM     21  C   UNL     1      -3.030  -2.627  25.191  0.00  0.00    +0.068 C 
ATOM     22  C   UNL     1      -1.613  -2.363  24.696  0.00  0.00    +0.027 C 
ATOM     23  C   UNL     1      -3.909  -3.184  24.079  0.00  0.00    +0.027 C 
ENDBRANCH   8  21
ENDBRANCH  14   7
ENDBRANCH  12  14
TORSDOF 7
ENDMDL
MODEL 6
REMARK VINA RESULT:      -3.1      2.648      4.776
REMARK  Name = 40781523
REMARK  9 active torsions:
REMARK  status: ('A' for Active; 'I' for Inactive)
REMARK    1  A    between atoms: O_2  and  C_10
REMARK    2  A    between atoms: O_3  and  C_11
REMARK    3  A    between atoms: N_7  and  C_14
REMARK    4  A    between atoms: N_8  and  C_21
REMARK    5  A    between atoms: C_9  and  C_13
REMARK    6  A    between atoms: C_12  and  C_14
REMARK    7  A    between atoms: C_13  and  C_15
REMARK    8  A    between atoms: C_21  and  C_22
REMARK    9  A    between atoms: C_21  and  C_23
REMARK                            x       y       z     vdW  Elec       q    Type
REMARK                         _______ _______ _______ _____ _____    ______ ____
ROOT
ATOM      1  O   UNL     1      -4.107   1.962  25.721  0.00  0.00    -0.366 OA
ATOM      9  C   UNL     1      -4.448   3.358  25.788  0.00  0.00    +0.159 C 
ATOM     10  C   UNL     1      -5.902   3.447  25.359  0.00  0.00    +0.175 C 
ATOM     11  C   UNL     1      -6.468   2.165  25.934  0.00  0.00    +0.176 C 
ATOM     12  C   UNL     1      -5.325   1.183  25.704  0.00  0.00    +0.167 C 
ENDROOT
BRANCH  10   2
ATOM      2  O   UNL     1      -6.532   4.609  25.856  0.00  0.00    -0.387 OA
ATOM     24  H   UNL     1      -6.391   5.318  25.204  0.00  0.00    +0.210 HD
ENDBRANCH  10   2
BRANCH  11   3
ATOM      3  O   UNL     1      -6.661   2.297  27.343  0.00  0.00    -0.387 OA
ATOM     25  H   UNL     1      -6.378   3.193  27.591  0.00  0.00    +0.210 HD
ENDBRANCH  11   3
BRANCH   9  13
ATOM     13  C   UNL     1      -3.509   4.157  24.902  0.00  0.00    +0.130 C 
BRANCH  13  15
ATOM      4  O   UNL     1      -3.237   2.917  22.887  0.00  0.00    -0.276 OA
ATOM      6  N   UNL     1      -1.523   2.806  24.432  0.00  0.00    -0.301 N 
ATOM     15  C   UNL     1      -2.754   3.241  23.974  0.00  0.00    +0.218 C 
ATOM     16  C   UNL     1      -0.676   1.913  23.657  0.00  0.00    +0.108 C 
ATOM     17  C   UNL     1      -0.894   3.154  25.703  0.00  0.00    +0.108 C 
ATOM     18  C   UNL     1       0.672   1.962  24.360  0.00  0.00    +0.020 C 
ATOM     19  C   UNL     1       0.286   2.201  25.815  0.00  0.00    +0.020 C 
ENDBRANCH  13  15
ENDBRANCH   9  13
BRANCH  12  14
ATOM     14  C   UNL     1      -5.408   0.479  24.356  0.00  0.00    +0.140 C 
BRANCH  14   7
ATOM      5  O   UNL     1      -3.654  -1.528  25.463  0.00  0.00    -0.253 OA
ATOM      7  N   UNL     1      -4.049   0.136  23.897  0.00  0.00    -0.297 N 
ATOM      8  N   UNL     1      -2.060  -0.961  23.874  0.00  0.00    -0.297 N 
ATOM     20  C   UNL     1      -3.298  -0.844  24.504  0.00  0.00    +0.300 C 
ATOM     26  H   UNL     1      -3.668   0.640  23.103  0.00  0.00    +0.150 HD
ATOM     27  H   UNL     1      -1.887  -0.406  23.042  0.00  0.00    +0.150 HD
BRANCH   8  21
ATOM     21  C   UNL     1      -1.056  -1.911  24.293  0.00  0.00    +0.068 C 
ATOM     22  C   UNL     1      -1.652  -3.311  24.368  0.00  0.00    +0.027 C 
ATOM     23  C   UNL     1      -0.450  -1.495  25.627  0.00  0.00    +0.027 C 
ENDBRANCH   8  21
ENDBRANCH  14   7
ENDBRANCH  12  14
TORSDOF 7
ENDMDL
MODEL 7
REMARK VINA RESULT:      -3.1      2.386      3.288
REMARK  Name = 40781523
REMARK  9 active torsions:
REMARK  status: ('A' for Active; 'I' for Inactive)
REMARK    1  A    between atoms: O_2  and  C_10
REMARK    2  A    between atoms: O_3  and  C_11
REMARK    3  A    between atoms: N_7  and  C_14
REMARK    4  A    between atoms: N_8  and  C_21
REMARK    5  A    between atoms: C_9  and  C_13
REMARK    6  A    between atoms: C_12  and  C_14
REMARK    7  A    between atoms: C_13  and  C_15
REMARK    8  A    between atoms: C_21  and  C_22
REMARK    9  A    between atoms: C_21  and  C_23
REMARK                            x       y       z     vdW  Elec       q    Type
REMARK                         _______ _______ _______ _____ _____    ______ ____
ROOT
ATOM      1  O   UNL     1      -2.117   2.634  23.397  0.00  0.00    -0.366 OA
ATOM      9  C   UNL     1      -3.364   3.110  23.936  0.00  0.00    +0.159 C 
ATOM     10  C   UNL     1      -3.101   3.369  25.409  0.00  0.00    +0.175 C 
ATOM     11  C   UNL     1      -1.672   3.869  25.380  0.00  0.00    +0.176 C 
ATOM     12  C   UNL     1      -1.049   2.986  24.305  0.00  0.00    +0.167 C 
ENDROOT
BRANCH  10   2
ATOM      2  O   UNL     1      -4.010   4.303  25.953  0.00  0.00    -0.387 OA
ATOM     24  H   UNL     1      -4.025   5.074  25.360  0.00  0.00    +0.210 HD
ENDBRANCH  10   2
BRANCH  11   3
ATOM      3  O   UNL     1      -1.629   5.221  24.923  0.00  0.00    -0.387 OA
ATOM     25  H   UNL     1      -0.924   5.671  25.417  0.00  0.00    +0.210 HD
ENDBRANCH  11   3
BRANCH   9  13
ATOM     13  C   UNL     1      -4.454   2.083  23.689  0.00  0.00    +0.130 C 
BRANCH  13  15
ATOM      4  O   UNL     1      -5.302   1.517  25.842  0.00  0.00    -0.276 OA
ATOM      6  N   UNL     1      -3.913  -0.020  24.818  0.00  0.00    -0.301 N 
ATOM     15  C   UNL     1      -4.604   1.177  24.884  0.00  0.00    +0.218 C 
ATOM     16  C   UNL     1      -3.950  -0.999  25.894  0.00  0.00    +0.108 C 
ATOM     17  C   UNL     1      -3.076  -0.483  23.716  0.00  0.00    +0.108 C 
ATOM     18  C   UNL     1      -3.348  -2.256  25.284  0.00  0.00    +0.020 C 
ATOM     19  C   UNL     1      -2.352  -1.699  24.274  0.00  0.00    +0.020 C 
ENDBRANCH  13  15
ENDBRANCH   9  13
BRANCH  12  14
ATOM     14  C   UNL     1      -0.464   1.694  24.860  0.00  0.00    +0.140 C 
BRANCH  14   7
ATOM      5  O   UNL     1      -0.547   2.491  27.632  0.00  0.00    -0.253 OA
ATOM      7  N   UNL     1       0.685   2.008  25.728  0.00  0.00    -0.297 N 
ATOM      8  N   UNL     1       1.770   2.619  27.628  0.00  0.00    -0.297 N 
ATOM     20  C   UNL     1       0.528   2.381  27.043  0.00  0.00    +0.300 C 
ATOM     26  H   UNL     1       1.619   1.937  25.336  0.00  0.00    +0.150 HD
ATOM     27  H   UNL     1       2.605   2.426  27.083  0.00  0.00    +0.150 HD
BRANCH   8  21
ATOM     21  C   UNL     1       1.921   3.025  29.005  0.00  0.00    +0.068 C 
ATOM     22  C   UNL     1       3.201   3.834  29.180  0.00  0.00    +0.027 C 
ATOM     23  C   UNL     1       1.904   1.812  29.926  0.00  0.00    +0.027 C 
ENDBRANCH   8  21
ENDBRANCH  14   7
ENDBRANCH  12  14
TORSDOF 7
ENDMDL
MODEL 8
REMARK VINA RESULT:      -2.7      1.621      2.236
REMARK  Name = 40781523
REMARK  9 active torsions:
REMARK  status: ('A' for Active; 'I' for Inactive)
REMARK    1  A    between atoms: O_2  and  C_10
REMARK    2  A    between atoms: O_3  and  C_11
REMARK    3  A    between atoms: N_7  and  C_14
REMARK    4  A    between atoms: N_8  and  C_21
REMARK    5  A    between atoms: C_9  and  C_13
REMARK    6  A    between atoms: C_12  and  C_14
REMARK    7  A    between atoms: C_13  and  C_15
REMARK    8  A    between atoms: C_21  and  C_22
REMARK    9  A    between atoms: C_21  and  C_23
REMARK                            x       y       z     vdW  Elec       q    Type
REMARK                         _______ _______ _______ _____ _____    ______ ____
ROOT
ATOM      1  O   UNL     1      -2.975   2.105  24.363  0.00  0.00    -0.366 OA
ATOM      9  C   UNL     1      -4.356   2.054  24.765  0.00  0.00    +0.159 C 
ATOM     10  C   UNL     1      -4.524   3.153  25.799  0.00  0.00    +0.175 C 
ATOM     11  C   UNL     1      -3.590   4.219  25.264  0.00  0.00    +0.176 C 
ATOM     12  C   UNL     1      -2.424   3.387  24.743  0.00  0.00    +0.167 C 
ENDROOT
BRANCH  10   2
ATOM      2  O   UNL     1      -5.864   3.584  25.902  0.00  0.00    -0.387 OA
ATOM     24  H   UNL     1      -5.910   4.220  26.637  0.00  0.00    +0.210 HD
ENDBRANCH  10   2
BRANCH  11   3
ATOM      3  O   UNL     1      -4.187   4.889  24.154  0.00  0.00    -0.387 OA
ATOM     25  H   UNL     1      -5.135   4.979  24.345  0.00  0.00    +0.210 HD
ENDBRANCH  11   3
BRANCH   9  13
ATOM     13  C   UNL     1      -4.683   0.671  25.297  0.00  0.00    +0.130 C 
BRANCH  13  15
ATOM      4  O   UNL     1      -2.459   0.242  26.034  0.00  0.00    -0.276 OA
ATOM      6  N   UNL     1      -3.468  -1.376  24.730  0.00  0.00    -0.301 N 
ATOM     15  C   UNL     1      -3.432  -0.165  25.396  0.00  0.00    +0.218 C 
ATOM     16  C   UNL     1      -2.338  -2.294  24.724  0.00  0.00    +0.108 C 
ATOM     17  C   UNL     1      -4.587  -1.917  23.964  0.00  0.00    +0.108 C 
ATOM     18  C   UNL     1      -2.908  -3.594  24.179  0.00  0.00    +0.020 C 
ATOM     19  C   UNL     1      -4.000  -3.114  23.231  0.00  0.00    +0.020 C 
ENDBRANCH  13  15
ENDBRANCH   9  13
BRANCH  12  14
ATOM     14  C   UNL     1      -1.352   3.138  25.796  0.00  0.00    +0.140 C 
BRANCH  14   7
ATOM      5  O   UNL     1       0.214   3.101  23.373  0.00  0.00    -0.253 OA
ATOM      7  N   UNL     1      -0.452   2.064  25.336  0.00  0.00    -0.297 N 
ATOM      8  N   UNL     1       1.018   1.007  23.965  0.00  0.00    -0.297 N 
ATOM     20  C   UNL     1       0.249   2.153  24.156  0.00  0.00    +0.300 C 
ATOM     26  H   UNL     1      -0.348   1.241  25.921  0.00  0.00    +0.150 HD
ATOM     27  H   UNL     1       1.040   0.312  24.705  0.00  0.00    +0.150 HD
BRANCH   8  21
ATOM     21  C   UNL     1       1.863   0.814  22.811  0.00  0.00    +0.068 C 
ATOM     22  C   UNL     1       1.460  -0.453  22.066  0.00  0.00    +0.027 C 
ATOM     23  C   UNL     1       3.329   0.771  23.222  0.00  0.00    +0.027 C 
ENDBRANCH   8  21
ENDBRANCH  14   7
ENDBRANCH  12  14
TORSDOF 7
ENDMDL
MODEL 9
REMARK VINA RESULT:      -2.4      2.344      3.341
REMARK  Name = 40781523
REMARK  9 active torsions:
REMARK  status: ('A' for Active; 'I' for Inactive)
REMARK    1  A    between atoms: O_2  and  C_10
REMARK    2  A    between atoms: O_3  and  C_11
REMARK    3  A    between atoms: N_7  and  C_14
REMARK    4  A    between atoms: N_8  and  C_21
REMARK    5  A    between atoms: C_9  and  C_13
REMARK    6  A    between atoms: C_12  and  C_14
REMARK    7  A    between atoms: C_13  and  C_15
REMARK    8  A    between atoms: C_21  and  C_22
REMARK    9  A    between atoms: C_21  and  C_23
REMARK                            x       y       z     vdW  Elec       q    Type
REMARK                         _______ _______ _______ _____ _____    ______ ____
ROOT
ATOM      1  O   UNL     1      -1.002   1.516  23.112  0.00  0.00    -0.366 OA
ATOM      9  C   UNL     1      -1.995   1.005  24.020  0.00  0.00    +0.159 C 
ATOM     10  C   UNL     1      -1.316  -0.122  24.779  0.00  0.00    +0.175 C 
ATOM     11  C   UNL     1       0.098   0.405  24.905  0.00  0.00    +0.176 C 
ATOM     12  C   UNL     1       0.305   1.086  23.556  0.00  0.00    +0.167 C 
ENDROOT
BRANCH  10   2
ATOM      2  O   UNL     1      -1.933  -0.370  26.024  0.00  0.00    -0.387 OA
ATOM     24  H   UNL     1      -1.337  -0.038  26.716  0.00  0.00    +0.210 HD
ENDBRANCH  10   2
BRANCH  11   3
ATOM      3  O   UNL     1       0.165   1.406  25.920  0.00  0.00    -0.387 OA
ATOM     25  H   UNL     1       0.889   2.010  25.685  0.00  0.00    +0.210 HD
ENDBRANCH  11   3
BRANCH   9  13
ATOM     13  C   UNL     1      -3.217   0.556  23.241  0.00  0.00    +0.130 C 
BRANCH  13  15
ATOM      4  O   UNL     1      -4.784  -0.869  24.331  0.00  0.00    -0.276 OA
ATOM      6  N   UNL     1      -4.895   1.387  24.816  0.00  0.00    -0.301 N 
ATOM     15  C   UNL     1      -4.367   0.280  24.176  0.00  0.00    +0.218 C 
ATOM     16  C   UNL     1      -6.012   1.288  25.744  0.00  0.00    +0.108 C 
ATOM     17  C   UNL     1      -4.446   2.769  24.680  0.00  0.00    +0.108 C 
ATOM     18  C   UNL     1      -6.047   2.640  26.441  0.00  0.00    +0.020 C 
ATOM     19  C   UNL     1      -5.530   3.588  25.366  0.00  0.00    +0.020 C 
ENDBRANCH  13  15
ENDBRANCH   9  13
BRANCH  12  14
ATOM     14  C   UNL     1       0.871   0.149  22.497  0.00  0.00    +0.140 C 
BRANCH  14   7
ATOM      5  O   UNL     1       3.577   1.119  22.758  0.00  0.00    -0.253 OA
ATOM      7  N   UNL     1       2.027  -0.579  23.053  0.00  0.00    -0.297 N 
ATOM      8  N   UNL     1       4.180  -0.917  23.691  0.00  0.00    -0.297 N 
ATOM     20  C   UNL     1       3.279  -0.015  23.128  0.00  0.00    +0.300 C 
ATOM     26  H   UNL     1       1.880  -1.523  23.396  0.00  0.00    +0.150 HD
ATOM     27  H   UNL     1       3.824  -1.803  24.037  0.00  0.00    +0.150 HD
BRANCH   8  21
ATOM     21  C   UNL     1       5.574  -0.605  23.899  0.00  0.00    +0.068 C 
ATOM     22  C   UNL     1       5.714   0.702  24.669  0.00  0.00    +0.027 C 
ATOM     23  C   UNL     1       6.311  -0.542  22.567  0.00  0.00    +0.027 C 
ENDBRANCH   8  21
ENDBRANCH  14   7
ENDBRANCH  12  14
TORSDOF 7
ENDMDL
MODEL 10
REMARK VINA RESULT:      -2.3     16.813     18.907
REMARK  Name = 40781523
REMARK  9 active torsions:
REMARK  status: ('A' for Active; 'I' for Inactive)
REMARK    1  A    between atoms: O_2  and  C_10
REMARK    2  A    between atoms: O_3  and  C_11
REMARK    3  A    between atoms: N_7  and  C_14
REMARK    4  A    between atoms: N_8  and  C_21
REMARK    5  A    between atoms: C_9  and  C_13
REMARK    6  A    between atoms: C_12  and  C_14
REMARK    7  A    between atoms: C_13  and  C_15
REMARK    8  A    between atoms: C_21  and  C_22
REMARK    9  A    between atoms: C_21  and  C_23
REMARK                            x       y       z     vdW  Elec       q    Type
REMARK                         _______ _______ _______ _____ _____    ______ ____
ROOT
ATOM      1  O   UNL     1      -4.172 -10.781  10.883  0.00  0.00    -0.366 OA
ATOM      9  C   UNL     1      -3.279  -9.979  10.089  0.00  0.00    +0.159 C 
ATOM     10  C   UNL     1      -2.625  -9.010  11.058  0.00  0.00    +0.175 C 
ATOM     11  C   UNL     1      -2.498  -9.865  12.302  0.00  0.00    +0.176 C 
ATOM     12  C   UNL     1      -3.797 -10.662  12.274  0.00  0.00    +0.167 C 
ENDROOT
BRANCH  10   2
ATOM      2  O   UNL     1      -1.386  -8.534  10.577  0.00  0.00    -0.387 OA
ATOM     24  H   UNL     1      -1.574  -7.936   9.833  0.00  0.00    +0.210 HD
ENDBRANCH  10   2
BRANCH  11   3
ATOM      3  O   UNL     1      -1.412 -10.781  12.165  0.00  0.00    -0.387 OA
ATOM     25  H   UNL     1      -1.771 -11.601  11.786  0.00  0.00    +0.210 HD
ENDBRANCH  11   3
BRANCH   9  13
ATOM     13  C   UNL     1      -4.057  -9.292   8.982  0.00  0.00    +0.130 C 
BRANCH  13  15
ATOM      4  O   UNL     1      -5.153  -7.643  10.305  0.00  0.00    -0.276 OA
ATOM      6  N   UNL     1      -6.493  -9.127   9.148  0.00  0.00    -0.301 N 
ATOM     15  C   UNL     1      -5.275  -8.603   9.543  0.00  0.00    +0.218 C 
ATOM     16  C   UNL     1      -7.760  -8.579   9.608  0.00  0.00    +0.108 C 
ATOM     17  C   UNL     1      -6.705 -10.256   8.248  0.00  0.00    +0.108 C 
ATOM     18  C   UNL     1      -8.801  -9.217   8.700  0.00  0.00    +0.020 C 
ATOM     19  C   UNL     1      -8.187 -10.575   8.382  0.00  0.00    +0.020 C 
ENDBRANCH  13  15
ENDBRANCH   9  13
BRANCH  12  14
ATOM     14  C   UNL     1      -4.938  -9.969  13.007  0.00  0.00    +0.140 C 
BRANCH  14   7
ATOM      5  O   UNL     1      -7.547  -9.712  14.213  0.00  0.00    -0.253 OA
ATOM      7  N   UNL     1      -6.225 -10.414  12.442  0.00  0.00    -0.297 N 
ATOM      8  N   UNL     1      -8.470 -10.749  12.353  0.00  0.00    -0.297 N 
ATOM     20  C   UNL     1      -7.416 -10.240  13.109  0.00  0.00    +0.300 C 
ATOM     26  H   UNL     1      -6.223 -10.854  11.527  0.00  0.00    +0.150 HD
ATOM     27  H   UNL     1      -8.271 -11.096  11.420  0.00  0.00    +0.150 HD
BRANCH   8  21
ATOM     21  C   UNL     1      -9.843 -10.708  12.798  0.00  0.00    +0.068 C 
ATOM     22  C   UNL     1     -10.604  -9.613  12.061  0.00  0.00    +0.027 C 
ATOM     23  C   UNL     1      -9.910 -10.508  14.307  0.00  0.00    +0.027 C 
ENDBRANCH   8  21
ENDBRANCH  14   7
ENDBRANCH  12  14
TORSDOF 7
ENDMDL
