MODEL 1
REMARK VINA RESULT:      -4.7      0.000      0.000
REMARK  Name = 45784215
REMARK  6 active torsions:
REMARK  status: ('A' for Active; 'I' for Inactive)
REMARK    1  A    between atoms: N_1  and  C_8
REMARK    2  A    between atoms: C_4  and  C_9
REMARK    3  A    between atoms: C_8  and  C_10
REMARK    4  A    between atoms: C_10  and  C_11
REMARK    5  A    between atoms: C_10  and  C_12
REMARK    6  A    between atoms: C_17  and  C_19
REMARK                            x       y       z     vdW  Elec       q    Type
REMARK                         _______ _______ _______ _____ _____    ______ ____
ROOT
ATOM      2  N   UNL     1      -5.656 -10.287  14.576  0.00  0.00    -0.342 N 
ATOM      3  N   UNL     1      -7.842 -10.090  14.225  0.00  0.00    -0.232 NA
ATOM      9  C   UNL     1      -6.660 -10.175  13.655  0.00  0.00    +0.113 A 
ATOM     13  C   UNL     1      -6.228 -10.273  15.823  0.00  0.00    +0.066 A 
ATOM     14  C   UNL     1      -7.592 -10.150  15.576  0.00  0.00    +0.089 A 
ATOM     15  C   UNL     1      -5.684 -10.357  17.105  0.00  0.00    +0.031 A 
ATOM     16  C   UNL     1      -8.482 -10.105  16.662  0.00  0.00    +0.030 A 
ATOM     17  C   UNL     1      -6.585 -10.310  18.174  0.00  0.00    -0.048 A 
ATOM     18  C   UNL     1      -7.959 -10.186  17.959  0.00  0.00    +0.005 A 
ATOM     19  C   UNL     1      -6.065 -10.393  19.572  0.00  0.00    +0.044 C 
ATOM     20  H   UNL     1      -4.667 -10.365  14.377  0.00  0.00    +0.167 HD
ENDROOT
BRANCH   9   4
ATOM      1  N   UNL     1      -4.622 -10.000  10.615  0.00  0.00    -0.301 NA
ATOM      4  C   UNL     1      -6.368 -10.157  12.172  0.00  0.00    +0.070 C 
ATOM      5  C   UNL     1      -4.990 -10.736  11.827  0.00  0.00    +0.095 C 
ATOM      6  C   UNL     1      -6.376  -8.759  11.529  0.00  0.00    +0.028 C 
ATOM      7  C   UNL     1      -5.004  -8.614  10.885  0.00  0.00    +0.085 C 
BRANCH   1   8
ATOM      8  C   UNL     1      -3.210 -10.133  10.292  0.00  0.00    +0.087 C 
BRANCH   8  10
ATOM     10  C   UNL     1      -2.298  -9.615  11.418  0.00  0.00    -0.003 C 
ATOM     11  C   UNL     1      -1.876 -10.780  12.318  0.00  0.00    +0.008 C 
ATOM     12  C   UNL     1      -1.053  -8.900  10.886  0.00  0.00    +0.008 C 
ENDBRANCH   8  10
ENDBRANCH   1   8
ENDBRANCH   9   4
TORSDOF 3
ENDMDL
MODEL 2
REMARK VINA RESULT:      -4.7     14.371     16.040
REMARK  Name = 45784215
REMARK  6 active torsions:
REMARK  status: ('A' for Active; 'I' for Inactive)
REMARK    1  A    between atoms: N_1  and  C_8
REMARK    2  A    between atoms: C_4  and  C_9
REMARK    3  A    between atoms: C_8  and  C_10
REMARK    4  A    between atoms: C_10  and  C_11
REMARK    5  A    between atoms: C_10  and  C_12
REMARK    6  A    between atoms: C_17  and  C_19
REMARK                            x       y       z     vdW  Elec       q    Type
REMARK                         _______ _______ _______ _____ _____    ______ ____
ROOT
ATOM      2  N   UNL     1      -2.061   0.017  24.257  0.00  0.00    -0.342 N 
ATOM      3  N   UNL     1      -0.938   1.918  24.008  0.00  0.00    -0.232 NA
ATOM      9  C   UNL     1      -0.865   0.607  23.960  0.00  0.00    +0.113 A 
ATOM     13  C   UNL     1      -2.967   1.014  24.514  0.00  0.00    +0.066 A 
ATOM     14  C   UNL     1      -2.241   2.190  24.352  0.00  0.00    +0.089 A 
ATOM     15  C   UNL     1      -4.319   0.988  24.863  0.00  0.00    +0.031 A 
ATOM     16  C   UNL     1      -2.885   3.424  24.547  0.00  0.00    +0.030 A 
ATOM     17  C   UNL     1      -4.943   2.225  25.053  0.00  0.00    -0.048 A 
ATOM     18  C   UNL     1      -4.241   3.423  24.898  0.00  0.00    +0.005 A 
ATOM     19  C   UNL     1      -6.388   2.265  25.428  0.00  0.00    +0.044 C 
ATOM     20  H   UNL     1      -2.250  -0.977  24.284  0.00  0.00    +0.167 HD
ENDROOT
BRANCH   9   4
ATOM      1  N   UNL     1       2.567  -0.058  22.862  0.00  0.00    -0.301 NA
ATOM      4  C   UNL     1       0.356  -0.219  23.626  0.00  0.00    +0.070 C 
ATOM      5  C   UNL     1       1.671   0.538  23.855  0.00  0.00    +0.095 C 
ATOM      6  C   UNL     1       0.433  -0.699  22.166  0.00  0.00    +0.028 C 
ATOM      7  C   UNL     1       1.761  -0.169  21.646  0.00  0.00    +0.085 C 
BRANCH   1   8
ATOM      8  C   UNL     1       3.773   0.731  22.658  0.00  0.00    +0.087 C 
BRANCH   8  10
ATOM     10  C   UNL     1       5.037   0.011  23.157  0.00  0.00    -0.003 C 
ATOM     11  C   UNL     1       5.753   0.883  24.193  0.00  0.00    +0.008 C 
ATOM     12  C   UNL     1       4.733  -1.361  23.764  0.00  0.00    +0.008 C 
ENDBRANCH   8  10
ENDBRANCH   1   8
ENDBRANCH   9   4
TORSDOF 3
ENDMDL
MODEL 3
REMARK VINA RESULT:      -4.5      1.414      2.454
REMARK  Name = 45784215
REMARK  6 active torsions:
REMARK  status: ('A' for Active; 'I' for Inactive)
REMARK    1  A    between atoms: N_1  and  C_8
REMARK    2  A    between atoms: C_4  and  C_9
REMARK    3  A    between atoms: C_8  and  C_10
REMARK    4  A    between atoms: C_10  and  C_11
REMARK    5  A    between atoms: C_10  and  C_12
REMARK    6  A    between atoms: C_17  and  C_19
REMARK                            x       y       z     vdW  Elec       q    Type
REMARK                         _______ _______ _______ _____ _____    ______ ____
ROOT
ATOM      2  N   UNL     1      -7.042 -10.734  15.114  0.00  0.00    -0.342 N 
ATOM      3  N   UNL     1      -4.849 -10.711  14.752  0.00  0.00    -0.232 NA
ATOM      9  C   UNL     1      -6.036 -10.715  14.188  0.00  0.00    +0.113 A 
ATOM     13  C   UNL     1      -6.465 -10.742  16.358  0.00  0.00    +0.066 A 
ATOM     14  C   UNL     1      -5.096 -10.727  16.105  0.00  0.00    +0.089 A 
ATOM     15  C   UNL     1      -7.007 -10.759  17.644  0.00  0.00    +0.031 A 
ATOM     16  C   UNL     1      -4.200 -10.730  17.187  0.00  0.00    +0.030 A 
ATOM     17  C   UNL     1      -6.100 -10.762  18.709  0.00  0.00    -0.048 A 
ATOM     18  C   UNL     1      -4.721 -10.747  18.487  0.00  0.00    +0.005 A 
ATOM     19  C   UNL     1      -6.618 -10.781  20.110  0.00  0.00    +0.044 C 
ATOM     20  H   UNL     1      -8.034 -10.742  14.920  0.00  0.00    +0.167 HD
ENDROOT
BRANCH   9   4
ATOM      1  N   UNL     1      -6.063  -9.428  10.758  0.00  0.00    -0.301 NA
ATOM      4  C   UNL     1      -6.333 -10.704  12.706  0.00  0.00    +0.070 C 
ATOM      5  C   UNL     1      -5.286  -9.932  11.892  0.00  0.00    +0.095 C 
ATOM      6  C   UNL     1      -7.677 -10.062  12.321  0.00  0.00    +0.028 C 
ATOM      7  C   UNL     1      -7.318  -8.954  11.341  0.00  0.00    +0.085 C 
BRANCH   1   8
ATOM      8  C   UNL     1      -5.362  -8.384  10.025  0.00  0.00    +0.087 C 
BRANCH   8  10
ATOM     10  C   UNL     1      -4.236  -8.943   9.139  0.00  0.00    -0.003 C 
ATOM     11  C   UNL     1      -2.948  -9.071   9.959  0.00  0.00    +0.008 C 
ATOM     12  C   UNL     1      -4.589 -10.299   8.523  0.00  0.00    +0.008 C 
ENDBRANCH   8  10
ENDBRANCH   1   8
ENDBRANCH   9   4
TORSDOF 3
ENDMDL
MODEL 4
REMARK VINA RESULT:      -4.5      1.927      7.179
REMARK  Name = 45784215
REMARK  6 active torsions:
REMARK  status: ('A' for Active; 'I' for Inactive)
REMARK    1  A    between atoms: N_1  and  C_8
REMARK    2  A    between atoms: C_4  and  C_9
REMARK    3  A    between atoms: C_8  and  C_10
REMARK    4  A    between atoms: C_10  and  C_11
REMARK    5  A    between atoms: C_10  and  C_12
REMARK    6  A    between atoms: C_17  and  C_19
REMARK                            x       y       z     vdW  Elec       q    Type
REMARK                         _______ _______ _______ _____ _____    ______ ____
ROOT
ATOM      2  N   UNL     1      -7.227  -9.860  12.655  0.00  0.00    -0.342 N 
ATOM      3  N   UNL     1      -5.006  -9.804  12.633  0.00  0.00    -0.232 NA
ATOM      9  C   UNL     1      -6.070 -10.146  13.324  0.00  0.00    +0.113 A 
ATOM     13  C   UNL     1      -6.887  -9.296  11.452  0.00  0.00    +0.066 A 
ATOM     14  C   UNL     1      -5.496  -9.273  11.463  0.00  0.00    +0.089 A 
ATOM     15  C   UNL     1      -7.654  -8.819  10.388  0.00  0.00    +0.031 A 
ATOM     16  C   UNL     1      -4.811  -8.745  10.355  0.00  0.00    +0.030 A 
ATOM     17  C   UNL     1      -6.957  -8.298   9.294  0.00  0.00    -0.048 A 
ATOM     18  C   UNL     1      -5.561  -8.260   9.275  0.00  0.00    +0.005 A 
ATOM     19  C   UNL     1      -7.721  -7.771   8.124  0.00  0.00    +0.044 C 
ATOM     20  H   UNL     1      -8.168 -10.032  12.985  0.00  0.00    +0.167 HD
ENDROOT
BRANCH   9   4
ATOM      1  N   UNL     1      -6.771 -10.418  16.910  0.00  0.00    -0.301 NA
ATOM      4  C   UNL     1      -6.092 -10.781  14.696  0.00  0.00    +0.070 C 
ATOM      5  C   UNL     1      -7.290 -10.332  15.544  0.00  0.00    +0.095 C 
ATOM      6  C   UNL     1      -4.862 -10.478  15.568  0.00  0.00    +0.028 C 
ATOM      7  C   UNL     1      -5.423  -9.854  16.838  0.00  0.00    +0.085 C 
BRANCH   1   8
ATOM      8  C   UNL     1      -7.614  -9.719  17.869  0.00  0.00    +0.087 C 
BRANCH   8  10
ATOM     10  C   UNL     1      -9.069  -9.589  17.387  0.00  0.00    -0.003 C 
ATOM     11  C   UNL     1      -9.983 -10.446  18.266  0.00  0.00    +0.008 C 
ATOM     12  C   UNL     1      -9.563  -8.140  17.391  0.00  0.00    +0.008 C 
ENDBRANCH   8  10
ENDBRANCH   1   8
ENDBRANCH   9   4
TORSDOF 3
ENDMDL
MODEL 5
REMARK VINA RESULT:      -4.3      1.456      2.657
REMARK  Name = 45784215
REMARK  6 active torsions:
REMARK  status: ('A' for Active; 'I' for Inactive)
REMARK    1  A    between atoms: N_1  and  C_8
REMARK    2  A    between atoms: C_4  and  C_9
REMARK    3  A    between atoms: C_8  and  C_10
REMARK    4  A    between atoms: C_10  and  C_11
REMARK    5  A    between atoms: C_10  and  C_12
REMARK    6  A    between atoms: C_17  and  C_19
REMARK                            x       y       z     vdW  Elec       q    Type
REMARK                         _______ _______ _______ _____ _____    ______ ____
ROOT
ATOM      2  N   UNL     1      -8.902 -10.291  14.227  0.00  0.00    -0.342 N 
ATOM      3  N   UNL     1      -6.772 -10.269  14.860  0.00  0.00    -0.232 NA
ATOM      9  C   UNL     1      -7.594 -10.348  13.837  0.00  0.00    +0.113 A 
ATOM     13  C   UNL     1      -8.927 -10.168  15.593  0.00  0.00    +0.066 A 
ATOM     14  C   UNL     1      -7.586 -10.156  15.963  0.00  0.00    +0.089 A 
ATOM     15  C   UNL     1      -9.977 -10.067  16.507  0.00  0.00    +0.031 A 
ATOM     16  C   UNL     1      -7.252 -10.039  17.323  0.00  0.00    +0.030 A 
ATOM     17  C   UNL     1      -9.626  -9.952  17.857  0.00  0.00    -0.048 A 
ATOM     18  C   UNL     1      -8.289  -9.937  18.260  0.00  0.00    +0.005 A 
ATOM     19  C   UNL     1     -10.704  -9.841  18.885  0.00  0.00    +0.044 C 
ATOM     20  H   UNL     1      -9.711 -10.333  13.621  0.00  0.00    +0.167 HD
ENDROOT
BRANCH   9   4
ATOM      1  N   UNL     1      -6.170  -9.361  10.608  0.00  0.00    -0.301 NA
ATOM      4  C   UNL     1      -7.213 -10.487  12.381  0.00  0.00    +0.070 C 
ATOM      5  C   UNL     1      -5.948  -9.700  12.015  0.00  0.00    +0.095 C 
ATOM      6  C   UNL     1      -8.278  -9.996  11.385  0.00  0.00    +0.028 C 
ATOM      7  C   UNL     1      -7.572  -8.948  10.537  0.00  0.00    +0.085 C 
BRANCH   1   8
ATOM      8  C   UNL     1      -5.262  -8.327  10.136  0.00  0.00    +0.087 C 
BRANCH   8  10
ATOM     10  C   UNL     1      -4.106  -8.897   9.298  0.00  0.00    -0.003 C 
ATOM     11  C   UNL     1      -2.920  -9.228  10.209  0.00  0.00    +0.008 C 
ATOM     12  C   UNL     1      -4.510 -10.146   8.509  0.00  0.00    +0.008 C 
ENDBRANCH   8  10
ENDBRANCH   1   8
ENDBRANCH   9   4
TORSDOF 3
ENDMDL
MODEL 6
REMARK VINA RESULT:      -3.1      2.420      4.390
REMARK  Name = 45784215
REMARK  6 active torsions:
REMARK  status: ('A' for Active; 'I' for Inactive)
REMARK    1  A    between atoms: N_1  and  C_8
REMARK    2  A    between atoms: C_4  and  C_9
REMARK    3  A    between atoms: C_8  and  C_10
REMARK    4  A    between atoms: C_10  and  C_11
REMARK    5  A    between atoms: C_10  and  C_12
REMARK    6  A    between atoms: C_17  and  C_19
REMARK                            x       y       z     vdW  Elec       q    Type
REMARK                         _______ _______ _______ _____ _____    ______ ____
ROOT
ATOM      2  N   UNL     1      -5.604 -10.272  13.152  0.00  0.00    -0.342 N 
ATOM      3  N   UNL     1      -3.436 -10.409  12.682  0.00  0.00    -0.232 NA
ATOM      9  C   UNL     1      -4.643 -10.262  12.181  0.00  0.00    +0.113 A 
ATOM     13  C   UNL     1      -4.976 -10.436  14.361  0.00  0.00    +0.066 A 
ATOM     14  C   UNL     1      -3.625 -10.518  14.040  0.00  0.00    +0.089 A 
ATOM     15  C   UNL     1      -5.461 -10.515  15.667  0.00  0.00    +0.031 A 
ATOM     16  C   UNL     1      -2.686 -10.691  15.071  0.00  0.00    +0.030 A 
ATOM     17  C   UNL     1      -4.513 -10.688  16.681  0.00  0.00    -0.048 A 
ATOM     18  C   UNL     1      -3.149 -10.774  16.390  0.00  0.00    +0.005 A 
ATOM     19  C   UNL     1      -4.968 -10.781  18.100  0.00  0.00    +0.044 C 
ATOM     20  H   UNL     1      -6.601 -10.177  13.010  0.00  0.00    +0.167 HD
ENDROOT
BRANCH   9   4
ATOM      1  N   UNL     1      -6.161  -8.712   9.228  0.00  0.00    -0.301 NA
ATOM      4  C   UNL     1      -5.002 -10.099  10.722  0.00  0.00    +0.070 C 
ATOM      5  C   UNL     1      -5.176  -8.631  10.309  0.00  0.00    +0.095 C 
ATOM      6  C   UNL     1      -6.314 -10.781  10.299  0.00  0.00    +0.028 C 
ATOM      7  C   UNL     1      -7.163  -9.667   9.702  0.00  0.00    +0.085 C 
BRANCH   1   8
ATOM      8  C   UNL     1      -6.739  -7.416   8.906  0.00  0.00    +0.087 C 
BRANCH   8  10
ATOM     10  C   UNL     1      -8.199  -7.524   8.436  0.00  0.00    -0.003 C 
ATOM     11  C   UNL     1      -8.982  -8.437   9.385  0.00  0.00    +0.008 C 
ATOM     12  C   UNL     1      -8.891  -6.162   8.347  0.00  0.00    +0.008 C 
ENDBRANCH   8  10
ENDBRANCH   1   8
ENDBRANCH   9   4
TORSDOF 3
ENDMDL
MODEL 7
REMARK VINA RESULT:      -2.8      2.731      6.531
REMARK  Name = 45784215
REMARK  6 active torsions:
REMARK  status: ('A' for Active; 'I' for Inactive)
REMARK    1  A    between atoms: N_1  and  C_8
REMARK    2  A    between atoms: C_4  and  C_9
REMARK    3  A    between atoms: C_8  and  C_10
REMARK    4  A    between atoms: C_10  and  C_11
REMARK    5  A    between atoms: C_10  and  C_12
REMARK    6  A    between atoms: C_17  and  C_19
REMARK                            x       y       z     vdW  Elec       q    Type
REMARK                         _______ _______ _______ _____ _____    ______ ____
ROOT
ATOM      2  N   UNL     1      -7.179  -9.435  10.663  0.00  0.00    -0.342 N 
ATOM      3  N   UNL     1      -5.500  -8.569   9.493  0.00  0.00    -0.232 NA
ATOM      9  C   UNL     1      -5.841  -9.468  10.389  0.00  0.00    +0.113 A 
ATOM     13  C   UNL     1      -7.740  -8.449   9.892  0.00  0.00    +0.066 A 
ATOM     14  C   UNL     1      -6.671  -7.925   9.171  0.00  0.00    +0.089 A 
ATOM     15  C   UNL     1      -9.051  -7.986   9.767  0.00  0.00    +0.031 A 
ATOM     16  C   UNL     1      -6.905  -6.874   8.266  0.00  0.00    +0.030 A 
ATOM     17  C   UNL     1      -9.265  -6.940   8.863  0.00  0.00    -0.048 A 
ATOM     18  C   UNL     1      -8.213  -6.393   8.125  0.00  0.00    +0.005 A 
ATOM     19  C   UNL     1     -10.646  -6.400   8.684  0.00  0.00    +0.044 C 
ATOM     20  H   UNL     1      -7.672 -10.028  11.317  0.00  0.00    +0.167 HD
ENDROOT
BRANCH   9   4
ATOM      1  N   UNL     1      -3.647 -10.770  13.019  0.00  0.00    -0.301 NA
ATOM      4  C   UNL     1      -4.922 -10.451  11.078  0.00  0.00    +0.070 C 
ATOM      5  C   UNL     1      -4.993 -10.365  12.608  0.00  0.00    +0.095 C 
ATOM      6  C   UNL     1      -3.429 -10.283  10.746  0.00  0.00    +0.028 C 
ATOM      7  C   UNL     1      -2.747 -10.083  12.092  0.00  0.00    +0.085 C 
BRANCH   1   8
ATOM      8  C   UNL     1      -3.368 -10.440  14.409  0.00  0.00    +0.087 C 
BRANCH   8  10
ATOM     10  C   UNL     1      -4.553 -10.757  15.337  0.00  0.00    -0.003 C 
ATOM     11  C   UNL     1      -4.151 -10.505  16.793  0.00  0.00    +0.008 C 
ATOM     12  C   UNL     1      -5.801  -9.937  14.999  0.00  0.00    +0.008 C 
ENDBRANCH   8  10
ENDBRANCH   1   8
ENDBRANCH   9   4
TORSDOF 3
ENDMDL
MODEL 8
REMARK VINA RESULT:      -2.6     14.934     17.661
REMARK  Name = 45784215
REMARK  6 active torsions:
REMARK  status: ('A' for Active; 'I' for Inactive)
REMARK    1  A    between atoms: N_1  and  C_8
REMARK    2  A    between atoms: C_4  and  C_9
REMARK    3  A    between atoms: C_8  and  C_10
REMARK    4  A    between atoms: C_10  and  C_11
REMARK    5  A    between atoms: C_10  and  C_12
REMARK    6  A    between atoms: C_17  and  C_19
REMARK                            x       y       z     vdW  Elec       q    Type
REMARK                         _______ _______ _______ _____ _____    ______ ____
ROOT
ATOM      2  N   UNL     1       0.570   2.546  24.729  0.00  0.00    -0.342 N 
ATOM      3  N   UNL     1      -1.033   1.097  24.209  0.00  0.00    -0.232 NA
ATOM      9  C   UNL     1      -0.744   2.195  24.871  0.00  0.00    +0.113 A 
ATOM     13  C   UNL     1       1.168   1.613  23.922  0.00  0.00    +0.066 A 
ATOM     14  C   UNL     1       0.146   0.720  23.611  0.00  0.00    +0.089 A 
ATOM     15  C   UNL     1       2.475   1.478  23.451  0.00  0.00    +0.031 A 
ATOM     16  C   UNL     1       0.427  -0.380  22.782  0.00  0.00    +0.030 A 
ATOM     17  C   UNL     1       2.736   0.378  22.628  0.00  0.00    -0.048 A 
ATOM     18  C   UNL     1       1.732  -0.536  22.298  0.00  0.00    +0.005 A 
ATOM     19  C   UNL     1       4.116   0.177  22.092  0.00  0.00    +0.044 C 
ATOM     20  H   UNL     1       1.024   3.349  25.144  0.00  0.00    +0.167 HD
ENDROOT
BRANCH   9   4
ATOM      1  N   UNL     1      -3.929   3.703  25.874  0.00  0.00    -0.301 NA
ATOM      4  C   UNL     1      -1.692   3.022  25.709  0.00  0.00    +0.070 C 
ATOM      5  C   UNL     1      -3.131   2.490  25.686  0.00  0.00    +0.095 C 
ATOM      6  C   UNL     1      -1.814   4.495  25.283  0.00  0.00    +0.028 C 
ATOM      7  C   UNL     1      -3.298   4.706  25.016  0.00  0.00    +0.085 C 
BRANCH   1   8
ATOM      8  C   UNL     1      -5.333   3.499  25.548  0.00  0.00    +0.087 C 
BRANCH   8  10
ATOM     10  C   UNL     1      -5.744   2.019  25.619  0.00  0.00    -0.003 C 
ATOM     11  C   UNL     1      -6.499   1.753  26.924  0.00  0.00    +0.008 C 
ATOM     12  C   UNL     1      -6.607   1.590  24.430  0.00  0.00    +0.008 C 
ENDBRANCH   8  10
ENDBRANCH   1   8
ENDBRANCH   9   4
TORSDOF 3
ENDMDL
MODEL 9
REMARK VINA RESULT:      -2.5      1.576      6.855
REMARK  Name = 45784215
REMARK  6 active torsions:
REMARK  status: ('A' for Active; 'I' for Inactive)
REMARK    1  A    between atoms: N_1  and  C_8
REMARK    2  A    between atoms: C_4  and  C_9
REMARK    3  A    between atoms: C_8  and  C_10
REMARK    4  A    between atoms: C_10  and  C_11
REMARK    5  A    between atoms: C_10  and  C_12
REMARK    6  A    between atoms: C_17  and  C_19
REMARK                            x       y       z     vdW  Elec       q    Type
REMARK                         _______ _______ _______ _____ _____    ______ ____
ROOT
ATOM      2  N   UNL     1      -6.221 -10.212  13.498  0.00  0.00    -0.342 N 
ATOM      3  N   UNL     1      -4.274 -10.678  14.463  0.00  0.00    -0.232 NA
ATOM      9  C   UNL     1      -5.571 -10.565  14.647  0.00  0.00    +0.113 A 
ATOM     13  C   UNL     1      -5.281 -10.090  12.506  0.00  0.00    +0.066 A 
ATOM     14  C   UNL     1      -4.075 -10.386  13.135  0.00  0.00    +0.089 A 
ATOM     15  C   UNL     1      -5.381  -9.756  11.154  0.00  0.00    +0.031 A 
ATOM     16  C   UNL     1      -2.887 -10.352  12.385  0.00  0.00    +0.030 A 
ATOM     17  C   UNL     1      -4.188  -9.727  10.425  0.00  0.00    -0.048 A 
ATOM     18  C   UNL     1      -2.962 -10.019  11.027  0.00  0.00    +0.005 A 
ATOM     19  C   UNL     1      -4.228  -9.376   8.973  0.00  0.00    +0.044 C 
ATOM     20  H   UNL     1      -7.216 -10.066  13.393  0.00  0.00    +0.167 HD
ENDROOT
BRANCH   9   4
ATOM      1  N   UNL     1      -8.331 -10.274  17.039  0.00  0.00    -0.301 NA
ATOM      4  C   UNL     1      -6.323 -10.781  15.940  0.00  0.00    +0.070 C 
ATOM      5  C   UNL     1      -7.846 -10.781  15.754  0.00  0.00    +0.095 C 
ATOM      6  C   UNL     1      -6.064  -9.720  17.024  0.00  0.00    +0.028 C 
ATOM      7  C   UNL     1      -7.438  -9.163  17.367  0.00  0.00    +0.085 C 
BRANCH   1   8
ATOM      8  C   UNL     1      -9.727  -9.865  16.983  0.00  0.00    +0.087 C 
BRANCH   8  10
ATOM     10  C   UNL     1     -10.053  -9.059  15.714  0.00  0.00    -0.003 C 
ATOM     11  C   UNL     1      -9.506  -7.635  15.851  0.00  0.00    +0.008 C 
ATOM     12  C   UNL     1      -9.490  -9.705  14.445  0.00  0.00    +0.008 C 
ENDBRANCH   8  10
ENDBRANCH   1   8
ENDBRANCH   9   4
TORSDOF 3
ENDMDL
MODEL 10
REMARK VINA RESULT:      -2.1     14.616     16.724
REMARK  Name = 45784215
REMARK  6 active torsions:
REMARK  status: ('A' for Active; 'I' for Inactive)
REMARK    1  A    between atoms: N_1  and  C_8
REMARK    2  A    between atoms: C_4  and  C_9
REMARK    3  A    between atoms: C_8  and  C_10
REMARK    4  A    between atoms: C_10  and  C_11
REMARK    5  A    between atoms: C_10  and  C_12
REMARK    6  A    between atoms: C_17  and  C_19
REMARK                            x       y       z     vdW  Elec       q    Type
REMARK                         _______ _______ _______ _____ _____    ______ ____
ROOT
ATOM      2  N   UNL     1       1.361  -1.246  23.804  0.00  0.00    -0.342 N 
ATOM      3  N   UNL     1       0.943   0.801  23.046  0.00  0.00    -0.232 NA
ATOM      9  C   UNL     1       0.410  -0.320  23.477  0.00  0.00    +0.113 A 
ATOM     13  C   UNL     1       2.590  -0.683  23.568  0.00  0.00    +0.066 A 
ATOM     14  C   UNL     1       2.301   0.594  23.097  0.00  0.00    +0.089 A 
ATOM     15  C   UNL     1       3.889  -1.169  23.724  0.00  0.00    +0.031 A 
ATOM     16  C   UNL     1       3.360   1.452  22.755  0.00  0.00    +0.030 A 
ATOM     17  C   UNL     1       4.930  -0.301  23.379  0.00  0.00    -0.048 A 
ATOM     18  C   UNL     1       4.673   0.987  22.903  0.00  0.00    +0.005 A 
ATOM     19  C   UNL     1       6.344  -0.761  23.522  0.00  0.00    +0.044 C 
ATOM     20  H   UNL     1       1.193  -2.179  24.155  0.00  0.00    +0.167 HD
ENDROOT
BRANCH   9   4
ATOM      1  N   UNL     1      -3.015   0.066  24.721  0.00  0.00    -0.301 NA
ATOM      4  C   UNL     1      -1.064  -0.624  23.619  0.00  0.00    +0.070 C 
ATOM      5  C   UNL     1      -1.903   0.618  23.945  0.00  0.00    +0.095 C 
ATOM      6  C   UNL     1      -1.412  -1.631  24.729  0.00  0.00    +0.028 C 
ATOM      7  C   UNL     1      -2.397  -0.899  25.630  0.00  0.00    +0.085 C 
BRANCH   1   8
ATOM      8  C   UNL     1      -3.762   1.094  25.429  0.00  0.00    +0.087 C 
BRANCH   8  10
ATOM     10  C   UNL     1      -4.612   1.960  24.483  0.00  0.00    -0.003 C 
ATOM     11  C   UNL     1      -6.069   1.963  24.953  0.00  0.00    +0.008 C 
ATOM     12  C   UNL     1      -4.101   3.400  24.385  0.00  0.00    +0.008 C 
ENDBRANCH   8  10
ENDBRANCH   1   8
ENDBRANCH   9   4
TORSDOF 3
ENDMDL
