MODEL 1
REMARK VINA RESULT:       3.0      0.000      0.000
REMARK  Name = 45783508
REMARK  5 active torsions:
REMARK  status: ('A' for Active; 'I' for Inactive)
REMARK    1  A    between atoms: N_3  and  C_13
REMARK    2  A    between atoms: C_9  and  C_14
REMARK    3  A    between atoms: C_13  and  C_15
REMARK    4  A    between atoms: C_16  and  C_21
REMARK    5  A    between atoms: C_25  and  C_31
REMARK                            x       y       z     vdW  Elec       q    Type
REMARK                         _______ _______ _______ _____ _____    ______ ____
ROOT
ATOM      1  O   UNL     1      -3.307   1.949  22.191  0.00  0.00    -0.336 OA
ATOM      4  N   UNL     1      -2.041   1.891  24.038  0.00  0.00    -0.190 NA
ATOM      6  N   UNL     1      -2.036   1.530  21.778  0.00  0.00    -0.056 NA
ATOM     14  C   UNL     1      -3.223   2.140  23.534  0.00  0.00    +0.245 A 
ATOM     16  C   UNL     1      -1.347   1.520  22.923  0.00  0.00    +0.204 A 
ENDROOT
BRANCH  16  21
ATOM      2  O   UNL     1       6.804  -0.295  23.408  0.00  0.00    -0.377 OA
ATOM      5  N   UNL     1       4.033   0.143  23.236  0.00  0.00    -0.311 N 
ATOM      7  N   UNL     1       2.242   1.540  23.899  0.00  0.00    -0.240 NA
ATOM     19  C   UNL     1       4.749   0.399  24.493  0.00  0.00    +0.134 C 
ATOM     20  C   UNL     1       4.863   0.169  22.027  0.00  0.00    +0.134 C 
ATOM     21  C   UNL     1       0.037   1.147  22.987  0.00  0.00    +0.041 A 
ATOM     22  C   UNL     1       5.992  -0.481  24.567  0.00  0.00    +0.178 C 
ATOM     23  C   UNL     1       6.101  -0.698  22.232  0.00  0.00    +0.178 C 
ATOM     24  C   UNL     1       2.681   0.495  23.162  0.00  0.00    +0.121 A 
ATOM     27  C   UNL     1       0.527   0.078  22.244  0.00  0.00    +0.016 A 
ATOM     28  C   UNL     1       1.873  -0.260  22.327  0.00  0.00    +0.044 A 
ATOM     30  C   UNL     1       0.927   1.839  23.793  0.00  0.00    +0.124 A 
ENDBRANCH  16  21
BRANCH  14   9
ATOM      3  N   UNL     1      -4.743   1.865  25.485  0.00  0.00    -0.287 NA
ATOM      9  C   UNL     1      -4.487   2.600  24.230  0.00  0.00    +0.146 C 
ATOM     10  C   UNL     1      -4.427   4.081  24.650  0.00  0.00    +0.030 C 
ATOM     11  C   UNL     1      -4.722   4.084  26.143  0.00  0.00    +0.017 C 
ATOM     12  C   UNL     1      -5.470   2.784  26.361  0.00  0.00    +0.085 C 
BRANCH   3  13
ATOM     13  C   UNL     1      -5.464   0.616  25.281  0.00  0.00    +0.120 C 
BRANCH  13  15
ATOM     15  C   UNL     1      -4.543  -0.502  24.867  0.00  0.00    -0.032 A 
ATOM     17  C   UNL     1      -3.227  -0.529  25.327  0.00  0.00    +0.023 A 
ATOM     18  C   UNL     1      -5.010  -1.511  24.025  0.00  0.00    +0.005 A 
ATOM     25  C   UNL     1      -2.376  -1.565  24.943  0.00  0.00    +0.052 A 
ATOM     26  C   UNL     1      -4.159  -2.548  23.642  0.00  0.00    +0.002 A 
ATOM     29  C   UNL     1      -2.841  -2.574  24.101  0.00  0.00    +0.019 A 
BRANCH  25  31
ATOM      8  N   UNL     1       0.069  -1.617  25.795  0.00  0.00    -0.191 NA
ATOM     31  C   UNL     1      -1.027  -1.594  25.413  0.00  0.00    +0.099 C 
ENDBRANCH  25  31
ENDBRANCH  13  15
ENDBRANCH   3  13
ENDBRANCH  14   9
TORSDOF 5
ENDMDL
MODEL 2
REMARK VINA RESULT:       5.3      1.663      3.332
REMARK  Name = 45783508
REMARK  5 active torsions:
REMARK  status: ('A' for Active; 'I' for Inactive)
REMARK    1  A    between atoms: N_3  and  C_13
REMARK    2  A    between atoms: C_9  and  C_14
REMARK    3  A    between atoms: C_13  and  C_15
REMARK    4  A    between atoms: C_16  and  C_21
REMARK    5  A    between atoms: C_25  and  C_31
REMARK                            x       y       z     vdW  Elec       q    Type
REMARK                         _______ _______ _______ _____ _____    ______ ____
ROOT
ATOM      1  O   UNL     1      -3.431   1.719  22.996  0.00  0.00    -0.336 OA
ATOM      4  N   UNL     1      -2.115   0.937  24.632  0.00  0.00    -0.190 NA
ATOM      6  N   UNL     1      -2.152   1.593  22.440  0.00  0.00    -0.056 NA
ATOM     14  C   UNL     1      -3.321   1.312  24.288  0.00  0.00    +0.245 A 
ATOM     16  C   UNL     1      -1.433   1.126  23.465  0.00  0.00    +0.204 A 
ENDROOT
BRANCH  16  21
ATOM      2  O   UNL     1       6.812  -0.169  22.907  0.00  0.00    -0.377 OA
ATOM      5  N   UNL     1       4.020   0.092  23.104  0.00  0.00    -0.311 N 
ATOM      7  N   UNL     1       2.246   1.434  23.911  0.00  0.00    -0.240 NA
ATOM     19  C   UNL     1       4.884   0.493  24.222  0.00  0.00    +0.134 C 
ATOM     20  C   UNL     1       4.671   0.066  21.789  0.00  0.00    +0.134 C 
ATOM     21  C   UNL     1      -0.031   0.840  23.357  0.00  0.00    +0.041 A 
ATOM     22  C   UNL     1       6.183  -0.304  24.182  0.00  0.00    +0.178 C 
ATOM     23  C   UNL     1       5.982  -0.708  21.878  0.00  0.00    +0.178 C 
ATOM     24  C   UNL     1       2.650   0.359  23.198  0.00  0.00    +0.121 A 
ATOM     27  C   UNL     1       0.424  -0.257  22.632  0.00  0.00    +0.016 A 
ATOM     28  C   UNL     1       1.788  -0.509  22.547  0.00  0.00    +0.044 A 
ATOM     30  C   UNL     1       0.912   1.647  23.973  0.00  0.00    +0.124 A 
ENDBRANCH  16  21
BRANCH  14   9
ATOM      3  N   UNL     1      -5.255   2.668  25.070  0.00  0.00    -0.287 NA
ATOM      9  C   UNL     1      -4.587   1.353  25.119  0.00  0.00    +0.146 C 
ATOM     10  C   UNL     1      -5.652   0.354  24.627  0.00  0.00    +0.030 C 
ATOM     11  C   UNL     1      -6.901   1.191  24.387  0.00  0.00    +0.017 C 
ATOM     12  C   UNL     1      -6.684   2.414  25.256  0.00  0.00    +0.085 C 
BRANCH   3  13
ATOM     13  C   UNL     1      -4.735   3.614  26.049  0.00  0.00    +0.120 C 
BRANCH  13  15
ATOM     15  C   UNL     1      -3.309   3.997  25.756  0.00  0.00    -0.032 A 
ATOM     17  C   UNL     1      -2.262   3.335  26.397  0.00  0.00    +0.023 A 
ATOM     18  C   UNL     1      -3.035   5.013  24.840  0.00  0.00    +0.005 A 
ATOM     25  C   UNL     1      -0.941   3.691  26.124  0.00  0.00    +0.052 A 
ATOM     26  C   UNL     1      -1.714   5.368  24.567  0.00  0.00    +0.002 A 
ATOM     29  C   UNL     1      -0.667   4.707  25.209  0.00  0.00    +0.019 A 
BRANCH  25  31
ATOM      8  N   UNL     1       1.004   2.464  27.315  0.00  0.00    -0.191 NA
ATOM     31  C   UNL     1       0.132   3.014  26.781  0.00  0.00    +0.099 C 
ENDBRANCH  25  31
ENDBRANCH  13  15
ENDBRANCH   3  13
ENDBRANCH  14   9
TORSDOF 5
ENDMDL
MODEL 3
REMARK VINA RESULT:       6.2      1.071      1.531
REMARK  Name = 45783508
REMARK  5 active torsions:
REMARK  status: ('A' for Active; 'I' for Inactive)
REMARK    1  A    between atoms: N_3  and  C_13
REMARK    2  A    between atoms: C_9  and  C_14
REMARK    3  A    between atoms: C_13  and  C_15
REMARK    4  A    between atoms: C_16  and  C_21
REMARK    5  A    between atoms: C_25  and  C_31
REMARK                            x       y       z     vdW  Elec       q    Type
REMARK                         _______ _______ _______ _____ _____    ______ ____
ROOT
ATOM      1  O   UNL     1      -3.353   2.267  22.163  0.00  0.00    -0.336 OA
ATOM      4  N   UNL     1      -2.238   1.697  24.020  0.00  0.00    -0.190 NA
ATOM      6  N   UNL     1      -2.048   1.965  21.756  0.00  0.00    -0.056 NA
ATOM     14  C   UNL     1      -3.379   2.084  23.509  0.00  0.00    +0.245 A 
ATOM     16  C   UNL     1      -1.452   1.637  22.906  0.00  0.00    +0.204 A 
ENDROOT
BRANCH  16  21
ATOM      2  O   UNL     1       6.674  -0.272  23.430  0.00  0.00    -0.377 OA
ATOM      5  N   UNL     1       3.910   0.197  23.247  0.00  0.00    -0.311 N 
ATOM      7  N   UNL     1       2.133   1.621  23.893  0.00  0.00    -0.240 NA
ATOM     19  C   UNL     1       4.625   0.455  24.504  0.00  0.00    +0.134 C 
ATOM     20  C   UNL     1       4.744   0.205  22.040  0.00  0.00    +0.134 C 
ATOM     21  C   UNL     1      -0.073   1.248  22.978  0.00  0.00    +0.041 A 
ATOM     22  C   UNL     1       5.857  -0.439  24.588  0.00  0.00    +0.178 C 
ATOM     23  C   UNL     1       5.970  -0.676  22.256  0.00  0.00    +0.178 C 
ATOM     24  C   UNL     1       2.562   0.566  23.166  0.00  0.00    +0.121 A 
ATOM     27  C   UNL     1       0.406   0.168  22.244  0.00  0.00    +0.016 A 
ATOM     28  C   UNL     1       1.748  -0.186  22.335  0.00  0.00    +0.044 A 
ATOM     30  C   UNL     1       0.823   1.935  23.780  0.00  0.00    +0.124 A 
ENDBRANCH  16  21
BRANCH  14   9
ATOM      3  N   UNL     1      -4.739   1.813  25.576  0.00  0.00    -0.287 NA
ATOM      9  C   UNL     1      -4.701   2.349  24.201  0.00  0.00    +0.146 C 
ATOM     10  C   UNL     1      -4.997   3.852  24.358  0.00  0.00    +0.030 C 
ATOM     11  C   UNL     1      -5.249   4.054  25.846  0.00  0.00    +0.017 C 
ATOM     12  C   UNL     1      -5.649   2.675  26.331  0.00  0.00    +0.085 C 
BRANCH   3  13
ATOM     13  C   UNL     1      -5.134   0.412  25.636  0.00  0.00    +0.120 C 
BRANCH  13  15
ATOM     15  C   UNL     1      -3.961  -0.511  25.443  0.00  0.00    -0.032 A 
ATOM     17  C   UNL     1      -4.073  -1.617  24.601  0.00  0.00    +0.023 A 
ATOM     18  C   UNL     1      -2.759  -0.257  26.105  0.00  0.00    +0.005 A 
ATOM     25  C   UNL     1      -2.985  -2.472  24.423  0.00  0.00    +0.052 A 
ATOM     26  C   UNL     1      -1.671  -1.111  25.926  0.00  0.00    +0.002 A 
ATOM     29  C   UNL     1      -1.784  -2.218  25.085  0.00  0.00    +0.019 A 
BRANCH  25  31
ATOM      8  N   UNL     1      -3.193  -4.526  22.861  0.00  0.00    -0.191 NA
ATOM     31  C   UNL     1      -3.100  -3.606  23.561  0.00  0.00    +0.099 C 
ENDBRANCH  25  31
ENDBRANCH  13  15
ENDBRANCH   3  13
ENDBRANCH  14   9
TORSDOF 5
ENDMDL
