MODEL 1
REMARK VINA RESULT:      -0.4      0.000      0.000
REMARK  Name = 28960603
REMARK  12 active torsions:
REMARK  status: ('A' for Active; 'I' for Inactive)
REMARK    1  A    between atoms: O_3  and  C_12
REMARK    2  A    between atoms: O_5  and  C_25
REMARK    3  A    between atoms: O_5  and  C_28
REMARK    4  A    between atoms: N_6  and  C_10
REMARK    5  A    between atoms: N_6  and  C_16
REMARK    6  A    between atoms: N_6  and  C_17
REMARK    7  A    between atoms: N_7  and  C_11
REMARK    8  A    between atoms: N_8  and  C_18
REMARK    9  A    between atoms: N_8  and  C_20
REMARK   10  A    between atoms: N_8  and  C_21
REMARK   11  A    between atoms: N_9  and  C_22
REMARK   12  A    between atoms: C_16  and  C_18
REMARK                            x       y       z     vdW  Elec       q    Type
REMARK                         _______ _______ _______ _____ _____    ______ ____
ROOT
ATOM      1  O   UNL     1      -3.841   3.121  26.621  0.00  0.00    -0.342 OA
ATOM      2  O   UNL     1      -5.749   3.982  25.619  0.00  0.00    -0.347 OA
ATOM     10  C   UNL     1      -4.699   2.033  24.647  0.00  0.00    +0.143 C 
ATOM     11  C   UNL     1      -2.870   3.853  24.539  0.00  0.00    +0.136 C 
ATOM     12  C   UNL     1      -3.818   2.929  23.747  0.00  0.00    +0.159 C 
ATOM     13  C   UNL     1      -3.446   4.293  25.901  0.00  0.00    +0.170 C 
ATOM     14  C   UNL     1      -5.060   2.765  25.952  0.00  0.00    +0.270 C 
ATOM     15  C   UNL     1      -4.775   5.020  25.807  0.00  0.00    +0.196 C 
ENDROOT
BRANCH  11   7
ATOM      4  O   UNL     1      -1.420   2.304  22.615  0.00  0.00    -0.252 OA
ATOM      7  N   UNL     1      -1.590   3.205  24.736  0.00  0.00    -0.291 N 
ATOM      9  N   UNL     1       0.261   1.958  24.216  0.00  0.00    -0.269 N 
ATOM     19  C   UNL     1      -0.952   2.464  23.739  0.00  0.00    +0.304 C 
ATOM     29  H   UNL     1      -1.179   3.224  25.664  0.00  0.00    +0.151 HD
ATOM     31  H   UNL     1       0.504   2.185  25.177  0.00  0.00    +0.156 HD
BRANCH   9  22
ATOM     22  C   UNL     1       1.202   1.162  23.522  0.00  0.00    +0.038 A 
ATOM     23  C   UNL     1       2.565   1.434  23.638  0.00  0.00    +0.069 A 
ATOM     24  C   UNL     1       0.767   0.106  22.721  0.00  0.00    +0.023 A 
ATOM     25  C   UNL     1       3.495   0.650  22.953  0.00  0.00    +0.122 A 
ATOM     26  C   UNL     1       1.695  -0.678  22.037  0.00  0.00    +0.005 A 
ATOM     27  C   UNL     1       3.059  -0.407  22.152  0.00  0.00    +0.046 A 
BRANCH  25   5
ATOM      5  O   UNL     1       4.824   0.916  23.066  0.00  0.00    -0.495 OA
ATOM     28  C   UNL     1       5.615  -0.024  23.791  0.00  0.00    +0.277 C 
ENDBRANCH  25   5
ENDBRANCH   9  22
ENDBRANCH  11   7
BRANCH  12   3
ATOM      3  O   UNL     1      -4.692   3.740  22.949  0.00  0.00    -0.388 OA
ATOM     30  H   UNL     1      -4.354   3.728  22.038  0.00  0.00    +0.210 HD
ENDBRANCH  12   3
BRANCH  10   6
ATOM      6  N   UNL     1      -3.997   0.785  24.957  0.00  0.00    -0.295 NA
ATOM     17  C   UNL     1      -4.816  -0.057  25.828  0.00  0.00    +0.105 C 
BRANCH   6  16
ATOM     16  C   UNL     1      -3.656   0.072  23.727  0.00  0.00    +0.100 C 
BRANCH  16  18
ATOM     18  C   UNL     1      -4.125  -1.376  23.812  0.00  0.00    +0.099 C 
BRANCH  18   8
ATOM      8  N   UNL     1      -2.991  -2.259  24.060  0.00  0.00    -0.307 NA
ATOM     20  C   UNL     1      -3.320  -3.244  25.092  0.00  0.00    +0.104 C 
ATOM     21  C   UNL     1      -1.812  -1.486  24.453  0.00  0.00    +0.104 C 
ENDBRANCH  18   8
ENDBRANCH  16  18
ENDBRANCH   6  16
ENDBRANCH  10   6
TORSDOF 8
ENDMDL
MODEL 2
REMARK VINA RESULT:       1.3      2.336      4.409
REMARK  Name = 28960603
REMARK  12 active torsions:
REMARK  status: ('A' for Active; 'I' for Inactive)
REMARK    1  A    between atoms: O_3  and  C_12
REMARK    2  A    between atoms: O_5  and  C_25
REMARK    3  A    between atoms: O_5  and  C_28
REMARK    4  A    between atoms: N_6  and  C_10
REMARK    5  A    between atoms: N_6  and  C_16
REMARK    6  A    between atoms: N_6  and  C_17
REMARK    7  A    between atoms: N_7  and  C_11
REMARK    8  A    between atoms: N_8  and  C_18
REMARK    9  A    between atoms: N_8  and  C_20
REMARK   10  A    between atoms: N_8  and  C_21
REMARK   11  A    between atoms: N_9  and  C_22
REMARK   12  A    between atoms: C_16  and  C_18
REMARK                            x       y       z     vdW  Elec       q    Type
REMARK                         _______ _______ _______ _____ _____    ______ ____
ROOT
ATOM      1  O   UNL     1      -4.000  -0.880  22.949  0.00  0.00    -0.342 OA
ATOM      2  O   UNL     1      -5.255  -1.817  24.660  0.00  0.00    -0.347 OA
ATOM     10  C   UNL     1      -4.116   0.277  25.061  0.00  0.00    +0.143 C 
ATOM     11  C   UNL     1      -2.214  -1.375  24.492  0.00  0.00    +0.136 C 
ATOM     12  C   UNL     1      -2.863  -0.476  25.565  0.00  0.00    +0.159 C 
ATOM     13  C   UNL     1      -3.233  -1.960  23.490  0.00  0.00    +0.170 C 
ATOM     14  C   UNL     1      -4.885  -0.576  24.037  0.00  0.00    +0.270 C 
ATOM     15  C   UNL     1      -4.332  -2.784  24.134  0.00  0.00    +0.196 C 
ENDROOT
BRANCH  11   7
ATOM      4  O   UNL     1       0.617  -1.558  24.885  0.00  0.00    -0.252 OA
ATOM      7  N   UNL     1      -1.192  -0.641  23.777  0.00  0.00    -0.291 N 
ATOM      9  N   UNL     1       0.917   0.042  23.194  0.00  0.00    -0.269 N 
ATOM     19  C   UNL     1       0.173  -0.791  24.034  0.00  0.00    +0.304 C 
ATOM     29  H   UNL     1      -1.485   0.071  23.114  0.00  0.00    +0.151 HD
ATOM     31  H   UNL     1       0.392   0.618  22.541  0.00  0.00    +0.156 HD
BRANCH   9  22
ATOM     22  C   UNL     1       2.323   0.187  23.139  0.00  0.00    +0.038 A 
ATOM     23  C   UNL     1       3.148  -0.858  23.555  0.00  0.00    +0.069 A 
ATOM     24  C   UNL     1       2.884   1.374  22.668  0.00  0.00    +0.023 A 
ATOM     25  C   UNL     1       4.535  -0.716  23.501  0.00  0.00    +0.122 A 
ATOM     26  C   UNL     1       4.270   1.516  22.614  0.00  0.00    +0.005 A 
ATOM     27  C   UNL     1       5.096   0.471  23.030  0.00  0.00    +0.046 A 
BRANCH  25   5
ATOM      5  O   UNL     1       5.340  -1.735  23.908  0.00  0.00    -0.495 OA
ATOM     28  C   UNL     1       6.554  -1.379  24.567  0.00  0.00    +0.277 C 
ENDBRANCH  25   5
ENDBRANCH   9  22
ENDBRANCH  11   7
BRANCH  12   3
ATOM      3  O   UNL     1      -3.262  -1.294  26.673  0.00  0.00    -0.388 OA
ATOM     30  H   UNL     1      -4.229  -1.241  26.745  0.00  0.00    +0.210 HD
ENDBRANCH  12   3
BRANCH  10   6
ATOM      6  N   UNL     1      -3.727   1.551  24.452  0.00  0.00    -0.295 NA
ATOM     17  C   UNL     1      -4.834   2.505  24.516  0.00  0.00    +0.105 C 
BRANCH   6  16
ATOM     16  C   UNL     1      -2.544   2.095  25.118  0.00  0.00    +0.100 C 
BRANCH  16  18
ATOM     18  C   UNL     1      -1.591   2.696  24.090  0.00  0.00    +0.099 C 
BRANCH  18   8
ATOM      8  N   UNL     1      -0.497   3.389  24.762  0.00  0.00    -0.307 NA
ATOM     20  C   UNL     1      -0.095   2.667  25.970  0.00  0.00    +0.104 C 
ATOM     21  C   UNL     1      -0.884   4.760  25.095  0.00  0.00    +0.104 C 
ENDBRANCH  18   8
ENDBRANCH  16  18
ENDBRANCH   6  16
ENDBRANCH  10   6
TORSDOF 8
ENDMDL
