MODEL 1
REMARK VINA RESULT:       0.5      0.000      0.000
REMARK  Name = 45361412
REMARK  15 active torsions:
REMARK  status: ('A' for Active; 'I' for Inactive)
REMARK    1  A    between atoms: O_1  and  C_9
REMARK    2  A    between atoms: N_4  and  C_13
REMARK    3  A    between atoms: N_5  and  C_24
REMARK    4  A    between atoms: N_5  and  C_25
REMARK    5  A    between atoms: C_6  and  C_16
REMARK    6  A    between atoms: C_8  and  C_18
REMARK    7  A    between atoms: C_12  and  C_17
REMARK    8  A    between atoms: C_17  and  C_19
REMARK    9  A    between atoms: C_17  and  C_20
REMARK   10  A    between atoms: C_21  and  C_22
REMARK   11  A    between atoms: C_22  and  C_23
REMARK   12  A    between atoms: C_23  and  C_26
REMARK   13  A    between atoms: C_23  and  C_27
REMARK   14  A    between atoms: C_23  and  C_28
REMARK   15  A    between atoms: C_24  and  C_29
REMARK                            x       y       z     vdW  Elec       q    Type
REMARK                         _______ _______ _______ _____ _____    ______ ____
ROOT
ATOM      6  C   UNL     1      -1.696  -1.077  25.189  0.00  0.00    -0.027 C 
ATOM      7  C   UNL     1      -1.732   0.168  24.243  0.00  0.00    +0.028 C 
ATOM      8  C   UNL     1      -0.288   0.746  24.024  0.00  0.00    +0.012 C 
ATOM      9  C   UNL     1      -2.801   1.200  24.708  0.00  0.00    +0.122 C 
ATOM     10  C   UNL     1      -3.114  -1.688  25.293  0.00  0.00    +0.007 C 
ATOM     11  C   UNL     1      -0.765  -2.149  24.577  0.00  0.00    +0.009 C 
ATOM     12  C   UNL     1      -4.194   0.560  24.910  0.00  0.00    +0.029 C 
ATOM     13  C   UNL     1       0.658  -0.361  23.479  0.00  0.00    +0.076 C 
ATOM     14  C   UNL     1      -4.155  -0.692  25.785  0.00  0.00    +0.007 C 
ATOM     15  C   UNL     1       0.645  -1.639  24.317  0.00  0.00    +0.023 C 
ATOM     16  C   UNL     1      -1.200  -0.726  26.615  0.00  0.00    +0.011 C 
ATOM     18  C   UNL     1      -0.246   1.958  23.078  0.00  0.00    +0.010 C 
ENDROOT
BRANCH  13   4
ATOM      3  O   UNL     1       2.317  -0.299  21.106  0.00  0.00    -0.276 OA
ATOM      4  N   UNL     1       2.025   0.106  23.375  0.00  0.00    -0.312 N 
ATOM     21  C   UNL     1       2.740   0.095  22.191  0.00  0.00    +0.214 C 
ATOM     35  H   UNL     1       2.481   0.419  24.226  0.00  0.00    +0.149 HD
BRANCH  21  22
ATOM     22  C   UNL     1       4.154   0.628  22.348  0.00  0.00    +0.102 C 
BRANCH  22  23
ATOM     23  C   UNL     1       5.051  -0.192  23.307  0.00  0.00    -0.029 C 
ATOM     26  C   UNL     1       5.326   0.669  24.555  0.00  0.00    +0.011 C 
ATOM     27  C   UNL     1       4.358  -1.489  23.754  0.00  0.00    +0.011 C 
ATOM     28  C   UNL     1       6.397  -0.536  22.648  0.00  0.00    +0.011 C 
ENDBRANCH  22  23
ENDBRANCH  21  22
ENDBRANCH  13   4
BRANCH   9   1
ATOM      1  O   UNL     1      -2.955   2.209  23.710  0.00  0.00    -0.391 OA
ATOM     36  H   UNL     1      -3.888   2.486  23.701  0.00  0.00    +0.210 HD
ENDBRANCH   9   1
BRANCH  12  17
ATOM     17  C   UNL     1      -5.200   1.561  25.493  0.00  0.00    +0.078 C 
ATOM     19  C   UNL     1      -6.565   0.886  25.635  0.00  0.00    +0.017 C 
BRANCH  17  20
ATOM      2  O   UNL     1      -5.920   2.730  23.531  0.00  0.00    -0.275 OA
ATOM      5  N   UNL     1      -4.619   3.952  25.003  0.00  0.00    -0.300 N 
ATOM     20  C   UNL     1      -5.288   2.794  24.591  0.00  0.00    +0.219 C 
ATOM     25  C   UNL     1      -4.664   5.139  24.156  0.00  0.00    +0.132 C 
BRANCH   5  24
ATOM     24  C   UNL     1      -3.881   4.122  26.252  0.00  0.00    +0.142 C 
BRANCH  24  29
ATOM     29  C   UNL     1      -2.397   4.024  26.046  0.00  0.00    -0.030 A 
ATOM     30  C   UNL     1      -1.664   3.043  26.713  0.00  0.00    +0.005 A 
ATOM     31  C   UNL     1      -1.752   4.914  25.187  0.00  0.00    +0.005 A 
ATOM     32  C   UNL     1      -0.284   2.951  26.521  0.00  0.00    +0.000 A 
ATOM     33  C   UNL     1      -0.373   4.822  24.994  0.00  0.00    +0.000 A 
ATOM     34  C   UNL     1       0.360   3.841  25.661  0.00  0.00    +0.000 A 
ENDBRANCH  24  29
ENDBRANCH   5  24
ENDBRANCH  17  20
ENDBRANCH  12  17
TORSDOF 8
ENDMDL
