MODEL 1
REMARK VINA RESULT:       0.8      0.000      0.000
REMARK  Name = 45783758
REMARK  6 active torsions:
REMARK  status: ('A' for Active; 'I' for Inactive)
REMARK    1  A    between atoms: S_1  and  C_21
REMARK    2  A    between atoms: S_1  and  C_25
REMARK    3  A    between atoms: N_5  and  C_15
REMARK    4  A    between atoms: C_11  and  C_16
REMARK    5  A    between atoms: C_15  and  C_17
REMARK    6  A    between atoms: C_20  and  C_24
REMARK                            x       y       z     vdW  Elec       q    Type
REMARK                         _______ _______ _______ _____ _____    ______ ____
ROOT
ATOM      5  N   UNL     1      -3.548   3.785  25.147  0.00  0.00    -0.287 NA
ATOM     11  C   UNL     1      -2.295   4.331  24.586  0.00  0.00    +0.146 C 
ATOM     12  C   UNL     1      -2.024   5.606  25.405  0.00  0.00    +0.030 C 
ATOM     13  C   UNL     1      -4.295   4.926  25.676  0.00  0.00    +0.085 C 
ATOM     14  C   UNL     1      -3.204   5.727  26.358  0.00  0.00    +0.017 C 
ENDROOT
BRANCH  11  16
ATOM      2  O   UNL     1      -0.787   2.912  25.883  0.00  0.00    -0.336 OA
ATOM      6  N   UNL     1      -0.442   2.831  23.672  0.00  0.00    -0.190 NA
ATOM      7  N   UNL     1       0.275   2.020  25.688  0.00  0.00    -0.056 NA
ATOM     16  C   UNL     1      -1.150   3.342  24.647  0.00  0.00    +0.245 A 
ATOM     20  C   UNL     1       0.419   2.026  24.359  0.00  0.00    +0.207 A 
BRANCH  20  24
ATOM      8  N   UNL     1       2.227  -0.860  22.832  0.00  0.00    -0.220 NA
ATOM      9  N   UNL     1       0.125  -0.783  23.917  0.00  0.00    -0.342 N 
ATOM     10  N   UNL     1       3.547   1.140  22.580  0.00  0.00    -0.243 NA
ATOM     24  C   UNL     1       1.412   1.238  23.687  0.00  0.00    +0.080 A 
ATOM     26  C   UNL     1       1.292  -0.118  23.463  0.00  0.00    +0.130 A 
ATOM     27  C   UNL     1       2.573   1.820  23.219  0.00  0.00    +0.127 A 
ATOM     28  C   UNL     1       3.312  -0.176  22.422  0.00  0.00    +0.223 A 
ATOM     29  H   UNL     1       0.071  -1.777  23.723  0.00  0.00    +0.144 HD
ATOM     30  H   UNL     1      -0.332  -0.451  24.756  0.00  0.00    +0.144 HD
ENDBRANCH  20  24
ENDBRANCH  11  16
BRANCH   5  15
ATOM     15  C   UNL     1      -4.325   3.021  24.180  0.00  0.00    +0.120 C 
BRANCH  15  17
ATOM     17  C   UNL     1      -4.025   1.547  24.258  0.00  0.00    -0.033 A 
ATOM     18  C   UNL     1      -3.365   0.914  23.205  0.00  0.00    +0.007 A 
ATOM     19  C   UNL     1      -4.406   0.817  25.384  0.00  0.00    +0.007 A 
ATOM     21  C   UNL     1      -3.468  -1.182  24.402  0.00  0.00    +0.088 A 
ATOM     22  C   UNL     1      -3.088  -0.451  23.278  0.00  0.00    +0.027 A 
ATOM     23  C   UNL     1      -4.128  -0.548  25.456  0.00  0.00    +0.027 A 
BRANCH  21   1
ATOM      1  S   UNL     1      -3.116  -2.890  24.494  0.00  0.00    -0.006 S 
ATOM      3  O   UNL     1      -1.821  -3.138  23.877  0.00  0.00    -0.170 OA
ATOM      4  O   UNL     1      -3.360  -3.325  25.862  0.00  0.00    -0.170 OA
ATOM     25  C   UNL     1      -4.340  -3.651  23.451  0.00  0.00    +0.200 C 
ENDBRANCH  21   1
ENDBRANCH  15  17
ENDBRANCH   5  15
TORSDOF 5
ENDMDL
MODEL 2
REMARK VINA RESULT:       1.5      2.360      5.230
REMARK  Name = 45783758
REMARK  6 active torsions:
REMARK  status: ('A' for Active; 'I' for Inactive)
REMARK    1  A    between atoms: S_1  and  C_21
REMARK    2  A    between atoms: S_1  and  C_25
REMARK    3  A    between atoms: N_5  and  C_15
REMARK    4  A    between atoms: C_11  and  C_16
REMARK    5  A    between atoms: C_15  and  C_17
REMARK    6  A    between atoms: C_20  and  C_24
REMARK                            x       y       z     vdW  Elec       q    Type
REMARK                         _______ _______ _______ _____ _____    ______ ____
ROOT
ATOM      5  N   UNL     1      -4.341  -1.284  23.836  0.00  0.00    -0.287 NA
ATOM     11  C   UNL     1      -3.443  -1.728  24.922  0.00  0.00    +0.146 C 
ATOM     12  C   UNL     1      -3.349  -3.255  24.752  0.00  0.00    +0.030 C 
ATOM     13  C   UNL     1      -5.231  -2.409  23.551  0.00  0.00    +0.085 C 
ATOM     14  C   UNL     1      -4.274  -3.584  23.588  0.00  0.00    +0.017 C 
ENDROOT
BRANCH  11  16
ATOM      2  O   UNL     1      -1.678  -0.431  26.007  0.00  0.00    -0.336 OA
ATOM      6  N   UNL     1      -1.239  -0.967  23.878  0.00  0.00    -0.190 NA
ATOM      7  N   UNL     1      -0.420   0.114  25.721  0.00  0.00    -0.056 NA
ATOM     16  C   UNL     1      -2.089  -1.051  24.870  0.00  0.00    +0.245 A 
ATOM     20  C   UNL     1      -0.232  -0.245  24.447  0.00  0.00    +0.207 A 
BRANCH  20  24
ATOM      8  N   UNL     1       2.737   1.625  23.175  0.00  0.00    -0.220 NA
ATOM      9  N   UNL     1       1.122   2.251  24.787  0.00  0.00    -0.342 N 
ATOM     10  N   UNL     1       2.606  -0.516  22.078  0.00  0.00    -0.243 NA
ATOM     24  C   UNL     1       0.953   0.102  23.715  0.00  0.00    +0.080 A 
ATOM     26  C   UNL     1       1.622   1.299  23.863  0.00  0.00    +0.130 A 
ATOM     27  C   UNL     1       1.496  -0.777  22.800  0.00  0.00    +0.127 A 
ATOM     28  C   UNL     1       3.167   0.685  22.313  0.00  0.00    +0.223 A 
ATOM     29  H   UNL     1       1.649   3.112  24.873  0.00  0.00    +0.144 HD
ATOM     30  H   UNL     1       0.124   2.301  24.944  0.00  0.00    +0.144 HD
ENDBRANCH  20  24
ENDBRANCH  11  16
BRANCH   5  15
ATOM     15  C   UNL     1      -5.079  -0.071  24.162  0.00  0.00    +0.120 C 
BRANCH  15  17
ATOM     17  C   UNL     1      -4.161   1.107  24.363  0.00  0.00    -0.033 A 
ATOM     18  C   UNL     1      -4.254   1.873  25.525  0.00  0.00    +0.007 A 
ATOM     19  C   UNL     1      -3.217   1.429  23.388  0.00  0.00    +0.007 A 
ATOM     21  C   UNL     1      -2.460   3.286  24.736  0.00  0.00    +0.088 A 
ATOM     22  C   UNL     1      -3.404   2.963  25.710  0.00  0.00    +0.027 A 
ATOM     23  C   UNL     1      -2.367   2.519  23.574  0.00  0.00    +0.027 A 
BRANCH  21   1
ATOM      1  S   UNL     1      -1.394   4.648  24.972  0.00  0.00    -0.006 S 
ATOM      3  O   UNL     1      -2.196   5.849  25.160  0.00  0.00    -0.170 OA
ATOM      4  O   UNL     1      -0.405   4.275  25.974  0.00  0.00    -0.170 OA
ATOM     25  C   UNL     1      -0.553   4.827  23.414  0.00  0.00    +0.200 C 
ENDBRANCH  21   1
ENDBRANCH  15  17
ENDBRANCH   5  15
TORSDOF 5
ENDMDL
MODEL 3
REMARK VINA RESULT:       2.1      2.841      4.945
REMARK  Name = 45783758
REMARK  6 active torsions:
REMARK  status: ('A' for Active; 'I' for Inactive)
REMARK    1  A    between atoms: S_1  and  C_21
REMARK    2  A    between atoms: S_1  and  C_25
REMARK    3  A    between atoms: N_5  and  C_15
REMARK    4  A    between atoms: C_11  and  C_16
REMARK    5  A    between atoms: C_15  and  C_17
REMARK    6  A    between atoms: C_20  and  C_24
REMARK                            x       y       z     vdW  Elec       q    Type
REMARK                         _______ _______ _______ _____ _____    ______ ____
ROOT
ATOM      5  N   UNL     1      -3.728   4.198  25.186  0.00  0.00    -0.287 NA
ATOM     11  C   UNL     1      -4.696   3.341  25.900  0.00  0.00    +0.146 C 
ATOM     12  C   UNL     1      -6.058   4.025  25.683  0.00  0.00    +0.030 C 
ATOM     13  C   UNL     1      -4.287   5.550  25.196  0.00  0.00    +0.085 C 
ATOM     14  C   UNL     1      -5.748   5.287  24.890  0.00  0.00    +0.017 C 
ENDROOT
BRANCH  11  16
ATOM      2  O   UNL     1      -5.846   1.420  24.921  0.00  0.00    -0.336 OA
ATOM      6  N   UNL     1      -3.687   1.051  25.389  0.00  0.00    -0.190 NA
ATOM      7  N   UNL     1      -5.586   0.099  24.537  0.00  0.00    -0.056 NA
ATOM     16  C   UNL     1      -4.676   1.908  25.411  0.00  0.00    +0.245 A 
ATOM     20  C   UNL     1      -4.293  -0.044  24.845  0.00  0.00    +0.207 A 
BRANCH  20  24
ATOM      8  N   UNL     1      -1.663  -2.690  24.948  0.00  0.00    -0.220 NA
ATOM      9  N   UNL     1      -1.726  -0.566  25.990  0.00  0.00    -0.342 N 
ATOM     10  N   UNL     1      -3.495  -3.431  23.569  0.00  0.00    -0.243 NA
ATOM     24  C   UNL     1      -3.576  -1.267  24.619  0.00  0.00    +0.080 A 
ATOM     26  C   UNL     1      -2.337  -1.540  25.161  0.00  0.00    +0.130 A 
ATOM     27  C   UNL     1      -4.113  -2.259  23.823  0.00  0.00    +0.127 A 
ATOM     28  C   UNL     1      -2.292  -3.578  24.155  0.00  0.00    +0.223 A 
ATOM     29  H   UNL     1      -0.821  -0.811  26.376  0.00  0.00    +0.144 HD
ATOM     30  H   UNL     1      -1.900   0.413  25.803  0.00  0.00    +0.144 HD
ENDBRANCH  20  24
ENDBRANCH  11  16
BRANCH   5  15
ATOM     15  C   UNL     1      -2.389   4.155  25.761  0.00  0.00    +0.120 C 
BRANCH  15  17
ATOM     17  C   UNL     1      -1.520   3.130  25.080  0.00  0.00    -0.033 A 
ATOM     18  C   UNL     1      -0.361   2.673  25.706  0.00  0.00    +0.007 A 
ATOM     19  C   UNL     1      -1.875   2.638  23.824  0.00  0.00    +0.007 A 
ATOM     21  C   UNL     1       0.090   1.232  23.820  0.00  0.00    +0.088 A 
ATOM     22  C   UNL     1       0.444   1.724  25.076  0.00  0.00    +0.027 A 
ATOM     23  C   UNL     1      -1.070   1.689  23.194  0.00  0.00    +0.027 A 
BRANCH  21   1
ATOM      1  S   UNL     1       1.095   0.041  23.034  0.00  0.00    -0.006 S 
ATOM      3  O   UNL     1       1.227  -1.116  23.908  0.00  0.00    -0.170 OA
ATOM      4  O   UNL     1       0.605  -0.133  21.674  0.00  0.00    -0.170 OA
ATOM     25  C   UNL     1       2.699   0.806  22.944  0.00  0.00    +0.200 C 
ENDBRANCH  21   1
ENDBRANCH  15  17
ENDBRANCH   5  15
TORSDOF 5
ENDMDL
MODEL 4
REMARK VINA RESULT:       3.4      2.918      4.813
REMARK  Name = 45783758
REMARK  6 active torsions:
REMARK  status: ('A' for Active; 'I' for Inactive)
REMARK    1  A    between atoms: S_1  and  C_21
REMARK    2  A    between atoms: S_1  and  C_25
REMARK    3  A    between atoms: N_5  and  C_15
REMARK    4  A    between atoms: C_11  and  C_16
REMARK    5  A    between atoms: C_15  and  C_17
REMARK    6  A    between atoms: C_20  and  C_24
REMARK                            x       y       z     vdW  Elec       q    Type
REMARK                         _______ _______ _______ _____ _____    ______ ____
ROOT
ATOM      5  N   UNL     1      -3.824   4.138  25.303  0.00  0.00    -0.287 NA
ATOM     11  C   UNL     1      -4.670   3.154  26.007  0.00  0.00    +0.146 C 
ATOM     12  C   UNL     1      -6.105   3.690  25.852  0.00  0.00    +0.030 C 
ATOM     13  C   UNL     1      -4.527   5.418  25.381  0.00  0.00    +0.085 C 
ATOM     14  C   UNL     1      -5.959   5.006  25.102  0.00  0.00    +0.017 C 
ENDROOT
BRANCH  11  16
ATOM      2  O   UNL     1      -5.565   1.244  24.773  0.00  0.00    -0.336 OA
ATOM      6  N   UNL     1      -3.489   0.935  25.554  0.00  0.00    -0.190 NA
ATOM      7  N   UNL     1      -5.187  -0.044  24.374  0.00  0.00    -0.056 NA
ATOM     16  C   UNL     1      -4.509   1.751  25.461  0.00  0.00    +0.245 A 
ATOM     20  C   UNL     1      -3.951  -0.152  24.872  0.00  0.00    +0.207 A 
BRANCH  20  24
ATOM      8  N   UNL     1      -2.841  -3.582  23.905  0.00  0.00    -0.220 NA
ATOM      9  N   UNL     1      -4.907  -2.490  23.532  0.00  0.00    -0.342 N 
ATOM     10  N   UNL     1      -1.057  -2.459  25.074  0.00  0.00    -0.243 NA
ATOM     24  C   UNL     1      -3.152  -1.332  24.705  0.00  0.00    +0.080 A 
ATOM     26  C   UNL     1      -3.592  -2.471  24.062  0.00  0.00    +0.130 A 
ATOM     27  C   UNL     1      -1.863  -1.384  25.195  0.00  0.00    +0.127 A 
ATOM     28  C   UNL     1      -1.602  -3.507  24.427  0.00  0.00    +0.223 A 
ATOM     29  H   UNL     1      -5.187  -3.341  23.059  0.00  0.00    +0.144 HD
ATOM     30  H   UNL     1      -5.631  -1.963  24.002  0.00  0.00    +0.144 HD
ENDBRANCH  20  24
ENDBRANCH  11  16
BRANCH   5  15
ATOM     15  C   UNL     1      -2.472   4.222  25.841  0.00  0.00    +0.120 C 
BRANCH  15  17
ATOM     17  C   UNL     1      -1.535   3.264  25.154  0.00  0.00    -0.033 A 
ATOM     18  C   UNL     1      -1.748   2.914  23.822  0.00  0.00    +0.007 A 
ATOM     19  C   UNL     1      -0.451   2.729  25.851  0.00  0.00    +0.007 A 
ATOM     21  C   UNL     1       0.203   1.491  23.882  0.00  0.00    +0.088 A 
ATOM     22  C   UNL     1      -0.880   2.026  23.186  0.00  0.00    +0.027 A 
ATOM     23  C   UNL     1       0.418   1.842  25.216  0.00  0.00    +0.027 A 
BRANCH  21   1
ATOM      1  S   UNL     1       1.292   0.384  23.085  0.00  0.00    -0.006 S 
ATOM      3  O   UNL     1       0.672  -0.083  21.852  0.00  0.00    -0.170 OA
ATOM      4  O   UNL     1       2.609   1.004  23.041  0.00  0.00    -0.170 OA
ATOM     25  C   UNL     1       1.382  -1.015  24.180  0.00  0.00    +0.200 C 
ENDBRANCH  21   1
ENDBRANCH  15  17
ENDBRANCH   5  15
TORSDOF 5
ENDMDL
MODEL 5
REMARK VINA RESULT:       3.5      2.793      7.184
REMARK  Name = 45783758
REMARK  6 active torsions:
REMARK  status: ('A' for Active; 'I' for Inactive)
REMARK    1  A    between atoms: S_1  and  C_21
REMARK    2  A    between atoms: S_1  and  C_25
REMARK    3  A    between atoms: N_5  and  C_15
REMARK    4  A    between atoms: C_11  and  C_16
REMARK    5  A    between atoms: C_15  and  C_17
REMARK    6  A    between atoms: C_20  and  C_24
REMARK                            x       y       z     vdW  Elec       q    Type
REMARK                         _______ _______ _______ _____ _____    ______ ____
ROOT
ATOM      5  N   UNL     1      -0.336  -1.405  24.872  0.00  0.00    -0.287 NA
ATOM     11  C   UNL     1      -1.472  -2.017  24.153  0.00  0.00    +0.146 C 
ATOM     12  C   UNL     1      -1.585  -3.436  24.738  0.00  0.00    +0.030 C 
ATOM     13  C   UNL     1       0.550  -2.504  25.256  0.00  0.00    +0.085 C 
ATOM     14  C   UNL     1      -0.437  -3.551  25.731  0.00  0.00    +0.017 C 
ENDROOT
BRANCH  11  16
ATOM      2  O   UNL     1      -3.883  -1.798  23.820  0.00  0.00    -0.336 OA
ATOM      6  N   UNL     1      -2.936  -0.036  24.828  0.00  0.00    -0.190 NA
ATOM      7  N   UNL     1      -4.918  -0.887  24.065  0.00  0.00    -0.056 NA
ATOM     16  C   UNL     1      -2.751  -1.220  24.301  0.00  0.00    +0.245 A 
ATOM     20  C   UNL     1      -4.280   0.125  24.661  0.00  0.00    +0.207 A 
BRANCH  20  24
ATOM      8  N   UNL     1      -5.527   3.637  24.861  0.00  0.00    -0.220 NA
ATOM      9  N   UNL     1      -4.111   2.614  23.264  0.00  0.00    -0.342 N 
ATOM     10  N   UNL     1      -6.396   2.369  26.716  0.00  0.00    -0.243 NA
ATOM     24  C   UNL     1      -4.957   1.311  25.103  0.00  0.00    +0.080 A 
ATOM     26  C   UNL     1      -4.890   2.522  24.445  0.00  0.00    +0.130 A 
ATOM     27  C   UNL     1      -5.733   1.293  26.244  0.00  0.00    +0.127 A 
ATOM     28  C   UNL     1      -6.251   3.491  25.986  0.00  0.00    +0.223 A 
ATOM     29  H   UNL     1      -4.097   3.518  22.806  0.00  0.00    +0.144 HD
ATOM     30  H   UNL     1      -3.283   2.039  23.179  0.00  0.00    +0.144 HD
ENDBRANCH  20  24
ENDBRANCH  11  16
BRANCH   5  15
ATOM     15  C   UNL     1       0.358  -0.390  24.090  0.00  0.00    +0.120 C 
BRANCH  15  17
ATOM     17  C   UNL     1      -0.224   0.982  24.309  0.00  0.00    -0.033 A 
ATOM     18  C   UNL     1      -0.680   1.728  23.223  0.00  0.00    +0.007 A 
ATOM     19  C   UNL     1      -0.308   1.505  25.600  0.00  0.00    +0.007 A 
ATOM     21  C   UNL     1      -1.304   3.522  24.716  0.00  0.00    +0.088 A 
ATOM     22  C   UNL     1      -1.219   2.998  23.427  0.00  0.00    +0.027 A 
ATOM     23  C   UNL     1      -0.848   2.776  25.803  0.00  0.00    +0.027 A 
BRANCH  21   1
ATOM      1  S   UNL     1      -1.982   5.110  24.971  0.00  0.00    -0.006 S 
ATOM      3  O   UNL     1      -0.897   6.059  25.182  0.00  0.00    -0.170 OA
ATOM      4  O   UNL     1      -2.960   5.353  23.919  0.00  0.00    -0.170 OA
ATOM     25  C   UNL     1      -2.859   4.975  26.513  0.00  0.00    +0.200 C 
ENDBRANCH  21   1
ENDBRANCH  15  17
ENDBRANCH   5  15
TORSDOF 5
ENDMDL
MODEL 6
REMARK VINA RESULT:       3.5      1.336      1.908
REMARK  Name = 45783758
REMARK  6 active torsions:
REMARK  status: ('A' for Active; 'I' for Inactive)
REMARK    1  A    between atoms: S_1  and  C_21
REMARK    2  A    between atoms: S_1  and  C_25
REMARK    3  A    between atoms: N_5  and  C_15
REMARK    4  A    between atoms: C_11  and  C_16
REMARK    5  A    between atoms: C_15  and  C_17
REMARK    6  A    between atoms: C_20  and  C_24
REMARK                            x       y       z     vdW  Elec       q    Type
REMARK                         _______ _______ _______ _____ _____    ______ ____
ROOT
ATOM      5  N   UNL     1      -4.923   3.001  25.231  0.00  0.00    -0.287 NA
ATOM     11  C   UNL     1      -3.946   3.621  24.313  0.00  0.00    +0.146 C 
ATOM     12  C   UNL     1      -3.981   5.121  24.661  0.00  0.00    +0.030 C 
ATOM     13  C   UNL     1      -5.917   4.031  25.533  0.00  0.00    +0.085 C 
ATOM     14  C   UNL     1      -5.047   5.255  25.738  0.00  0.00    +0.017 C 
ENDROOT
BRANCH  11  16
ATOM      2  O   UNL     1      -1.962   3.146  25.658  0.00  0.00    -0.336 OA
ATOM      6  N   UNL     1      -1.839   2.395  23.553  0.00  0.00    -0.190 NA
ATOM      7  N   UNL     1      -0.711   2.528  25.539  0.00  0.00    -0.056 NA
ATOM     16  C   UNL     1      -2.562   3.023  24.445  0.00  0.00    +0.245 A 
ATOM     20  C   UNL     1      -0.714   2.111  24.269  0.00  0.00    +0.207 A 
BRANCH  20  24
ATOM      8  N   UNL     1       1.299  -0.409  22.390  0.00  0.00    -0.220 NA
ATOM      9  N   UNL     1      -1.040  -0.270  22.721  0.00  0.00    -0.342 N 
ATOM     10  N   UNL     1       2.769   1.247  23.339  0.00  0.00    -0.243 NA
ATOM     24  C   UNL     1       0.392   1.405  23.687  0.00  0.00    +0.080 A 
ATOM     26  C   UNL     1       0.258   0.255  22.937  0.00  0.00    +0.130 A 
ATOM     27  C   UNL     1       1.684   1.860  23.857  0.00  0.00    +0.127 A 
ATOM     28  C   UNL     1       2.507   0.135  22.627  0.00  0.00    +0.223 A 
ATOM     29  H   UNL     1      -1.096  -1.110  22.155  0.00  0.00    +0.144 HD
ATOM     30  H   UNL     1      -1.742  -0.149  23.439  0.00  0.00    +0.144 HD
ENDBRANCH  20  24
ENDBRANCH  11  16
BRANCH   5  15
ATOM     15  C   UNL     1      -5.533   1.793  24.689  0.00  0.00    +0.120 C 
BRANCH  15  17
ATOM     17  C   UNL     1      -4.591   0.619  24.738  0.00  0.00    -0.033 A 
ATOM     18  C   UNL     1      -3.694   0.489  25.797  0.00  0.00    +0.007 A 
ATOM     19  C   UNL     1      -4.619  -0.340  23.725  0.00  0.00    +0.007 A 
ATOM     21  C   UNL     1      -2.849  -1.558  24.830  0.00  0.00    +0.088 A 
ATOM     22  C   UNL     1      -2.822  -0.599  25.843  0.00  0.00    +0.027 A 
ATOM     23  C   UNL     1      -3.747  -1.428  23.771  0.00  0.00    +0.027 A 
BRANCH  21   1
ATOM      1  S   UNL     1      -1.761  -2.921  24.891  0.00  0.00    -0.006 S 
ATOM      3  O   UNL     1      -2.267  -3.887  25.857  0.00  0.00    -0.170 OA
ATOM      4  O   UNL     1      -1.493  -3.342  23.522  0.00  0.00    -0.170 OA
ATOM     25  C   UNL     1      -0.255  -2.257  25.564  0.00  0.00    +0.200 C 
ENDBRANCH  21   1
ENDBRANCH  15  17
ENDBRANCH   5  15
TORSDOF 5
ENDMDL
MODEL 7
REMARK VINA RESULT:       3.5      3.106      6.940
REMARK  Name = 45783758
REMARK  6 active torsions:
REMARK  status: ('A' for Active; 'I' for Inactive)
REMARK    1  A    between atoms: S_1  and  C_21
REMARK    2  A    between atoms: S_1  and  C_25
REMARK    3  A    between atoms: N_5  and  C_15
REMARK    4  A    between atoms: C_11  and  C_16
REMARK    5  A    between atoms: C_15  and  C_17
REMARK    6  A    between atoms: C_20  and  C_24
REMARK                            x       y       z     vdW  Elec       q    Type
REMARK                         _______ _______ _______ _____ _____    ______ ____
ROOT
ATOM      5  N   UNL     1      -2.534  -2.894  24.219  0.00  0.00    -0.287 NA
ATOM     11  C   UNL     1      -3.461  -2.040  23.449  0.00  0.00    +0.146 C 
ATOM     12  C   UNL     1      -4.641  -2.965  23.098  0.00  0.00    +0.030 C 
ATOM     13  C   UNL     1      -2.749  -4.263  23.752  0.00  0.00    +0.085 C 
ATOM     14  C   UNL     1      -4.260  -4.328  23.657  0.00  0.00    +0.017 C 
ENDROOT
BRANCH  11  16
ATOM      2  O   UNL     1      -4.248  -0.999  25.516  0.00  0.00    -0.336 OA
ATOM      6  N   UNL     1      -3.979   0.434  23.816  0.00  0.00    -0.190 NA
ATOM      7  N   UNL     1      -4.604   0.262  26.010  0.00  0.00    -0.056 NA
ATOM     16  C   UNL     1      -3.892  -0.809  24.218  0.00  0.00    +0.245 A 
ATOM     20  C   UNL     1      -4.419   1.053  24.949  0.00  0.00    +0.207 A 
BRANCH  20  24
ATOM      8  N   UNL     1      -5.864   4.385  25.807  0.00  0.00    -0.220 NA
ATOM      9  N   UNL     1      -6.446   2.228  26.587  0.00  0.00    -0.342 N 
ATOM     10  N   UNL     1      -4.085   4.669  24.208  0.00  0.00    -0.243 NA
ATOM     24  C   UNL     1      -4.662   2.467  24.988  0.00  0.00    +0.080 A 
ATOM     26  C   UNL     1      -5.635   3.055  25.771  0.00  0.00    +0.130 A 
ATOM     27  C   UNL     1      -3.910   3.332  24.220  0.00  0.00    +0.127 A 
ATOM     28  C   UNL     1      -5.064   5.121  25.013  0.00  0.00    +0.223 A 
ATOM     29  H   UNL     1      -7.141   2.700  27.154  0.00  0.00    +0.144 HD
ATOM     30  H   UNL     1      -6.667   1.293  26.268  0.00  0.00    +0.144 HD
ENDBRANCH  20  24
ENDBRANCH  11  16
BRANCH   5  15
ATOM     15  C   UNL     1      -1.140  -2.485  24.094  0.00  0.00    +0.120 C 
BRANCH  15  17
ATOM     17  C   UNL     1      -0.935  -1.054  24.517  0.00  0.00    -0.033 A 
ATOM     18  C   UNL     1      -0.543  -0.099  23.581  0.00  0.00    +0.007 A 
ATOM     19  C   UNL     1      -1.140  -0.685  25.847  0.00  0.00    +0.007 A 
ATOM     21  C   UNL     1      -0.557   1.596  25.302  0.00  0.00    +0.088 A 
ATOM     22  C   UNL     1      -0.353   1.226  23.974  0.00  0.00    +0.027 A 
ATOM     23  C   UNL     1      -0.951   0.640  26.240  0.00  0.00    +0.027 A 
BRANCH  21   1
ATOM      1  S   UNL     1      -0.324   3.255  25.792  0.00  0.00    -0.006 S 
ATOM      3  O   UNL     1      -1.543   3.735  26.427  0.00  0.00    -0.170 OA
ATOM      4  O   UNL     1       0.943   3.338  26.506  0.00  0.00    -0.170 OA
ATOM     25  C   UNL     1      -0.150   4.148  24.263  0.00  0.00    +0.200 C 
ENDBRANCH  21   1
ENDBRANCH  15  17
ENDBRANCH   5  15
TORSDOF 5
ENDMDL
MODEL 8
REMARK VINA RESULT:       4.2      1.377      2.118
REMARK  Name = 45783758
REMARK  6 active torsions:
REMARK  status: ('A' for Active; 'I' for Inactive)
REMARK    1  A    between atoms: S_1  and  C_21
REMARK    2  A    between atoms: S_1  and  C_25
REMARK    3  A    between atoms: N_5  and  C_15
REMARK    4  A    between atoms: C_11  and  C_16
REMARK    5  A    between atoms: C_15  and  C_17
REMARK    6  A    between atoms: C_20  and  C_24
REMARK                            x       y       z     vdW  Elec       q    Type
REMARK                         _______ _______ _______ _____ _____    ______ ____
ROOT
ATOM      5  N   UNL     1      -2.079   3.736  25.099  0.00  0.00    -0.287 NA
ATOM     11  C   UNL     1      -1.400   3.761  23.788  0.00  0.00    +0.146 C 
ATOM     12  C   UNL     1      -0.507   5.015  23.835  0.00  0.00    +0.030 C 
ATOM     13  C   UNL     1      -2.169   5.127  25.544  0.00  0.00    +0.085 C 
ATOM     14  C   UNL     1      -0.798   5.661  25.182  0.00  0.00    +0.017 C 
ENDROOT
BRANCH  11  16
ATOM      2  O   UNL     1      -1.279   1.498  22.874  0.00  0.00    -0.336 OA
ATOM      6  N   UNL     1       0.628   2.208  23.809  0.00  0.00    -0.190 NA
ATOM      7  N   UNL     1      -0.364   0.447  22.737  0.00  0.00    -0.056 NA
ATOM     16  C   UNL     1      -0.615   2.495  23.515  0.00  0.00    +0.245 A 
ATOM     20  C   UNL     1       0.736   0.942  23.312  0.00  0.00    +0.207 A 
BRANCH  20  24
ATOM      8  N   UNL     1       4.353   0.029  23.211  0.00  0.00    -0.220 NA
ATOM      9  N   UNL     1       3.289   2.084  22.719  0.00  0.00    -0.342 N 
ATOM     10  N   UNL     1       3.060  -1.883  23.903  0.00  0.00    -0.243 NA
ATOM     24  C   UNL     1       1.960   0.198  23.406  0.00  0.00    +0.080 A 
ATOM     26  C   UNL     1       3.202   0.729  23.124  0.00  0.00    +0.130 A 
ATOM     27  C   UNL     1       1.949  -1.126  23.795  0.00  0.00    +0.127 A 
ATOM     28  C   UNL     1       4.211  -1.252  23.601  0.00  0.00    +0.223 A 
ATOM     29  H   UNL     1       4.221   2.437  22.532  0.00  0.00    +0.144 HD
ATOM     30  H   UNL     1       2.527   2.485  22.187  0.00  0.00    +0.144 HD
ENDBRANCH  20  24
ENDBRANCH  11  16
BRANCH   5  15
ATOM     15  C   UNL     1      -3.385   3.090  25.056  0.00  0.00    +0.120 C 
BRANCH  15  17
ATOM     17  C   UNL     1      -3.266   1.593  24.943  0.00  0.00    -0.033 A 
ATOM     18  C   UNL     1      -2.319   0.909  25.706  0.00  0.00    +0.007 A 
ATOM     19  C   UNL     1      -4.104   0.890  24.077  0.00  0.00    +0.007 A 
ATOM     21  C   UNL     1      -3.046  -1.180  24.735  0.00  0.00    +0.088 A 
ATOM     22  C   UNL     1      -2.210  -0.478  25.601  0.00  0.00    +0.027 A 
ATOM     23  C   UNL     1      -3.994  -0.497  23.972  0.00  0.00    +0.027 A 
BRANCH  21   1
ATOM      1  S   UNL     1      -2.911  -2.916  24.608  0.00  0.00    -0.006 S 
ATOM      3  O   UNL     1      -1.673  -3.244  23.915  0.00  0.00    -0.170 OA
ATOM      4  O   UNL     1      -3.175  -3.484  25.923  0.00  0.00    -0.170 OA
ATOM     25  C   UNL     1      -4.246  -3.387  23.531  0.00  0.00    +0.200 C 
ENDBRANCH  21   1
ENDBRANCH  15  17
ENDBRANCH   5  15
TORSDOF 5
ENDMDL
MODEL 9
REMARK VINA RESULT:       4.5      2.405      5.637
REMARK  Name = 45783758
REMARK  6 active torsions:
REMARK  status: ('A' for Active; 'I' for Inactive)
REMARK    1  A    between atoms: S_1  and  C_21
REMARK    2  A    between atoms: S_1  and  C_25
REMARK    3  A    between atoms: N_5  and  C_15
REMARK    4  A    between atoms: C_11  and  C_16
REMARK    5  A    between atoms: C_15  and  C_17
REMARK    6  A    between atoms: C_20  and  C_24
REMARK                            x       y       z     vdW  Elec       q    Type
REMARK                         _______ _______ _______ _____ _____    ______ ____
ROOT
ATOM      5  N   UNL     1      -0.164  -0.528  22.916  0.00  0.00    -0.287 NA
ATOM     11  C   UNL     1       0.854  -0.057  23.877  0.00  0.00    +0.146 C 
ATOM     12  C   UNL     1       2.111   0.190  23.023  0.00  0.00    +0.030 C 
ATOM     13  C   UNL     1       0.564  -1.180  21.828  0.00  0.00    +0.085 C 
ATOM     14  C   UNL     1       1.722  -0.227  21.612  0.00  0.00    +0.017 C 
ENDROOT
BRANCH  11  16
ATOM      2  O   UNL     1       1.231   1.599  25.634  0.00  0.00    -0.336 OA
ATOM      6  N   UNL     1      -0.660   1.911  24.475  0.00  0.00    -0.190 NA
ATOM      7  N   UNL     1       0.623   2.736  26.181  0.00  0.00    -0.056 NA
ATOM     16  C   UNL     1       0.412   1.177  24.635  0.00  0.00    +0.245 A 
ATOM     20  C   UNL     1      -0.486   2.855  25.445  0.00  0.00    +0.207 A 
BRANCH  20  24
ATOM      8  N   UNL     1      -2.264   6.130  25.236  0.00  0.00    -0.220 NA
ATOM      9  N   UNL     1      -0.290   5.399  24.155  0.00  0.00    -0.342 N 
ATOM     10  N   UNL     1      -3.447   4.668  26.742  0.00  0.00    -0.243 NA
ATOM     24  C   UNL     1      -1.441   3.906  25.652  0.00  0.00    +0.080 A 
ATOM     26  C   UNL     1      -1.366   5.141  25.041  0.00  0.00    +0.130 A 
ATOM     27  C   UNL     1      -2.514   3.724  26.501  0.00  0.00    +0.127 A 
ATOM     28  C   UNL     1      -3.264   5.829  26.086  0.00  0.00    +0.223 A 
ATOM     29  H   UNL     1      -0.277   6.314  23.719  0.00  0.00    +0.144 HD
ATOM     30  H   UNL     1       0.604   4.958  24.331  0.00  0.00    +0.144 HD
ENDBRANCH  20  24
ENDBRANCH  11  16
BRANCH   5  15
ATOM     15  C   UNL     1      -1.156  -1.410  23.518  0.00  0.00    +0.120 C 
BRANCH  15  17
ATOM     17  C   UNL     1      -2.369  -0.652  23.991  0.00  0.00    -0.033 A 
ATOM     18  C   UNL     1      -2.873   0.401  23.229  0.00  0.00    +0.007 A 
ATOM     19  C   UNL     1      -2.988  -1.005  25.190  0.00  0.00    +0.007 A 
ATOM     21  C   UNL     1      -4.615   0.751  24.865  0.00  0.00    +0.088 A 
ATOM     22  C   UNL     1      -3.996   1.103  23.667  0.00  0.00    +0.027 A 
ATOM     23  C   UNL     1      -4.111  -0.303  25.628  0.00  0.00    +0.027 A 
BRANCH  21   1
ATOM      1  S   UNL     1      -6.023   1.627  25.410  0.00  0.00    -0.006 S 
ATOM      3  O   UNL     1      -7.087   1.469  24.428  0.00  0.00    -0.170 OA
ATOM      4  O   UNL     1      -6.265   1.268  26.801  0.00  0.00    -0.170 OA
ATOM     25  C   UNL     1      -5.528   3.335  25.364  0.00  0.00    +0.200 C 
ENDBRANCH  21   1
ENDBRANCH  15  17
ENDBRANCH   5  15
TORSDOF 5
ENDMDL
MODEL 10
REMARK VINA RESULT:       4.6      2.751      5.608
REMARK  Name = 45783758
REMARK  6 active torsions:
REMARK  status: ('A' for Active; 'I' for Inactive)
REMARK    1  A    between atoms: S_1  and  C_21
REMARK    2  A    between atoms: S_1  and  C_25
REMARK    3  A    between atoms: N_5  and  C_15
REMARK    4  A    between atoms: C_11  and  C_16
REMARK    5  A    between atoms: C_15  and  C_17
REMARK    6  A    between atoms: C_20  and  C_24
REMARK                            x       y       z     vdW  Elec       q    Type
REMARK                         _______ _______ _______ _____ _____    ______ ____
ROOT
ATOM      5  N   UNL     1      -2.780  -2.064  23.966  0.00  0.00    -0.287 NA
ATOM     11  C   UNL     1      -1.976  -1.985  25.203  0.00  0.00    +0.146 C 
ATOM     12  C   UNL     1      -0.821  -2.979  24.982  0.00  0.00    +0.030 C 
ATOM     13  C   UNL     1      -2.584  -3.411  23.432  0.00  0.00    +0.085 C 
ATOM     14  C   UNL     1      -1.095  -3.612  23.625  0.00  0.00    +0.017 C 
ENDROOT
BRANCH  11  16
ATOM      2  O   UNL     1      -0.951  -0.367  26.721  0.00  0.00    -0.336 OA
ATOM      6  N   UNL     1      -1.511   0.481  24.725  0.00  0.00    -0.190 NA
ATOM      7  N   UNL     1      -0.581   0.983  26.754  0.00  0.00    -0.056 NA
ATOM     16  C   UNL     1      -1.489  -0.580  25.492  0.00  0.00    +0.245 A 
ATOM     20  C   UNL     1      -0.943   1.414  25.542  0.00  0.00    +0.207 A 
BRANCH  20  24
ATOM      8  N   UNL     1       0.290   4.417  23.701  0.00  0.00    -0.220 NA
ATOM      9  N   UNL     1       0.848   2.133  23.433  0.00  0.00    -0.342 N 
ATOM     10  N   UNL     1      -1.305   5.099  25.373  0.00  0.00    -0.243 NA
ATOM     24  C   UNL     1      -0.750   2.771  25.116  0.00  0.00    +0.080 A 
ATOM     26  C   UNL     1       0.108   3.141  24.101  0.00  0.00    +0.130 A 
ATOM     27  C   UNL     1      -1.438   3.803  25.722  0.00  0.00    +0.127 A 
ATOM     28  C   UNL     1      -0.438   5.331  24.370  0.00  0.00    +0.223 A 
ATOM     29  H   UNL     1       1.458   2.446  22.687  0.00  0.00    +0.144 HD
ATOM     30  H   UNL     1       1.133   1.312  23.950  0.00  0.00    +0.144 HD
ENDBRANCH  20  24
ENDBRANCH  11  16
BRANCH   5  15
ATOM     15  C   UNL     1      -4.189  -1.757  24.178  0.00  0.00    +0.120 C 
BRANCH  15  17
ATOM     17  C   UNL     1      -4.403  -0.304  24.510  0.00  0.00    -0.033 A 
ATOM     18  C   UNL     1      -4.052   0.681  23.588  0.00  0.00    +0.007 A 
ATOM     19  C   UNL     1      -4.955   0.056  25.740  0.00  0.00    +0.007 A 
ATOM     21  C   UNL     1      -4.801   2.388  25.126  0.00  0.00    +0.088 A 
ATOM     22  C   UNL     1      -4.250   2.027  23.897  0.00  0.00    +0.027 A 
ATOM     23  C   UNL     1      -5.153   1.402  26.048  0.00  0.00    +0.027 A 
BRANCH  21   1
ATOM      1  S   UNL     1      -5.054   4.072  25.509  0.00  0.00    -0.006 S 
ATOM      3  O   UNL     1      -6.485   4.324  25.605  0.00  0.00    -0.170 OA
ATOM      4  O   UNL     1      -4.183   4.413  26.625  0.00  0.00    -0.170 OA
ATOM     25  C   UNL     1      -4.470   4.945  24.073  0.00  0.00    +0.200 C 
ENDBRANCH  21   1
ENDBRANCH  15  17
ENDBRANCH   5  15
TORSDOF 5
ENDMDL
