MODEL 1
REMARK VINA RESULT:      -5.4      0.000      0.000
REMARK  Name = 51138169
REMARK  8 active torsions:
REMARK  status: ('A' for Active; 'I' for Inactive)
REMARK    1  A    between atoms: O_1  and  C_18
REMARK    2  A    between atoms: N_4  and  C_21
REMARK    3  A    between atoms: C_5  and  C_8
REMARK    4  A    between atoms: C_8  and  C_13
REMARK    5  A    between atoms: CA_9  and  C_18
REMARK    6  A    between atoms: C_13  and  C_19
REMARK    7  A    between atoms: C_13  and  C_20
REMARK    8  A    between atoms: C_21  and  C_22
REMARK                            x       y       z     vdW  Elec       q    Type
REMARK                         _______ _______ _______ _____ _____    ______ ____
ROOT
ATOM      3  N   UNL     1      -3.033   2.601  24.948  0.00  0.00    -0.297 NA
ATOM      4  N   UNL     1       1.158   0.219  23.442  0.00  0.00    -0.343 N 
ATOM      5  C   UNL     1      -3.193   1.204  25.374  0.00  0.00    +0.085 C 
ATOM      6  C   UNL     1      -2.128   0.224  24.873  0.00  0.00    -0.021 A 
ATOM      7  C   UNL     1      -0.859   0.594  24.338  0.00  0.00    +0.008 A 
ATOM      9  CA  UNL     1      -1.830   3.255  25.444  0.00  0.00    +0.168 C 
ATOM     10  C   UNL     1      -0.196   1.850  24.115  0.00  0.00    -0.020 A 
ATOM     11  C   UNL     1      -0.706   3.222  24.410  0.00  0.00    +0.067 C 
ATOM     12  C   UNL     1       0.032  -0.403  23.926  0.00  0.00    +0.050 A 
ATOM     14  C   UNL     1       1.035   1.572  23.556  0.00  0.00    +0.091 A 
ATOM     15  C   UNL     1      -2.366  -1.167  25.010  0.00  0.00    +0.006 A 
ATOM     16  C   UNL     1      -0.241  -1.768  24.028  0.00  0.00    +0.026 A 
ATOM     17  C   UNL     1      -1.456  -2.135  24.591  0.00  0.00    +0.002 A 
ATOM     24  H   UNL     1      -3.104   2.682  23.934  0.00  0.00    +0.123 HD
ENDROOT
BRANCH   9  18
ATOM      2  OXT UNL     1      -1.637   5.656  25.256  0.00  0.00    -0.249 OA
ATOM     18  C   UNL     1      -2.228   4.677  25.690  0.00  0.00    +0.322 C 
BRANCH  18   1
ATOM      1  O   UNL     1      -3.338   4.737  26.465  0.00  0.00    -0.480 OA
ATOM     25  H   UNL     1      -3.189   4.339  27.349  0.00  0.00    +0.295 HD
ENDBRANCH  18   1
ENDBRANCH   9  18
BRANCH   5   8
ATOM      8  C   UNL     1      -4.612   0.818  24.918  0.00  0.00    +0.026 C 
BRANCH   8  13
ATOM     13  C   UNL     1      -5.627   1.951  25.099  0.00  0.00    -0.015 C 
ATOM     19  C   UNL     1      -6.908   1.729  24.295  0.00  0.00    +0.007 C 
ATOM     20  C   UNL     1      -5.966   2.089  26.585  0.00  0.00    +0.007 C 
ENDBRANCH   8  13
ENDBRANCH   5   8
BRANCH   4  21
ATOM     21  C   UNL     1       2.325  -0.449  22.904  0.00  0.00    +0.148 C 
BRANCH  21  22
ATOM     22  C   UNL     1       3.450   0.502  22.623  0.00  0.00    -0.013 C 
ATOM     23  C   UNL     1       4.668   0.399  23.166  0.00  0.00    +0.005 C 
ENDBRANCH  21  22
ENDBRANCH   4  21
TORSDOF 6
ENDMDL
MODEL 2
REMARK VINA RESULT:      -4.7      2.630      7.000
REMARK  Name = 51138169
REMARK  8 active torsions:
REMARK  status: ('A' for Active; 'I' for Inactive)
REMARK    1  A    between atoms: O_1  and  C_18
REMARK    2  A    between atoms: N_4  and  C_21
REMARK    3  A    between atoms: C_5  and  C_8
REMARK    4  A    between atoms: C_8  and  C_13
REMARK    5  A    between atoms: CA_9  and  C_18
REMARK    6  A    between atoms: C_13  and  C_19
REMARK    7  A    between atoms: C_13  and  C_20
REMARK    8  A    between atoms: C_21  and  C_22
REMARK                            x       y       z     vdW  Elec       q    Type
REMARK                         _______ _______ _______ _____ _____    ______ ____
ROOT
ATOM      3  N   UNL     1      -0.029  -0.022  24.168  0.00  0.00    -0.297 NA
ATOM      4  N   UNL     1      -4.039   2.880  25.173  0.00  0.00    -0.343 N 
ATOM      5  C   UNL     1       0.513   1.296  24.526  0.00  0.00    +0.085 C 
ATOM      6  C   UNL     1      -0.515   2.418  24.701  0.00  0.00    -0.021 A 
ATOM      7  C   UNL     1      -1.917   2.226  24.879  0.00  0.00    +0.008 A 
ATOM      9  CA  UNL     1      -0.891  -0.620  25.177  0.00  0.00    +0.168 C 
ATOM     10  C   UNL     1      -2.765   1.068  24.961  0.00  0.00    -0.020 A 
ATOM     11  C   UNL     1      -2.367  -0.368  24.876  0.00  0.00    +0.067 C 
ATOM     12  C   UNL     1      -2.750   3.340  25.040  0.00  0.00    +0.050 A 
ATOM     14  C   UNL     1      -4.059   1.517  25.133  0.00  0.00    +0.091 A 
ATOM     15  C   UNL     1      -0.054   3.757  24.771  0.00  0.00    +0.006 A 
ATOM     16  C   UNL     1      -2.281   4.653  25.061  0.00  0.00    +0.026 A 
ATOM     17  C   UNL     1      -0.911   4.844  24.936  0.00  0.00    +0.002 A 
ATOM     24  H   UNL     1      -0.492   0.009  23.260  0.00  0.00    +0.123 HD
ENDROOT
BRANCH   9  18
ATOM      2  OXT UNL     1      -1.363  -2.917  24.592  0.00  0.00    -0.249 OA
ATOM     18  C   UNL     1      -0.620  -2.091  25.105  0.00  0.00    +0.322 C 
BRANCH  18   1
ATOM      1  O   UNL     1       0.566  -2.389  25.688  0.00  0.00    -0.480 OA
ATOM     25  H   UNL     1       0.911  -3.258  25.391  0.00  0.00    +0.295 HD
ENDBRANCH  18   1
ENDBRANCH   9  18
BRANCH   5   8
ATOM      8  C   UNL     1       1.543   1.606  23.425  0.00  0.00    +0.026 C 
BRANCH   8  13
ATOM     13  C   UNL     1       2.361   0.379  23.010  0.00  0.00    -0.015 C 
ATOM     19  C   UNL     1       1.835  -0.274  21.731  0.00  0.00    +0.007 C 
ATOM     20  C   UNL     1       3.822   0.790  22.817  0.00  0.00    +0.007 C 
ENDBRANCH   8  13
ENDBRANCH   5   8
BRANCH   4  21
ATOM     21  C   UNL     1      -5.214   3.706  25.352  0.00  0.00    +0.148 C 
BRANCH  21  22
ATOM     22  C   UNL     1      -6.437   2.900  25.675  0.00  0.00    -0.013 C 
ATOM     23  C   UNL     1      -6.482   1.962  26.628  0.00  0.00    +0.005 C 
ENDBRANCH  21  22
ENDBRANCH   4  21
TORSDOF 6
ENDMDL
MODEL 3
REMARK VINA RESULT:      -4.7     14.808     17.090
REMARK  Name = 51138169
REMARK  8 active torsions:
REMARK  status: ('A' for Active; 'I' for Inactive)
REMARK    1  A    between atoms: O_1  and  C_18
REMARK    2  A    between atoms: N_4  and  C_21
REMARK    3  A    between atoms: C_5  and  C_8
REMARK    4  A    between atoms: C_8  and  C_13
REMARK    5  A    between atoms: CA_9  and  C_18
REMARK    6  A    between atoms: C_13  and  C_19
REMARK    7  A    between atoms: C_13  and  C_20
REMARK    8  A    between atoms: C_21  and  C_22
REMARK                            x       y       z     vdW  Elec       q    Type
REMARK                         _______ _______ _______ _____ _____    ______ ____
ROOT
ATOM      3  N   UNL     1      -2.975 -10.715  13.476  0.00  0.00    -0.297 NA
ATOM      4  N   UNL     1      -7.351 -10.533  15.990  0.00  0.00    -0.343 N 
ATOM      5  C   UNL     1      -3.928 -10.060  12.569  0.00  0.00    +0.085 C 
ATOM      6  C   UNL     1      -5.389 -10.046  13.030  0.00  0.00    -0.021 A 
ATOM      7  C   UNL     1      -5.832 -10.296  14.362  0.00  0.00    +0.008 A 
ATOM      9  CA  UNL     1      -2.828 -10.071  14.773  0.00  0.00    +0.168 C 
ATOM     10  C   UNL     1      -5.163 -10.598  15.598  0.00  0.00    -0.020 A 
ATOM     11  C   UNL     1      -3.696 -10.743  15.835  0.00  0.00    +0.067 C 
ATOM     12  C   UNL     1      -7.200 -10.240  14.656  0.00  0.00    +0.050 A 
ATOM     14  C   UNL     1      -6.134 -10.744  16.567  0.00  0.00    +0.091 A 
ATOM     15  C   UNL     1      -6.393  -9.686  12.095  0.00  0.00    +0.006 A 
ATOM     16  C   UNL     1      -8.176  -9.928  13.710  0.00  0.00    +0.026 A 
ATOM     17  C   UNL     1      -7.747  -9.638  12.421  0.00  0.00    +0.002 A 
ATOM     24  H   UNL     1      -3.193 -11.705  13.579  0.00  0.00    +0.123 HD
ENDROOT
BRANCH   9  18
ATOM      2  OXT UNL     1      -0.979 -10.775  16.161  0.00  0.00    -0.249 OA
ATOM     18  C   UNL     1      -1.386 -10.243  15.137  0.00  0.00    +0.322 C 
BRANCH  18   1
ATOM      1  O   UNL     1      -0.583  -9.727  14.175  0.00  0.00    -0.480 OA
ATOM     25  H   UNL     1       0.364  -9.910  14.351  0.00  0.00    +0.295 HD
ENDBRANCH  18   1
ENDBRANCH   9  18
BRANCH   5   8
ATOM      8  C   UNL     1      -3.741 -10.780  11.221  0.00  0.00    +0.026 C 
BRANCH   8  13
ATOM     13  C   UNL     1      -3.071  -9.899  10.162  0.00  0.00    -0.015 C 
ATOM     19  C   UNL     1      -4.066  -8.999   9.429  0.00  0.00    +0.007 C 
ATOM     20  C   UNL     1      -1.992  -9.043  10.829  0.00  0.00    +0.007 C 
ENDBRANCH   8  13
ENDBRANCH   5   8
BRANCH   4  21
ATOM     21  C   UNL     1      -8.611 -10.594  16.702  0.00  0.00    +0.148 C 
BRANCH  21  22
ATOM     22  C   UNL     1      -8.887  -9.344  17.484  0.00  0.00    -0.013 C 
ATOM     23  C   UNL     1      -9.439  -8.243  16.962  0.00  0.00    +0.005 C 
ENDBRANCH  21  22
ENDBRANCH   4  21
TORSDOF 6
ENDMDL
MODEL 4
REMARK VINA RESULT:      -4.5      2.718      4.039
REMARK  Name = 51138169
REMARK  8 active torsions:
REMARK  status: ('A' for Active; 'I' for Inactive)
REMARK    1  A    between atoms: O_1  and  C_18
REMARK    2  A    between atoms: N_4  and  C_21
REMARK    3  A    between atoms: C_5  and  C_8
REMARK    4  A    between atoms: C_8  and  C_13
REMARK    5  A    between atoms: CA_9  and  C_18
REMARK    6  A    between atoms: C_13  and  C_19
REMARK    7  A    between atoms: C_13  and  C_20
REMARK    8  A    between atoms: C_21  and  C_22
REMARK                            x       y       z     vdW  Elec       q    Type
REMARK                         _______ _______ _______ _____ _____    ______ ____
ROOT
ATOM      3  N   UNL     1      -3.630  -0.251  25.255  0.00  0.00    -0.297 NA
ATOM      4  N   UNL     1       0.993   1.124  23.759  0.00  0.00    -0.343 N 
ATOM      5  C   UNL     1      -3.713   1.190  24.980  0.00  0.00    +0.085 C 
ATOM      6  C   UNL     1      -2.384   1.892  24.682  0.00  0.00    -0.021 A 
ATOM      7  C   UNL     1      -1.171   1.234  24.322  0.00  0.00    +0.008 A 
ATOM      9  CA  UNL     1      -3.160  -1.058  24.138  0.00  0.00    +0.168 C 
ATOM     10  C   UNL     1      -0.801  -0.140  24.121  0.00  0.00    -0.020 A 
ATOM     11  C   UNL     1      -1.665  -1.351  24.247  0.00  0.00    +0.067 C 
ATOM     12  C   UNL     1      -0.026   1.996  24.062  0.00  0.00    +0.050 A 
ATOM     14  C   UNL     1       0.538  -0.161  23.786  0.00  0.00    +0.091 A 
ATOM     15  C   UNL     1      -2.350   3.309  24.682  0.00  0.00    +0.006 A 
ATOM     16  C   UNL     1      -0.002   3.389  24.112  0.00  0.00    +0.026 A 
ATOM     17  C   UNL     1      -1.192   4.038  24.416  0.00  0.00    +0.002 A 
ATOM     24  H   UNL     1      -3.082  -0.430  26.095  0.00  0.00    +0.123 HD
ENDROOT
BRANCH   9  18
ATOM      2  OXT UNL     1      -4.812  -2.691  23.472  0.00  0.00    -0.249 OA
ATOM     18  C   UNL     1      -3.921  -2.344  24.234  0.00  0.00    +0.322 C 
BRANCH  18   1
ATOM      1  O   UNL     1      -3.488  -3.080  25.287  0.00  0.00    -0.480 OA
ATOM     25  H   UNL     1      -2.511  -3.166  25.295  0.00  0.00    +0.295 HD
ENDBRANCH  18   1
ENDBRANCH   9  18
BRANCH   5   8
ATOM      8  C   UNL     1      -4.430   1.780  26.208  0.00  0.00    +0.026 C 
BRANCH   8  13
ATOM     13  C   UNL     1      -5.757   2.459  25.856  0.00  0.00    -0.015 C 
ATOM     19  C   UNL     1      -5.586   3.937  25.502  0.00  0.00    +0.007 C 
ATOM     20  C   UNL     1      -6.406   1.718  24.685  0.00  0.00    +0.007 C 
ENDBRANCH   8  13
ENDBRANCH   5   8
BRANCH   4  21
ATOM     21  C   UNL     1       2.354   1.498  23.435  0.00  0.00    +0.148 C 
BRANCH  21  22
ATOM     22  C   UNL     1       3.125   0.371  22.814  0.00  0.00    -0.013 C 
ATOM     23  C   UNL     1       4.454   0.243  22.895  0.00  0.00    +0.005 C 
ENDBRANCH  21  22
ENDBRANCH   4  21
TORSDOF 6
ENDMDL
MODEL 5
REMARK VINA RESULT:      -3.4      2.939      6.678
REMARK  Name = 51138169
REMARK  8 active torsions:
REMARK  status: ('A' for Active; 'I' for Inactive)
REMARK    1  A    between atoms: O_1  and  C_18
REMARK    2  A    between atoms: N_4  and  C_21
REMARK    3  A    between atoms: C_5  and  C_8
REMARK    4  A    between atoms: C_8  and  C_13
REMARK    5  A    between atoms: CA_9  and  C_18
REMARK    6  A    between atoms: C_13  and  C_19
REMARK    7  A    between atoms: C_13  and  C_20
REMARK    8  A    between atoms: C_21  and  C_22
REMARK                            x       y       z     vdW  Elec       q    Type
REMARK                         _______ _______ _______ _____ _____    ______ ____
ROOT
ATOM      3  N   UNL     1      -1.735  -1.300  24.152  0.00  0.00    -0.297 NA
ATOM      4  N   UNL     1      -3.721   3.329  24.529  0.00  0.00    -0.343 N 
ATOM      5  C   UNL     1      -0.757  -0.508  24.911  0.00  0.00    +0.085 C 
ATOM      6  C   UNL     1      -1.043   0.995  25.007  0.00  0.00    -0.021 A 
ATOM      7  C   UNL     1      -2.298   1.611  24.730  0.00  0.00    +0.008 A 
ATOM      9  CA  UNL     1      -3.072  -1.329  24.726  0.00  0.00    +0.168 C 
ATOM     10  C   UNL     1      -3.587   1.117  24.328  0.00  0.00    -0.020 A 
ATOM     11  C   UNL     1      -3.988  -0.297  24.071  0.00  0.00    +0.067 C 
ATOM     12  C   UNL     1      -2.431   2.998  24.869  0.00  0.00    +0.050 A 
ATOM     14  C   UNL     1      -4.426   2.206  24.208  0.00  0.00    +0.091 A 
ATOM     15  C   UNL     1      -0.016   1.852  25.477  0.00  0.00    +0.006 A 
ATOM     16  C   UNL     1      -1.393   3.830  25.290  0.00  0.00    +0.026 A 
ATOM     17  C   UNL     1      -0.181   3.230  25.606  0.00  0.00    +0.002 A 
ATOM     24  H   UNL     1      -1.760  -1.008  23.175  0.00  0.00    +0.123 HD
ENDROOT
BRANCH   9  18
ATOM      2  OXT UNL     1      -3.236  -3.724  25.006  0.00  0.00    -0.249 OA
ATOM     18  C   UNL     1      -3.594  -2.703  24.437  0.00  0.00    +0.322 C 
BRANCH  18   1
ATOM      1  O   UNL     1      -4.524  -2.665  23.452  0.00  0.00    -0.480 OA
ATOM     25  H   UNL     1      -5.425  -2.849  23.792  0.00  0.00    +0.295 HD
ENDBRANCH  18   1
ENDBRANCH   9  18
BRANCH   5   8
ATOM      8  C   UNL     1       0.595  -0.810  24.240  0.00  0.00    +0.026 C 
BRANCH   8  13
ATOM     13  C   UNL     1       0.899   0.121  23.062  0.00  0.00    -0.015 C 
ATOM     19  C   UNL     1       2.278   0.774  23.169  0.00  0.00    +0.007 C 
ATOM     20  C   UNL     1       0.802  -0.671  21.756  0.00  0.00    +0.007 C 
ENDBRANCH   8  13
ENDBRANCH   5   8
BRANCH   4  21
ATOM     21  C   UNL     1      -4.275   4.666  24.526  0.00  0.00    +0.148 C 
BRANCH  21  22
ATOM     22  C   UNL     1      -5.529   4.768  25.343  0.00  0.00    -0.013 C 
ATOM     23  C   UNL     1      -6.140   3.720  25.905  0.00  0.00    +0.005 C 
ENDBRANCH  21  22
ENDBRANCH   4  21
TORSDOF 6
ENDMDL
MODEL 6
REMARK VINA RESULT:      -2.9      2.554      5.693
REMARK  Name = 51138169
REMARK  8 active torsions:
REMARK  status: ('A' for Active; 'I' for Inactive)
REMARK    1  A    between atoms: O_1  and  C_18
REMARK    2  A    between atoms: N_4  and  C_21
REMARK    3  A    between atoms: C_5  and  C_8
REMARK    4  A    between atoms: C_8  and  C_13
REMARK    5  A    between atoms: CA_9  and  C_18
REMARK    6  A    between atoms: C_13  and  C_19
REMARK    7  A    between atoms: C_13  and  C_20
REMARK    8  A    between atoms: C_21  and  C_22
REMARK                            x       y       z     vdW  Elec       q    Type
REMARK                         _______ _______ _______ _____ _____    ______ ____
ROOT
ATOM      3  N   UNL     1       0.027  -0.558  24.023  0.00  0.00    -0.297 NA
ATOM      4  N   UNL     1      -2.646   3.476  25.468  0.00  0.00    -0.343 N 
ATOM      5  C   UNL     1      -1.370  -0.866  23.690  0.00  0.00    +0.085 C 
ATOM      6  C   UNL     1      -2.415   0.132  24.198  0.00  0.00    -0.021 A 
ATOM      7  C   UNL     1      -2.136   1.456  24.648  0.00  0.00    +0.008 A 
ATOM      9  CA  UNL     1       0.538   0.671  23.431  0.00  0.00    +0.168 C 
ATOM     10  C   UNL     1      -0.936   2.240  24.763  0.00  0.00    -0.020 A 
ATOM     11  C   UNL     1       0.458   1.841  24.410  0.00  0.00    +0.067 C 
ATOM     12  C   UNL     1      -3.187   2.275  25.077  0.00  0.00    +0.050 A 
ATOM     14  C   UNL     1      -1.296   3.469  25.278  0.00  0.00    +0.091 A 
ATOM     15  C   UNL     1      -3.784  -0.237  24.157  0.00  0.00    +0.006 A 
ATOM     16  C   UNL     1      -4.524   1.875  25.071  0.00  0.00    +0.026 A 
ATOM     17  C   UNL     1      -4.807   0.603  24.589  0.00  0.00    +0.002 A 
ATOM     24  H   UNL     1       0.172  -0.567  25.032  0.00  0.00    +0.123 HD
ENDROOT
BRANCH   9  18
ATOM      2  OXT UNL     1       2.418  -0.696  22.770  0.00  0.00    -0.249 OA
ATOM     18  C   UNL     1       1.975   0.390  23.119  0.00  0.00    +0.322 C 
BRANCH  18   1
ATOM      1  O   UNL     1       2.727   1.506  23.276  0.00  0.00    -0.480 OA
ATOM     25  H   UNL     1       2.458   2.218  22.658  0.00  0.00    +0.295 HD
ENDBRANCH  18   1
ENDBRANCH   9  18
BRANCH   5   8
ATOM      8  C   UNL     1      -1.596  -2.287  24.236  0.00  0.00    +0.026 C 
BRANCH   8  13
ATOM     13  C   UNL     1      -3.039  -2.531  24.688  0.00  0.00    -0.015 C 
ATOM     19  C   UNL     1      -3.708  -3.679  23.931  0.00  0.00    +0.007 C 
ATOM     20  C   UNL     1      -3.053  -2.825  26.190  0.00  0.00    +0.007 C 
ENDBRANCH   8  13
ENDBRANCH   5   8
BRANCH   4  21
ATOM     21  C   UNL     1      -3.388   4.605  25.989  0.00  0.00    +0.148 C 
BRANCH  21  22
ATOM     22  C   UNL     1      -4.628   4.891  25.194  0.00  0.00    -0.013 C 
ATOM     23  C   UNL     1      -5.869   4.680  25.645  0.00  0.00    +0.005 C 
ENDBRANCH  21  22
ENDBRANCH   4  21
TORSDOF 6
ENDMDL
