MODEL 1
REMARK VINA RESULT:      -5.9      0.000      0.000
REMARK  Name = 75536696
REMARK  10 active torsions:
REMARK  status: ('A' for Active; 'I' for Inactive)
REMARK    1  A    between atoms: S_1  and  N_7
REMARK    2  A    between atoms: S_1  and  C_16
REMARK    3  A    between atoms: O_3  and  C_9
REMARK    4  A    between atoms: N_6  and  C_8
REMARK    5  A    between atoms: N_6  and  C_13
REMARK    6  A    between atoms: N_7  and  C_12
REMARK    7  A    between atoms: C_10  and  C_12
REMARK    8  A    between atoms: C_13  and  C_14
REMARK    9  A    between atoms: C_13  and  C_15
REMARK   10  A    between atoms: C_21  and  C_22
REMARK                            x       y       z     vdW  Elec       q    Type
REMARK                         _______ _______ _______ _____ _____    ______ ____
ROOT
ATOM     12  C   UNL     1      -3.592   3.807  25.224  0.00  0.00    +0.140 C 
ENDROOT
BRANCH  12  10
ATOM      2  O   UNL     1      -1.246   4.356  25.418  0.00  0.00    -0.371 OA
ATOM      8  C   UNL     1      -0.237   2.501  24.327  0.00  0.00    +0.111 C 
ATOM      9  C   UNL     1      -1.741   2.299  24.357  0.00  0.00    +0.164 C 
ATOM     10  C   UNL     1      -2.224   3.728  24.572  0.00  0.00    +0.164 C 
ATOM     11  C   UNL     1      -0.053   3.551  25.411  0.00  0.00    +0.181 C 
BRANCH   9   3
ATOM      3  O   UNL     1      -2.241   1.749  23.154  0.00  0.00    -0.388 OA
ATOM     24  H   UNL     1      -1.724   0.954  22.943  0.00  0.00    +0.210 HD
ENDBRANCH   9   3
BRANCH   8   6
ATOM      6  N   UNL     1       0.520   1.287  24.582  0.00  0.00    -0.307 NA
ATOM     23  H   UNL     1       0.231   0.873  25.468  0.00  0.00    +0.123 HD
BRANCH   6  13
ATOM     13  C   UNL     1       0.348   0.323  23.502  0.00  0.00    +0.048 C 
ATOM     14  C   UNL     1      -0.153  -1.009  24.058  0.00  0.00    +0.023 C 
ATOM     15  C   UNL     1       1.670   0.145  22.763  0.00  0.00    +0.023 C 
ENDBRANCH   6  13
ENDBRANCH   8   6
ENDBRANCH  12  10
BRANCH  12   7
ATOM      7  N   UNL     1      -4.564   3.025  24.435  0.00  0.00    -0.187 NA
ATOM     25  H   UNL     1      -4.856   3.446  23.544  0.00  0.00    +0.148 HD
BRANCH   7   1
ATOM      1  S   UNL     1      -5.635   1.958  25.214  0.00  0.00    +0.058 S 
ATOM      4  O   UNL     1      -6.862   1.863  24.447  0.00  0.00    -0.153 OA
ATOM      5  O   UNL     1      -5.682   2.285  26.626  0.00  0.00    -0.153 OA
BRANCH   1  16
ATOM     16  C   UNL     1      -4.781   0.417  25.069  0.00  0.00    +0.105 A 
ATOM     17  C   UNL     1      -4.904  -0.340  23.904  0.00  0.00    +0.029 A 
ATOM     18  C   UNL     1      -3.989  -0.044  26.120  0.00  0.00    +0.029 A 
ATOM     19  C   UNL     1      -4.233  -1.557  23.790  0.00  0.00    +0.005 A 
ATOM     20  C   UNL     1      -3.318  -1.261  26.007  0.00  0.00    +0.005 A 
ATOM     21  C   UNL     1      -3.439  -2.018  24.840  0.00  0.00    -0.050 A 
ATOM     22  C   UNL     1      -2.722  -3.319  24.718  0.00  0.00    +0.044 C 
ENDBRANCH   1  16
ENDBRANCH   7   1
ENDBRANCH  12   7
TORSDOF 7
ENDMDL
MODEL 2
REMARK VINA RESULT:      -5.6      1.612      1.988
REMARK  Name = 75536696
REMARK  10 active torsions:
REMARK  status: ('A' for Active; 'I' for Inactive)
REMARK    1  A    between atoms: S_1  and  N_7
REMARK    2  A    between atoms: S_1  and  C_16
REMARK    3  A    between atoms: O_3  and  C_9
REMARK    4  A    between atoms: N_6  and  C_8
REMARK    5  A    between atoms: N_6  and  C_13
REMARK    6  A    between atoms: N_7  and  C_12
REMARK    7  A    between atoms: C_10  and  C_12
REMARK    8  A    between atoms: C_13  and  C_14
REMARK    9  A    between atoms: C_13  and  C_15
REMARK   10  A    between atoms: C_21  and  C_22
REMARK                            x       y       z     vdW  Elec       q    Type
REMARK                         _______ _______ _______ _____ _____    ______ ____
ROOT
ATOM     12  C   UNL     1      -1.881   4.452  25.598  0.00  0.00    +0.140 C 
ENDROOT
BRANCH  12  10
ATOM      2  O   UNL     1      -0.966   2.334  26.321  0.00  0.00    -0.371 OA
ATOM      8  C   UNL     1       0.155   1.611  24.356  0.00  0.00    +0.111 C 
ATOM      9  C   UNL     1      -0.545   2.926  24.069  0.00  0.00    +0.164 C 
ATOM     10  C   UNL     1      -0.726   3.474  25.478  0.00  0.00    +0.164 C 
ATOM     11  C   UNL     1      -0.572   1.149  25.608  0.00  0.00    +0.181 C 
BRANCH   9   3
ATOM      3  O   UNL     1       0.229   3.792  23.262  0.00  0.00    -0.388 OA
ATOM     24  H   UNL     1       0.849   4.271  23.836  0.00  0.00    +0.210 HD
ENDBRANCH   9   3
BRANCH   8   6
ATOM      6  N   UNL     1       0.068   0.653  23.265  0.00  0.00    -0.307 NA
ATOM     23  H   UNL     1      -0.263   1.115  22.419  0.00  0.00    +0.123 HD
BRANCH   6  13
ATOM     13  C   UNL     1       1.357   0.021  23.016  0.00  0.00    +0.048 C 
ATOM     14  C   UNL     1       2.488   1.028  23.218  0.00  0.00    +0.023 C 
ATOM     15  C   UNL     1       1.379  -0.549  21.602  0.00  0.00    +0.023 C 
ENDBRANCH   6  13
ENDBRANCH   8   6
ENDBRANCH  12  10
BRANCH  12   7
ATOM      7  N   UNL     1      -3.097   3.734  26.030  0.00  0.00    -0.187 NA
ATOM     25  H   UNL     1      -2.988   3.130  26.854  0.00  0.00    +0.148 HD
BRANCH   7   1
ATOM      1  S   UNL     1      -4.308   3.350  24.899  0.00  0.00    +0.058 S 
ATOM      4  O   UNL     1      -4.007   3.996  23.636  0.00  0.00    -0.153 OA
ATOM      5  O   UNL     1      -5.606   3.529  25.519  0.00  0.00    -0.153 OA
BRANCH   1  16
ATOM     16  C   UNL     1      -4.070   1.610  24.691  0.00  0.00    +0.105 A 
ATOM     17  C   UNL     1      -3.567   1.114  23.487  0.00  0.00    +0.029 A 
ATOM     18  C   UNL     1      -4.389   0.733  25.727  0.00  0.00    +0.029 A 
ATOM     19  C   UNL     1      -3.383  -0.258  23.322  0.00  0.00    +0.005 A 
ATOM     20  C   UNL     1      -4.205  -0.639  25.562  0.00  0.00    +0.005 A 
ATOM     21  C   UNL     1      -3.701  -1.135  24.359  0.00  0.00    -0.050 A 
ATOM     22  C   UNL     1      -3.504  -2.602  24.181  0.00  0.00    +0.044 C 
ENDBRANCH   1  16
ENDBRANCH   7   1
ENDBRANCH  12   7
TORSDOF 7
ENDMDL
MODEL 3
REMARK VINA RESULT:      -5.3      2.622      4.484
REMARK  Name = 75536696
REMARK  10 active torsions:
REMARK  status: ('A' for Active; 'I' for Inactive)
REMARK    1  A    between atoms: S_1  and  N_7
REMARK    2  A    between atoms: S_1  and  C_16
REMARK    3  A    between atoms: O_3  and  C_9
REMARK    4  A    between atoms: N_6  and  C_8
REMARK    5  A    between atoms: N_6  and  C_13
REMARK    6  A    between atoms: N_7  and  C_12
REMARK    7  A    between atoms: C_10  and  C_12
REMARK    8  A    between atoms: C_13  and  C_14
REMARK    9  A    between atoms: C_13  and  C_15
REMARK   10  A    between atoms: C_21  and  C_22
REMARK                            x       y       z     vdW  Elec       q    Type
REMARK                         _______ _______ _______ _____ _____    ______ ____
ROOT
ATOM     12  C   UNL     1      -0.857  -2.160  24.808  0.00  0.00    +0.140 C 
ENDROOT
BRANCH  12  10
ATOM      2  O   UNL     1       0.472  -0.699  23.414  0.00  0.00    -0.371 OA
ATOM      8  C   UNL     1       0.010   1.422  24.381  0.00  0.00    +0.111 C 
ATOM      9  C   UNL     1      -0.801   0.362  25.103  0.00  0.00    +0.164 C 
ATOM     10  C   UNL     1      -0.018  -0.896  24.751  0.00  0.00    +0.164 C 
ATOM     11  C   UNL     1       0.369   0.700  23.093  0.00  0.00    +0.181 C 
BRANCH   9   3
ATOM      3  O   UNL     1      -0.856   0.575  26.500  0.00  0.00    -0.388 OA
ATOM     24  H   UNL     1      -0.325  -0.112  26.936  0.00  0.00    +0.210 HD
ENDBRANCH   9   3
BRANCH   8   6
ATOM      6  N   UNL     1      -0.719   2.658  24.152  0.00  0.00    -0.307 NA
ATOM     23  H   UNL     1      -1.710   2.462  24.020  0.00  0.00    +0.123 HD
BRANCH   6  13
ATOM     13  C   UNL     1      -0.538   3.588  25.259  0.00  0.00    +0.048 C 
ATOM     14  C   UNL     1      -1.662   3.419  26.280  0.00  0.00    +0.023 C 
ATOM     15  C   UNL     1      -0.497   5.016  24.724  0.00  0.00    +0.023 C 
ENDBRANCH   6  13
ENDBRANCH   8   6
ENDBRANCH  12  10
BRANCH  12   7
ATOM      7  N   UNL     1      -1.994  -2.044  23.874  0.00  0.00    -0.187 NA
ATOM     25  H   UNL     1      -1.783  -1.609  22.967  0.00  0.00    +0.148 HD
BRANCH   7   1
ATOM      1  S   UNL     1      -3.582  -1.935  24.474  0.00  0.00    +0.058 S 
ATOM      4  O   UNL     1      -3.595  -2.315  25.873  0.00  0.00    -0.153 OA
ATOM      5  O   UNL     1      -4.485  -2.575  23.537  0.00  0.00    -0.153 OA
BRANCH   1  16
ATOM     16  C   UNL     1      -3.887  -0.196  24.379  0.00  0.00    +0.105 A 
ATOM     17  C   UNL     1      -3.371   0.545  23.316  0.00  0.00    +0.029 A 
ATOM     18  C   UNL     1      -4.640   0.435  25.369  0.00  0.00    +0.029 A 
ATOM     19  C   UNL     1      -3.608   1.917  23.244  0.00  0.00    +0.005 A 
ATOM     20  C   UNL     1      -4.878   1.808  25.296  0.00  0.00    +0.005 A 
ATOM     21  C   UNL     1      -4.362   2.549  24.232  0.00  0.00    -0.050 A 
ATOM     22  C   UNL     1      -4.616   4.016  24.154  0.00  0.00    +0.044 C 
ENDBRANCH   1  16
ENDBRANCH   7   1
ENDBRANCH  12   7
TORSDOF 7
ENDMDL
MODEL 4
REMARK VINA RESULT:      -4.9      2.640      4.514
REMARK  Name = 75536696
REMARK  10 active torsions:
REMARK  status: ('A' for Active; 'I' for Inactive)
REMARK    1  A    between atoms: S_1  and  N_7
REMARK    2  A    between atoms: S_1  and  C_16
REMARK    3  A    between atoms: O_3  and  C_9
REMARK    4  A    between atoms: N_6  and  C_8
REMARK    5  A    between atoms: N_6  and  C_13
REMARK    6  A    between atoms: N_7  and  C_12
REMARK    7  A    between atoms: C_10  and  C_12
REMARK    8  A    between atoms: C_13  and  C_14
REMARK    9  A    between atoms: C_13  and  C_15
REMARK   10  A    between atoms: C_21  and  C_22
REMARK                            x       y       z     vdW  Elec       q    Type
REMARK                         _______ _______ _______ _____ _____    ______ ____
ROOT
ATOM     12  C   UNL     1       0.516   2.380  24.589  0.00  0.00    +0.140 C 
ENDROOT
BRANCH  12  10
ATOM      2  O   UNL     1      -0.880   1.030  26.028  0.00  0.00    -0.371 OA
ATOM      8  C   UNL     1      -1.024  -0.989  24.786  0.00  0.00    +0.111 C 
ATOM      9  C   UNL     1      -0.216   0.022  23.994  0.00  0.00    +0.164 C 
ATOM     10  C   UNL     1       0.213   0.982  25.095  0.00  0.00    +0.164 C 
ATOM     11  C   UNL     1      -1.747  -0.090  25.774  0.00  0.00    +0.181 C 
BRANCH   9   3
ATOM      3  O   UNL     1       0.894  -0.560  23.339  0.00  0.00    -0.388 OA
ATOM     24  H   UNL     1       0.995  -1.472  23.658  0.00  0.00    +0.210 HD
ENDBRANCH   9   3
BRANCH   8   6
ATOM      6  N   UNL     1      -1.932  -1.778  23.971  0.00  0.00    -0.307 NA
ATOM     23  H   UNL     1      -1.518  -2.686  23.761  0.00  0.00    +0.123 HD
BRANCH   6  13
ATOM     13  C   UNL     1      -3.216  -1.960  24.638  0.00  0.00    +0.048 C 
ATOM     14  C   UNL     1      -3.444  -3.437  24.953  0.00  0.00    +0.023 C 
ATOM     15  C   UNL     1      -4.331  -1.410  23.754  0.00  0.00    +0.023 C 
ENDBRANCH   6  13
ENDBRANCH   8   6
ENDBRANCH  12  10
BRANCH  12   7
ATOM      7  N   UNL     1      -0.221   3.371  25.396  0.00  0.00    -0.187 NA
ATOM     25  H   UNL     1      -0.414   3.099  26.368  0.00  0.00    +0.148 HD
BRANCH   7   1
ATOM      1  S   UNL     1      -1.273   4.474  24.641  0.00  0.00    +0.058 S 
ATOM      4  O   UNL     1      -0.921   4.591  23.239  0.00  0.00    -0.153 OA
ATOM      5  O   UNL     1      -1.384   5.662  25.466  0.00  0.00    -0.153 OA
BRANCH   1  16
ATOM     16  C   UNL     1      -2.821   3.628  24.744  0.00  0.00    +0.105 A 
ATOM     17  C   UNL     1      -3.174   2.698  23.766  0.00  0.00    +0.029 A 
ATOM     18  C   UNL     1      -3.692   3.892  25.802  0.00  0.00    +0.029 A 
ATOM     19  C   UNL     1      -4.397   2.032  23.846  0.00  0.00    +0.005 A 
ATOM     20  C   UNL     1      -4.915   3.226  25.882  0.00  0.00    +0.005 A 
ATOM     21  C   UNL     1      -5.267   2.295  24.904  0.00  0.00    -0.050 A 
ATOM     22  C   UNL     1      -6.574   1.583  24.989  0.00  0.00    +0.044 C 
ENDBRANCH   1  16
ENDBRANCH   7   1
ENDBRANCH  12   7
TORSDOF 7
ENDMDL
MODEL 5
REMARK VINA RESULT:      -4.5      2.430      4.795
REMARK  Name = 75536696
REMARK  10 active torsions:
REMARK  status: ('A' for Active; 'I' for Inactive)
REMARK    1  A    between atoms: S_1  and  N_7
REMARK    2  A    between atoms: S_1  and  C_16
REMARK    3  A    between atoms: O_3  and  C_9
REMARK    4  A    between atoms: N_6  and  C_8
REMARK    5  A    between atoms: N_6  and  C_13
REMARK    6  A    between atoms: N_7  and  C_12
REMARK    7  A    between atoms: C_10  and  C_12
REMARK    8  A    between atoms: C_13  and  C_14
REMARK    9  A    between atoms: C_13  and  C_15
REMARK   10  A    between atoms: C_21  and  C_22
REMARK                            x       y       z     vdW  Elec       q    Type
REMARK                         _______ _______ _______ _____ _____    ______ ____
ROOT
ATOM     12  C   UNL     1      -0.947   4.388  25.030  0.00  0.00    +0.140 C 
ENDROOT
BRANCH  12  10
ATOM      2  O   UNL     1      -3.011   4.388  23.771  0.00  0.00    -0.371 OA
ATOM      8  C   UNL     1      -4.607   3.989  25.485  0.00  0.00    +0.111 C 
ATOM      9  C   UNL     1      -3.216   3.964  26.090  0.00  0.00    +0.164 C 
ATOM     10  C   UNL     1      -2.425   4.731  25.039  0.00  0.00    +0.164 C 
ATOM     11  C   UNL     1      -4.298   3.792  24.010  0.00  0.00    +0.181 C 
BRANCH   9   3
ATOM      3  O   UNL     1      -3.159   4.592  27.355  0.00  0.00    -0.388 OA
ATOM     24  H   UNL     1      -2.228   4.770  27.568  0.00  0.00    +0.210 HD
ENDBRANCH   9   3
BRANCH   8   6
ATOM      6  N   UNL     1      -5.494   2.969  26.019  0.00  0.00    -0.307 NA
ATOM     23  H   UNL     1      -6.429   3.353  26.154  0.00  0.00    +0.123 HD
BRANCH   6  13
ATOM     13  C   UNL     1      -5.556   1.811  25.135  0.00  0.00    +0.048 C 
ATOM     14  C   UNL     1      -6.954   1.678  24.535  0.00  0.00    +0.023 C 
ATOM     15  C   UNL     1      -5.174   0.557  25.913  0.00  0.00    +0.023 C 
ENDBRANCH   6  13
ENDBRANCH   8   6
ENDBRANCH  12  10
BRANCH  12   7
ATOM      7  N   UNL     1      -0.720   3.191  24.195  0.00  0.00    -0.187 NA
ATOM     25  H   UNL     1      -1.444   2.996  23.492  0.00  0.00    +0.148 HD
BRANCH   7   1
ATOM      1  S   UNL     1       0.194   1.890  24.798  0.00  0.00    +0.058 S 
ATOM      4  O   UNL     1       0.446   2.095  26.211  0.00  0.00    -0.153 OA
ATOM      5  O   UNL     1       1.295   1.627  23.892  0.00  0.00    -0.153 OA
BRANCH   1  16
ATOM     16  C   UNL     1      -0.941   0.544  24.637  0.00  0.00    +0.105 A 
ATOM     17  C   UNL     1      -0.610  -0.711  25.148  0.00  0.00    +0.029 A 
ATOM     18  C   UNL     1      -2.165   0.736  23.996  0.00  0.00    +0.029 A 
ATOM     19  C   UNL     1      -1.504  -1.773  25.018  0.00  0.00    +0.005 A 
ATOM     20  C   UNL     1      -3.058  -0.326  23.866  0.00  0.00    +0.005 A 
ATOM     21  C   UNL     1      -2.728  -1.581  24.378  0.00  0.00    -0.050 A 
ATOM     22  C   UNL     1      -3.684  -2.718  24.240  0.00  0.00    +0.044 C 
ENDBRANCH   1  16
ENDBRANCH   7   1
ENDBRANCH  12   7
TORSDOF 7
ENDMDL
MODEL 6
REMARK VINA RESULT:      -4.5      2.816      6.023
REMARK  Name = 75536696
REMARK  10 active torsions:
REMARK  status: ('A' for Active; 'I' for Inactive)
REMARK    1  A    between atoms: S_1  and  N_7
REMARK    2  A    between atoms: S_1  and  C_16
REMARK    3  A    between atoms: O_3  and  C_9
REMARK    4  A    between atoms: N_6  and  C_8
REMARK    5  A    between atoms: N_6  and  C_13
REMARK    6  A    between atoms: N_7  and  C_12
REMARK    7  A    between atoms: C_10  and  C_12
REMARK    8  A    between atoms: C_13  and  C_14
REMARK    9  A    between atoms: C_13  and  C_15
REMARK   10  A    between atoms: C_21  and  C_22
REMARK                            x       y       z     vdW  Elec       q    Type
REMARK                         _______ _______ _______ _____ _____    ______ ____
ROOT
ATOM     12  C   UNL     1      -0.979  -2.182  24.187  0.00  0.00    +0.140 C 
ENDROOT
BRANCH  12  10
ATOM      2  O   UNL     1      -1.827  -0.692  25.892  0.00  0.00    -0.371 OA
ATOM      8  C   UNL     1      -4.073  -0.391  25.178  0.00  0.00    +0.111 C 
ATOM      9  C   UNL     1      -3.350  -1.270  24.175  0.00  0.00    +0.164 C 
ATOM     10  C   UNL     1      -2.184  -1.775  25.016  0.00  0.00    +0.164 C 
ATOM     11  C   UNL     1      -2.907   0.258  25.906  0.00  0.00    +0.181 C 
BRANCH   9   3
ATOM      3  O   UNL     1      -4.154  -2.331  23.699  0.00  0.00    -0.388 OA
ATOM     24  H   UNL     1      -5.080  -2.136  23.922  0.00  0.00    +0.210 HD
ENDBRANCH   9   3
BRANCH   8   6
ATOM      6  N   UNL     1      -4.967   0.578  24.567  0.00  0.00    -0.307 NA
ATOM     23  H   UNL     1      -5.918   0.211  24.542  0.00  0.00    +0.123 HD
BRANCH   6  13
ATOM     13  C   UNL     1      -4.942   1.846  25.287  0.00  0.00    +0.048 C 
ATOM     14  C   UNL     1      -6.191   1.986  26.154  0.00  0.00    +0.023 C 
ATOM     15  C   UNL     1      -4.836   2.995  24.290  0.00  0.00    +0.023 C 
ENDBRANCH   6  13
ENDBRANCH   8   6
ENDBRANCH  12  10
BRANCH  12   7
ATOM      7  N   UNL     1       0.149  -1.273  24.472  0.00  0.00    -0.187 NA
ATOM     25  H   UNL     1       0.315  -1.067  25.465  0.00  0.00    +0.148 HD
BRANCH   7   1
ATOM      1  S   UNL     1       0.632  -0.124  23.315  0.00  0.00    +0.058 S 
ATOM      4  O   UNL     1       0.010  -0.433  22.042  0.00  0.00    -0.153 OA
ATOM      5  O   UNL     1       2.068   0.057  23.400  0.00  0.00    -0.153 OA
BRANCH   1  16
ATOM     16  C   UNL     1      -0.112   1.353  23.939  0.00  0.00    +0.105 A 
ATOM     17  C   UNL     1      -1.176   1.941  23.254  0.00  0.00    +0.029 A 
ATOM     18  C   UNL     1       0.366   1.934  25.114  0.00  0.00    +0.029 A 
ATOM     19  C   UNL     1      -1.760   3.109  23.745  0.00  0.00    +0.005 A 
ATOM     20  C   UNL     1      -0.218   3.101  25.605  0.00  0.00    +0.005 A 
ATOM     21  C   UNL     1      -1.283   3.688  24.920  0.00  0.00    -0.050 A 
ATOM     22  C   UNL     1      -1.909   4.936  25.444  0.00  0.00    +0.044 C 
ENDBRANCH   1  16
ENDBRANCH   7   1
ENDBRANCH  12   7
TORSDOF 7
ENDMDL
MODEL 7
REMARK VINA RESULT:      -4.1      2.721      4.605
REMARK  Name = 75536696
REMARK  10 active torsions:
REMARK  status: ('A' for Active; 'I' for Inactive)
REMARK    1  A    between atoms: S_1  and  N_7
REMARK    2  A    between atoms: S_1  and  C_16
REMARK    3  A    between atoms: O_3  and  C_9
REMARK    4  A    between atoms: N_6  and  C_8
REMARK    5  A    between atoms: N_6  and  C_13
REMARK    6  A    between atoms: N_7  and  C_12
REMARK    7  A    between atoms: C_10  and  C_12
REMARK    8  A    between atoms: C_13  and  C_14
REMARK    9  A    between atoms: C_13  and  C_15
REMARK   10  A    between atoms: C_21  and  C_22
REMARK                            x       y       z     vdW  Elec       q    Type
REMARK                         _______ _______ _______ _____ _____    ______ ____
ROOT
ATOM     12  C   UNL     1       0.760  -0.161  23.751  0.00  0.00    +0.140 C 
ENDROOT
BRANCH  12  10
ATOM      2  O   UNL     1      -0.754   1.533  22.923  0.00  0.00    -0.371 OA
ATOM      8  C   UNL     1      -1.136   2.820  24.883  0.00  0.00    +0.111 C 
ATOM      9  C   UNL     1      -0.235   1.650  25.229  0.00  0.00    +0.164 C 
ATOM     10  C   UNL     1       0.313   1.286  23.855  0.00  0.00    +0.164 C 
ATOM     11  C   UNL     1      -1.742   2.356  23.568  0.00  0.00    +0.181 C 
BRANCH   9   3
ATOM      3  O   UNL     1       0.796   2.003  26.130  0.00  0.00    -0.388 OA
ATOM     24  H   UNL     1       0.839   2.972  26.182  0.00  0.00    +0.210 HD
ENDBRANCH   9   3
BRANCH   8   6
ATOM      6  N   UNL     1      -2.137   3.105  25.897  0.00  0.00    -0.307 NA
ATOM     23  H   UNL     1      -1.738   2.988  26.828  0.00  0.00    +0.123 HD
BRANCH   6  13
ATOM     13  C   UNL     1      -2.666   4.456  25.750  0.00  0.00    +0.048 C 
ATOM     14  C   UNL     1      -3.932   4.438  24.896  0.00  0.00    +0.023 C 
ATOM     15  C   UNL     1      -1.601   5.354  25.130  0.00  0.00    +0.023 C 
ENDBRANCH   6  13
ENDBRANCH   8   6
ENDBRANCH  12  10
BRANCH  12   7
ATOM      7  N   UNL     1      -0.378  -1.003  23.334  0.00  0.00    -0.187 NA
ATOM     25  H   UNL     1      -0.862  -0.706  22.477  0.00  0.00    +0.148 HD
BRANCH   7   1
ATOM      1  S   UNL     1      -1.255  -1.887  24.493  0.00  0.00    +0.058 S 
ATOM      4  O   UNL     1      -0.529  -1.884  25.749  0.00  0.00    -0.153 OA
ATOM      5  O   UNL     1      -1.687  -3.139  23.904  0.00  0.00    -0.153 OA
BRANCH   1  16
ATOM     16  C   UNL     1      -2.698  -0.886  24.696  0.00  0.00    +0.105 A 
ATOM     17  C   UNL     1      -3.375  -0.404  23.576  0.00  0.00    +0.029 A 
ATOM     18  C   UNL     1      -3.158  -0.576  25.976  0.00  0.00    +0.029 A 
ATOM     19  C   UNL     1      -4.511   0.389  23.736  0.00  0.00    +0.005 A 
ATOM     20  C   UNL     1      -4.294   0.217  26.136  0.00  0.00    +0.005 A 
ATOM     21  C   UNL     1      -4.972   0.698  25.015  0.00  0.00    -0.050 A 
ATOM     22  C   UNL     1      -6.187   1.545  25.186  0.00  0.00    +0.044 C 
ENDBRANCH   1  16
ENDBRANCH   7   1
ENDBRANCH  12   7
TORSDOF 7
ENDMDL
MODEL 8
REMARK VINA RESULT:      -3.8      2.800      5.366
REMARK  Name = 75536696
REMARK  10 active torsions:
REMARK  status: ('A' for Active; 'I' for Inactive)
REMARK    1  A    between atoms: S_1  and  N_7
REMARK    2  A    between atoms: S_1  and  C_16
REMARK    3  A    between atoms: O_3  and  C_9
REMARK    4  A    between atoms: N_6  and  C_8
REMARK    5  A    between atoms: N_6  and  C_13
REMARK    6  A    between atoms: N_7  and  C_12
REMARK    7  A    between atoms: C_10  and  C_12
REMARK    8  A    between atoms: C_13  and  C_14
REMARK    9  A    between atoms: C_13  and  C_15
REMARK   10  A    between atoms: C_21  and  C_22
REMARK                            x       y       z     vdW  Elec       q    Type
REMARK                         _______ _______ _______ _____ _____    ______ ____
ROOT
ATOM     12  C   UNL     1       0.455  -0.035  23.734  0.00  0.00    +0.140 C 
ENDROOT
BRANCH  12  10
ATOM      2  O   UNL     1      -0.626  -0.161  25.892  0.00  0.00    -0.371 OA
ATOM      8  C   UNL     1      -2.170  -1.933  25.542  0.00  0.00    +0.111 C 
ATOM      9  C   UNL     1      -1.424  -1.664  24.248  0.00  0.00    +0.164 C 
ATOM     10  C   UNL     1      -0.188  -0.942  24.767  0.00  0.00    +0.164 C 
ATOM     11  C   UNL     1      -1.914  -0.646  26.310  0.00  0.00    +0.181 C 
BRANCH   9   3
ATOM      3  O   UNL     1      -1.090  -2.850  23.555  0.00  0.00    -0.388 OA
ATOM     24  H   UNL     1      -0.128  -2.976  23.610  0.00  0.00    +0.210 HD
ENDBRANCH   9   3
BRANCH   8   6
ATOM      6  N   UNL     1      -3.585  -2.208  25.355  0.00  0.00    -0.307 NA
ATOM     23  H   UNL     1      -4.121  -1.840  26.140  0.00  0.00    +0.123 HD
BRANCH   6  13
ATOM     13  C   UNL     1      -4.072  -1.633  24.107  0.00  0.00    +0.048 C 
ATOM     14  C   UNL     1      -4.922  -0.397  24.391  0.00  0.00    +0.023 C 
ATOM     15  C   UNL     1      -4.871  -2.682  23.341  0.00  0.00    +0.023 C 
ENDBRANCH   6  13
ENDBRANCH   8   6
ENDBRANCH  12  10
BRANCH  12   7
ATOM      7  N   UNL     1      -0.426   1.119  23.469  0.00  0.00    -0.187 NA
ATOM     25  H   UNL     1      -0.824   1.167  22.523  0.00  0.00    +0.148 HD
BRANCH   7   1
ATOM      1  S   UNL     1      -0.217   2.569  24.334  0.00  0.00    +0.058 S 
ATOM      4  O   UNL     1       0.309   3.587  23.446  0.00  0.00    -0.153 OA
ATOM      5  O   UNL     1       0.451   2.278  25.587  0.00  0.00    -0.153 OA
BRANCH   1  16
ATOM     16  C   UNL     1      -1.886   3.000  24.727  0.00  0.00    +0.105 A 
ATOM     17  C   UNL     1      -2.921   2.640  23.863  0.00  0.00    +0.029 A 
ATOM     18  C   UNL     1      -2.169   3.703  25.898  0.00  0.00    +0.029 A 
ATOM     19  C   UNL     1      -4.237   2.983  24.171  0.00  0.00    +0.005 A 
ATOM     20  C   UNL     1      -3.485   4.046  26.206  0.00  0.00    +0.005 A 
ATOM     21  C   UNL     1      -4.519   3.685  25.342  0.00  0.00    -0.050 A 
ATOM     22  C   UNL     1      -5.927   4.051  25.671  0.00  0.00    +0.044 C 
ENDBRANCH   1  16
ENDBRANCH   7   1
ENDBRANCH  12   7
TORSDOF 7
ENDMDL
MODEL 9
REMARK VINA RESULT:      -3.7      2.410      4.715
REMARK  Name = 75536696
REMARK  10 active torsions:
REMARK  status: ('A' for Active; 'I' for Inactive)
REMARK    1  A    between atoms: S_1  and  N_7
REMARK    2  A    between atoms: S_1  and  C_16
REMARK    3  A    between atoms: O_3  and  C_9
REMARK    4  A    between atoms: N_6  and  C_8
REMARK    5  A    between atoms: N_6  and  C_13
REMARK    6  A    between atoms: N_7  and  C_12
REMARK    7  A    between atoms: C_10  and  C_12
REMARK    8  A    between atoms: C_13  and  C_14
REMARK    9  A    between atoms: C_13  and  C_15
REMARK   10  A    between atoms: C_21  and  C_22
REMARK                            x       y       z     vdW  Elec       q    Type
REMARK                         _______ _______ _______ _____ _____    ______ ____
ROOT
ATOM     12  C   UNL     1      -0.021   1.918  25.418  0.00  0.00    +0.140 C 
ENDROOT
BRANCH  12  10
ATOM      2  O   UNL     1      -1.096   2.217  23.273  0.00  0.00    -0.371 OA
ATOM      8  C   UNL     1      -3.187   3.141  23.919  0.00  0.00    +0.111 C 
ATOM      9  C   UNL     1      -2.381   2.824  25.165  0.00  0.00    +0.164 C 
ATOM     10  C   UNL     1      -0.969   2.770  24.595  0.00  0.00    +0.164 C 
ATOM     11  C   UNL     1      -2.477   2.292  22.877  0.00  0.00    +0.181 C 
BRANCH   9   3
ATOM      3  O   UNL     1      -2.507   3.818  26.163  0.00  0.00    -0.388 OA
ATOM     24  H   UNL     1      -1.688   3.832  26.686  0.00  0.00    +0.210 HD
ENDBRANCH   9   3
BRANCH   8   6
ATOM      6  N   UNL     1      -4.599   2.821  24.041  0.00  0.00    -0.307 NA
ATOM     23  H   UNL     1      -4.778   1.882  23.686  0.00  0.00    +0.123 HD
BRANCH   6  13
ATOM     13  C   UNL     1      -5.044   2.922  25.426  0.00  0.00    +0.048 C 
ATOM     14  C   UNL     1      -5.899   1.712  25.797  0.00  0.00    +0.023 C 
ATOM     15  C   UNL     1      -5.823   4.220  25.616  0.00  0.00    +0.023 C 
ENDBRANCH   6  13
ENDBRANCH   8   6
ENDBRANCH  12  10
BRANCH  12   7
ATOM      7  N   UNL     1      -0.683   0.649  25.781  0.00  0.00    -0.187 NA
ATOM     25  H   UNL     1      -1.012   0.580  26.752  0.00  0.00    +0.148 HD
BRANCH   7   1
ATOM      1  S   UNL     1      -0.287  -0.785  24.956  0.00  0.00    +0.058 S 
ATOM      4  O   UNL     1       0.317  -1.722  25.884  0.00  0.00    -0.153 OA
ATOM      5  O   UNL     1       0.388  -0.447  23.718  0.00  0.00    -0.153 OA
BRANCH   1  16
ATOM     16  C   UNL     1      -1.884  -1.405  24.521  0.00  0.00    +0.105 A 
ATOM     17  C   UNL     1      -2.084  -2.778  24.377  0.00  0.00    +0.029 A 
ATOM     18  C   UNL     1      -2.944  -0.521  24.317  0.00  0.00    +0.029 A 
ATOM     19  C   UNL     1      -3.343  -3.267  24.030  0.00  0.00    +0.005 A 
ATOM     20  C   UNL     1      -4.204  -1.010  23.970  0.00  0.00    +0.005 A 
ATOM     21  C   UNL     1      -4.403  -2.383  23.827  0.00  0.00    -0.050 A 
ATOM     22  C   UNL     1      -5.749  -2.906  23.457  0.00  0.00    +0.044 C 
ENDBRANCH   1  16
ENDBRANCH   7   1
ENDBRANCH  12   7
TORSDOF 7
ENDMDL
MODEL 10
REMARK VINA RESULT:      -3.6      2.776      4.164
REMARK  Name = 75536696
REMARK  10 active torsions:
REMARK  status: ('A' for Active; 'I' for Inactive)
REMARK    1  A    between atoms: S_1  and  N_7
REMARK    2  A    between atoms: S_1  and  C_16
REMARK    3  A    between atoms: O_3  and  C_9
REMARK    4  A    between atoms: N_6  and  C_8
REMARK    5  A    between atoms: N_6  and  C_13
REMARK    6  A    between atoms: N_7  and  C_12
REMARK    7  A    between atoms: C_10  and  C_12
REMARK    8  A    between atoms: C_13  and  C_14
REMARK    9  A    between atoms: C_13  and  C_15
REMARK   10  A    between atoms: C_21  and  C_22
REMARK                            x       y       z     vdW  Elec       q    Type
REMARK                         _______ _______ _______ _____ _____    ______ ____
ROOT
ATOM     12  C   UNL     1      -0.822  -1.414  24.775  0.00  0.00    +0.140 C 
ENDROOT
BRANCH  12  10
ATOM      2  O   UNL     1      -0.403   0.943  25.109  0.00  0.00    -0.371 OA
ATOM      8  C   UNL     1       1.286   1.354  23.489  0.00  0.00    +0.111 C 
ATOM      9  C   UNL     1       0.930  -0.120  23.468  0.00  0.00    +0.164 C 
ATOM     10  C   UNL     1      -0.447  -0.098  24.118  0.00  0.00    +0.164 C 
ATOM     11  C   UNL     1       0.739   1.777  24.843  0.00  0.00    +0.181 C 
BRANCH   9   3
ATOM      3  O   UNL     1       0.885  -0.652  22.159  0.00  0.00    -0.388 OA
ATOM     24  H   UNL     1      -0.045  -0.723  21.888  0.00  0.00    +0.210 HD
ENDBRANCH   9   3
BRANCH   8   6
ATOM      6  N   UNL     1       2.709   1.613  23.349  0.00  0.00    -0.307 NA
ATOM     23  H   UNL     1       3.088   1.973  24.224  0.00  0.00    +0.123 HD
BRANCH   6  13
ATOM     13  C   UNL     1       3.427   0.407  22.955  0.00  0.00    +0.048 C 
ATOM     14  C   UNL     1       4.769   0.329  23.681  0.00  0.00    +0.023 C 
ATOM     15  C   UNL     1       3.623   0.402  21.443  0.00  0.00    +0.023 C 
ENDBRANCH   6  13
ENDBRANCH   8   6
ENDBRANCH  12  10
BRANCH  12   7
ATOM      7  N   UNL     1      -1.934  -2.040  24.033  0.00  0.00    -0.187 NA
ATOM     25  H   UNL     1      -1.772  -2.189  23.030  0.00  0.00    +0.148 HD
BRANCH   7   1
ATOM      1  S   UNL     1      -3.536  -1.849  24.574  0.00  0.00    +0.058 S 
ATOM      4  O   UNL     1      -3.607  -2.173  25.986  0.00  0.00    -0.153 OA
ATOM      5  O   UNL     1      -4.432  -2.491  23.632  0.00  0.00    -0.153 OA
BRANCH   1  16
ATOM     16  C   UNL     1      -3.770  -0.105  24.404  0.00  0.00    +0.105 A 
ATOM     17  C   UNL     1      -3.203   0.572  23.324  0.00  0.00    +0.029 A 
ATOM     18  C   UNL     1      -4.518   0.595  25.350  0.00  0.00    +0.029 A 
ATOM     19  C   UNL     1      -3.385   1.948  23.191  0.00  0.00    +0.005 A 
ATOM     20  C   UNL     1      -4.700   1.971  25.218  0.00  0.00    +0.005 A 
ATOM     21  C   UNL     1      -4.134   2.648  24.137  0.00  0.00    -0.050 A 
ATOM     22  C   UNL     1      -4.328   4.119  23.994  0.00  0.00    +0.044 C 
ENDBRANCH   1  16
ENDBRANCH   7   1
ENDBRANCH  12   7
TORSDOF 7
ENDMDL
