MODEL 1
REMARK VINA RESULT:      -4.4      0.000      0.000
REMARK  Name = 26743750
REMARK  7 active torsions:
REMARK  status: ('A' for Active; 'I' for Inactive)
REMARK    1  A    between atoms: O_4  and  C_14
REMARK    2  A    between atoms: O_6  and  C_27
REMARK    3  A    between atoms: O_6  and  C_28
REMARK    4  A    between atoms: N_7  and  C_16
REMARK    5  A    between atoms: C_12  and  C_17
REMARK    6  A    between atoms: C_16  and  C_18
REMARK    7  A    between atoms: C_19  and  C_21
REMARK                            x       y       z     vdW  Elec       q    Type
REMARK                         _______ _______ _______ _____ _____    ______ ____
ROOT
ATOM      5  O   UNL     1      -2.122   1.886  25.751  0.00  0.00    -0.336 OA
ATOM      8  N   UNL     1      -1.652   1.635  23.576  0.00  0.00    -0.190 NA
ATOM     11  N   UNL     1      -0.763   1.552  25.683  0.00  0.00    -0.056 NA
ATOM     17  C   UNL     1      -2.569   1.914  24.469  0.00  0.00    +0.245 A 
ATOM     19  C   UNL     1      -0.562   1.421  24.368  0.00  0.00    +0.202 A 
ENDROOT
BRANCH  19  21
ATOM     21  C   UNL     1       0.715   1.074  23.814  0.00  0.00    +0.023 A 
ATOM     23  C   UNL     1       0.967  -0.237  23.408  0.00  0.00    +0.015 A 
ATOM     24  C   UNL     1       1.706   2.047  23.684  0.00  0.00    +0.015 A 
ATOM     25  C   UNL     1       2.210  -0.574  22.872  0.00  0.00    +0.046 A 
ATOM     26  C   UNL     1       2.948   1.711  23.146  0.00  0.00    +0.046 A 
ATOM     27  C   UNL     1       3.200   0.399  22.741  0.00  0.00    +0.130 A 
BRANCH  27   6
ATOM      6  O   UNL     1       4.413   0.071  22.217  0.00  0.00    -0.406 OA
BRANCH   6  28
ATOM      1  F   UNL     1       5.653   0.888  23.917  0.00  0.00    -0.133 F 
ATOM      2  F   UNL     1       5.218  -1.253  23.900  0.00  0.00    -0.133 F 
ATOM      3  F   UNL     1       6.641  -0.391  22.446  0.00  0.00    -0.133 F 
ATOM     28  C   UNL     1       5.487  -0.188  23.115  0.00  0.00    +0.575 C 
ENDBRANCH   6  28
ENDBRANCH  27   6
ENDBRANCH  19  21
BRANCH  17  12
ATOM      7  N   UNL     1      -4.933   1.352  25.008  0.00  0.00    -0.282 NA
ATOM     12  C   UNL     1      -4.030   2.257  24.269  0.00  0.00    +0.149 C 
ATOM     13  C   UNL     1      -4.386   3.667  24.774  0.00  0.00    +0.061 C 
ATOM     14  C   UNL     1      -5.529   3.456  25.759  0.00  0.00    +0.130 C 
ATOM     15  C   UNL     1      -6.127   2.130  25.329  0.00  0.00    +0.117 C 
BRANCH  14   4
ATOM      4  O   UNL     1      -6.468   4.509  25.671  0.00  0.00    -0.390 OA
ATOM     29  H   UNL     1      -6.610   4.697  24.727  0.00  0.00    +0.210 HD
ENDBRANCH  14   4
BRANCH   7  16
ATOM     16  C   UNL     1      -5.253   0.135  24.273  0.00  0.00    +0.159 C 
BRANCH  16  18
ATOM      9  N   UNL     1      -3.213  -0.784  25.402  0.00  0.00    -0.347 N 
ATOM     10  N   UNL     1      -4.142  -2.095  23.868  0.00  0.00    -0.239 NA
ATOM     18  C   UNL     1      -4.219  -0.938  24.487  0.00  0.00    +0.121 A 
ATOM     20  C   UNL     1      -2.447  -1.914  25.362  0.00  0.00    +0.104 A 
ATOM     22  C   UNL     1      -3.039  -2.708  24.408  0.00  0.00    +0.130 A 
ATOM     30  H   UNL     1      -3.064   0.017  26.001  0.00  0.00    +0.167 HD
ENDBRANCH  16  18
ENDBRANCH   7  16
ENDBRANCH  17  12
TORSDOF 7
ENDMDL
MODEL 2
REMARK VINA RESULT:      -3.1      1.853      3.565
REMARK  Name = 26743750
REMARK  7 active torsions:
REMARK  status: ('A' for Active; 'I' for Inactive)
REMARK    1  A    between atoms: O_4  and  C_14
REMARK    2  A    between atoms: O_6  and  C_27
REMARK    3  A    between atoms: O_6  and  C_28
REMARK    4  A    between atoms: N_7  and  C_16
REMARK    5  A    between atoms: C_12  and  C_17
REMARK    6  A    between atoms: C_16  and  C_18
REMARK    7  A    between atoms: C_19  and  C_21
REMARK                            x       y       z     vdW  Elec       q    Type
REMARK                         _______ _______ _______ _____ _____    ______ ____
ROOT
ATOM      5  O   UNL     1      -2.957  -0.629  24.439  0.00  0.00    -0.336 OA
ATOM      8  N   UNL     1      -1.648   1.176  24.654  0.00  0.00    -0.190 NA
ATOM     11  N   UNL     1      -1.722  -0.976  23.878  0.00  0.00    -0.056 NA
ATOM     17  C   UNL     1      -2.829   0.652  24.872  0.00  0.00    +0.245 A 
ATOM     19  C   UNL     1      -1.004   0.139  24.043  0.00  0.00    +0.202 A 
ENDROOT
BRANCH  19  21
ATOM     21  C   UNL     1       0.358   0.252  23.607  0.00  0.00    +0.023 A 
ATOM     23  C   UNL     1       1.131   1.344  24.005  0.00  0.00    +0.015 A 
ATOM     24  C   UNL     1       0.909  -0.728  22.781  0.00  0.00    +0.015 A 
ATOM     25  C   UNL     1       2.454   1.454  23.578  0.00  0.00    +0.046 A 
ATOM     26  C   UNL     1       2.232  -0.619  22.355  0.00  0.00    +0.046 A 
ATOM     27  C   UNL     1       3.005   0.473  22.753  0.00  0.00    +0.130 A 
BRANCH  27   6
ATOM      6  O   UNL     1       4.296   0.580  22.337  0.00  0.00    -0.406 OA
BRANCH   6  28
ATOM      1  F   UNL     1       4.875  -1.001  23.839  0.00  0.00    -0.133 F 
ATOM      2  F   UNL     1       6.424  -0.245  22.496  0.00  0.00    -0.133 F 
ATOM      3  F   UNL     1       5.645   1.023  24.130  0.00  0.00    -0.133 F 
ATOM     28  C   UNL     1       5.324   0.101  23.198  0.00  0.00    +0.575 C 
ENDBRANCH   6  28
ENDBRANCH  27   6
ENDBRANCH  19  21
BRANCH  17  12
ATOM      7  N   UNL     1      -4.129   2.728  25.315  0.00  0.00    -0.282 NA
ATOM     12  C   UNL     1      -4.046   1.270  25.528  0.00  0.00    +0.149 C 
ATOM     13  C   UNL     1      -5.369   0.715  24.971  0.00  0.00    +0.061 C 
ATOM     14  C   UNL     1      -6.148   1.940  24.510  0.00  0.00    +0.130 C 
ATOM     15  C   UNL     1      -5.549   3.069  25.328  0.00  0.00    +0.117 C 
BRANCH  14   4
ATOM      4  O   UNL     1      -7.530   1.783  24.764  0.00  0.00    -0.390 OA
ATOM     29  H   UNL     1      -7.637   0.989  25.317  0.00  0.00    +0.210 HD
ENDBRANCH  14   4
BRANCH   7  16
ATOM     16  C   UNL     1      -3.373   3.496  26.297  0.00  0.00    +0.159 C 
BRANCH  16  18
ATOM      9  N   UNL     1      -1.011   3.694  25.481  0.00  0.00    -0.347 N 
ATOM     10  N   UNL     1      -2.279   5.498  25.218  0.00  0.00    -0.239 NA
ATOM     18  C   UNL     1      -2.243   4.262  25.661  0.00  0.00    +0.121 A 
ATOM     20  C   UNL     1      -0.212   4.629  24.887  0.00  0.00    +0.104 A 
ATOM     22  C   UNL     1      -1.016   5.735  24.735  0.00  0.00    +0.130 A 
ATOM     30  H   UNL     1      -0.740   2.754  25.738  0.00  0.00    +0.167 HD
ENDBRANCH  16  18
ENDBRANCH   7  16
ENDBRANCH  17  12
TORSDOF 7
ENDMDL
