MODEL 1
REMARK VINA RESULT:      -4.8      0.000      0.000
REMARK  Name = 40777846
REMARK  7 active torsions:
REMARK  status: ('A' for Active; 'I' for Inactive)
REMARK    1  A    between atoms: O_2  and  C_9
REMARK    2  A    between atoms: O_3  and  C_10
REMARK    3  A    between atoms: N_7  and  C_13
REMARK    4  A    between atoms: C_8  and  C_12
REMARK    5  A    between atoms: C_11  and  C_13
REMARK    6  A    between atoms: C_12  and  C_14
REMARK    7  A    between atoms: C_21  and  C_24
REMARK                            x       y       z     vdW  Elec       q    Type
REMARK                         _______ _______ _______ _____ _____    ______ ____
ROOT
ATOM      1  O   UNL     1      -6.055  -8.526  10.692  0.00  0.00    -0.366 OA
ATOM      8  C   UNL     1      -5.281  -9.395  11.538  0.00  0.00    +0.159 C 
ATOM      9  C   UNL     1      -4.468 -10.267  10.596  0.00  0.00    +0.175 C 
ATOM     10  C   UNL     1      -4.165  -9.299   9.472  0.00  0.00    +0.176 C 
ATOM     11  C   UNL     1      -5.468  -8.513   9.371  0.00  0.00    +0.167 C 
ENDROOT
BRANCH   9   2
ATOM      2  O   UNL     1      -3.309 -10.781  11.219  0.00  0.00    -0.387 OA
ATOM     25  H   UNL     1      -3.289 -10.433  12.127  0.00  0.00    +0.210 HD
ENDBRANCH   9   2
BRANCH  10   3
ATOM      3  O   UNL     1      -3.132  -8.395   9.860  0.00  0.00    -0.387 OA
ATOM     26  H   UNL     1      -3.558  -7.562  10.124  0.00  0.00    +0.210 HD
ENDBRANCH  10   3
BRANCH   8  12
ATOM     12  C   UNL     1      -6.209 -10.187  12.443  0.00  0.00    +0.130 C 
BRANCH  12  14
ATOM      4  O   UNL     1      -4.363 -10.671  13.848  0.00  0.00    -0.275 OA
ATOM      6  N   UNL     1      -6.411 -10.233  14.876  0.00  0.00    -0.271 N 
ATOM     14  C   UNL     1      -5.561 -10.390  13.791  0.00  0.00    +0.222 C 
ATOM     15  C   UNL     1      -7.849  -9.895  14.806  0.00  0.00    +0.118 C 
ATOM     16  C   UNL     1      -8.382  -9.818  16.240  0.00  0.00    +0.056 C 
ATOM     17  C   UNL     1      -6.054 -10.368  16.234  0.00  0.00    +0.039 A 
ATOM     18  C   UNL     1      -7.166 -10.137  17.047  0.00  0.00    -0.024 A 
ATOM     19  C   UNL     1      -4.823 -10.679  16.794  0.00  0.00    +0.024 A 
ATOM     20  C   UNL     1      -7.076 -10.210  18.428  0.00  0.00    +0.005 A 
ATOM     22  C   UNL     1      -4.725 -10.755  18.187  0.00  0.00    +0.002 A 
ATOM     23  C   UNL     1      -5.843 -10.522  18.999  0.00  0.00    +0.000 A 
ENDBRANCH  12  14
ENDBRANCH   8  12
BRANCH  11  13
ATOM     13  C   UNL     1      -6.469  -9.138   8.409  0.00  0.00    +0.138 C 
BRANCH  13   7
ATOM      5  O   UNL     1      -8.115  -6.763   8.124  0.00  0.00    -0.276 OA
ATOM      7  N   UNL     1      -7.814  -8.950   8.866  0.00  0.00    -0.313 N 
ATOM     21  C   UNL     1      -8.532  -7.772   8.685  0.00  0.00    +0.210 C 
ATOM     24  C   UNL     1      -9.928  -7.852   9.239  0.00  0.00    +0.109 C 
ATOM     27  H   UNL     1      -8.266  -9.732   9.332  0.00  0.00    +0.149 HD
ENDBRANCH  13   7
ENDBRANCH  11  13
TORSDOF 6
ENDMDL
MODEL 2
REMARK VINA RESULT:      -4.2     14.685     17.521
REMARK  Name = 40777846
REMARK  7 active torsions:
REMARK  status: ('A' for Active; 'I' for Inactive)
REMARK    1  A    between atoms: O_2  and  C_9
REMARK    2  A    between atoms: O_3  and  C_10
REMARK    3  A    between atoms: N_7  and  C_13
REMARK    4  A    between atoms: C_8  and  C_12
REMARK    5  A    between atoms: C_11  and  C_13
REMARK    6  A    between atoms: C_12  and  C_14
REMARK    7  A    between atoms: C_21  and  C_24
REMARK                            x       y       z     vdW  Elec       q    Type
REMARK                         _______ _______ _______ _____ _____    ______ ____
ROOT
ATOM      1  O   UNL     1      -3.412  -0.473  25.792  0.00  0.00    -0.366 OA
ATOM      8  C   UNL     1      -4.471  -0.913  24.924  0.00  0.00    +0.159 C 
ATOM      9  C   UNL     1      -3.800  -1.760  23.855  0.00  0.00    +0.175 C 
ATOM     10  C   UNL     1      -2.698  -2.432  24.647  0.00  0.00    +0.176 C 
ATOM     11  C   UNL     1      -2.254  -1.314  25.585  0.00  0.00    +0.167 C 
ENDROOT
BRANCH   9   2
ATOM      2  O   UNL     1      -4.699  -2.673  23.262  0.00  0.00    -0.387 OA
ATOM     25  H   UNL     1      -4.955  -2.308  22.398  0.00  0.00    +0.210 HD
ENDBRANCH   9   2
BRANCH  10   3
ATOM      3  O   UNL     1      -3.234  -3.489  25.442  0.00  0.00    -0.387 OA
ATOM     26  H   UNL     1      -2.502  -3.859  25.965  0.00  0.00    +0.210 HD
ENDBRANCH  10   3
BRANCH   8  12
ATOM     12  C   UNL     1      -5.208   0.291  24.364  0.00  0.00    +0.130 C 
BRANCH  12  14
ATOM      4  O   UNL     1      -5.167   2.018  25.987  0.00  0.00    -0.275 OA
ATOM      6  N   UNL     1      -3.571   2.102  24.287  0.00  0.00    -0.271 N 
ATOM     14  C   UNL     1      -4.652   1.559  24.967  0.00  0.00    +0.222 C 
ATOM     15  C   UNL     1      -2.953   1.549  23.063  0.00  0.00    +0.118 C 
ATOM     16  C   UNL     1      -1.792   2.468  22.670  0.00  0.00    +0.056 C 
ATOM     17  C   UNL     1      -2.874   3.276  24.644  0.00  0.00    +0.039 A 
ATOM     18  C   UNL     1      -1.844   3.516  23.733  0.00  0.00    -0.024 A 
ATOM     19  C   UNL     1      -3.089   4.137  25.710  0.00  0.00    +0.024 A 
ATOM     20  C   UNL     1      -1.008   4.614  23.862  0.00  0.00    +0.005 A 
ATOM     22  C   UNL     1      -2.250   5.249  25.848  0.00  0.00    +0.002 A 
ATOM     23  C   UNL     1      -1.217   5.485  24.931  0.00  0.00    +0.000 A 
ENDBRANCH  12  14
ENDBRANCH   8  12
BRANCH  11  13
ATOM     13  C   UNL     1      -1.147  -0.449  24.999  0.00  0.00    +0.138 C 
BRANCH  13   7
ATOM      5  O   UNL     1       0.811   1.648  24.553  0.00  0.00    -0.276 OA
ATOM      7  N   UNL     1      -0.806   0.626  25.883  0.00  0.00    -0.313 N 
ATOM     21  C   UNL     1       0.150   1.592  25.587  0.00  0.00    +0.210 C 
ATOM     24  C   UNL     1       0.293   2.619  26.677  0.00  0.00    +0.109 C 
ATOM     27  H   UNL     1      -1.307   0.686  26.764  0.00  0.00    +0.149 HD
ENDBRANCH  13   7
ENDBRANCH  11  13
TORSDOF 6
ENDMDL
MODEL 3
REMARK VINA RESULT:      -4.2      1.929      2.724
REMARK  Name = 40777846
REMARK  7 active torsions:
REMARK  status: ('A' for Active; 'I' for Inactive)
REMARK    1  A    between atoms: O_2  and  C_9
REMARK    2  A    between atoms: O_3  and  C_10
REMARK    3  A    between atoms: N_7  and  C_13
REMARK    4  A    between atoms: C_8  and  C_12
REMARK    5  A    between atoms: C_11  and  C_13
REMARK    6  A    between atoms: C_12  and  C_14
REMARK    7  A    between atoms: C_21  and  C_24
REMARK                            x       y       z     vdW  Elec       q    Type
REMARK                         _______ _______ _______ _____ _____    ______ ____
ROOT
ATOM      1  O   UNL     1      -6.327  -9.294  12.092  0.00  0.00    -0.366 OA
ATOM      8  C   UNL     1      -4.951  -9.676  11.924  0.00  0.00    +0.159 C 
ATOM      9  C   UNL     1      -4.816 -10.099  10.471  0.00  0.00    +0.175 C 
ATOM     10  C   UNL     1      -5.766  -9.138   9.786  0.00  0.00    +0.176 C 
ATOM     11  C   UNL     1      -6.909  -9.051  10.791  0.00  0.00    +0.167 C 
ENDROOT
BRANCH   9   2
ATOM      2  O   UNL     1      -3.486  -9.995  10.010  0.00  0.00    -0.387 OA
ATOM     25  H   UNL     1      -3.191  -9.084  10.176  0.00  0.00    +0.210 HD
ENDBRANCH   9   2
BRANCH  10   3
ATOM      3  O   UNL     1      -5.171  -7.846   9.679  0.00  0.00    -0.387 OA
ATOM     26  H   UNL     1      -5.163  -7.455  10.570  0.00  0.00    +0.210 HD
ENDBRANCH  10   3
BRANCH   8  12
ATOM     12  C   UNL     1      -4.602 -10.779  12.908  0.00  0.00    +0.130 C 
BRANCH  12  14
ATOM      4  O   UNL     1      -6.786 -10.756  13.828  0.00  0.00    -0.275 OA
ATOM      6  N   UNL     1      -4.991 -10.765  15.319  0.00  0.00    -0.271 N 
ATOM     14  C   UNL     1      -5.577 -10.765  14.061  0.00  0.00    +0.222 C 
ATOM     15  C   UNL     1      -3.539 -10.776  15.596  0.00  0.00    +0.118 C 
ATOM     16  C   UNL     1      -3.354 -10.779  17.117  0.00  0.00    +0.056 C 
ATOM     17  C   UNL     1      -5.678 -10.753  16.551  0.00  0.00    +0.039 A 
ATOM     18  C   UNL     1      -4.765 -10.760  17.608  0.00  0.00    -0.024 A 
ATOM     19  C   UNL     1      -7.043 -10.737  16.798  0.00  0.00    +0.024 A 
ATOM     20  C   UNL     1      -5.190 -10.751  18.927  0.00  0.00    +0.005 A 
ATOM     22  C   UNL     1      -7.480 -10.728  18.127  0.00  0.00    +0.002 A 
ATOM     23  C   UNL     1      -6.560 -10.735  19.184  0.00  0.00    +0.000 A 
ENDBRANCH  12  14
ENDBRANCH   8  12
BRANCH  11  13
ATOM     13  C   UNL     1      -7.988 -10.101  10.559  0.00  0.00    +0.138 C 
BRANCH  13   7
ATOM      5  O   UNL     1     -10.573  -8.960  11.225  0.00  0.00    -0.276 OA
ATOM      7  N   UNL     1      -8.758 -10.323  11.746  0.00  0.00    -0.313 N 
ATOM     21  C   UNL     1      -9.995  -9.733  11.985  0.00  0.00    +0.210 C 
ATOM     24  C   UNL     1     -10.597 -10.157  13.296  0.00  0.00    +0.109 C 
ATOM     27  H   UNL     1      -8.379 -10.963  12.439  0.00  0.00    +0.149 HD
ENDBRANCH  13   7
ENDBRANCH  11  13
TORSDOF 6
ENDMDL
MODEL 4
REMARK VINA RESULT:      -4.1     14.650     17.225
REMARK  Name = 40777846
REMARK  7 active torsions:
REMARK  status: ('A' for Active; 'I' for Inactive)
REMARK    1  A    between atoms: O_2  and  C_9
REMARK    2  A    between atoms: O_3  and  C_10
REMARK    3  A    between atoms: N_7  and  C_13
REMARK    4  A    between atoms: C_8  and  C_12
REMARK    5  A    between atoms: C_11  and  C_13
REMARK    6  A    between atoms: C_12  and  C_14
REMARK    7  A    between atoms: C_21  and  C_24
REMARK                            x       y       z     vdW  Elec       q    Type
REMARK                         _______ _______ _______ _____ _____    ______ ____
ROOT
ATOM      1  O   UNL     1      -1.694   2.681  23.793  0.00  0.00    -0.366 OA
ATOM      8  C   UNL     1      -2.380   3.737  24.489  0.00  0.00    +0.159 C 
ATOM      9  C   UNL     1      -1.300   4.520  25.215  0.00  0.00    +0.175 C 
ATOM     10  C   UNL     1      -0.152   4.439  24.231  0.00  0.00    +0.176 C 
ATOM     11  C   UNL     1      -0.291   3.016  23.698  0.00  0.00    +0.167 C 
ENDROOT
BRANCH   9   2
ATOM      2  O   UNL     1      -1.704   5.844  25.496  0.00  0.00    -0.387 OA
ATOM     25  H   UNL     1      -2.620   5.805  25.818  0.00  0.00    +0.210 HD
ENDBRANCH   9   2
BRANCH  10   3
ATOM      3  O   UNL     1      -0.366   5.340  23.145  0.00  0.00    -0.387 OA
ATOM     26  H   UNL     1      -1.017   4.930  22.551  0.00  0.00    +0.210 HD
ENDBRANCH  10   3
BRANCH   8  12
ATOM     12  C   UNL     1      -3.423   3.142  25.420  0.00  0.00    +0.130 C 
BRANCH  12  14
ATOM      4  O   UNL     1      -4.980   1.835  24.201  0.00  0.00    -0.275 OA
ATOM      6  N   UNL     1      -3.144   0.733  25.129  0.00  0.00    -0.271 N 
ATOM     14  C   UNL     1      -3.934   1.840  24.852  0.00  0.00    +0.222 C 
ATOM     15  C   UNL     1      -1.889   0.741  25.910  0.00  0.00    +0.118 C 
ATOM     16  C   UNL     1      -1.357  -0.695  25.955  0.00  0.00    +0.056 C 
ATOM     17  C   UNL     1      -3.400  -0.591  24.715  0.00  0.00    +0.039 A 
ATOM     18  C   UNL     1      -2.391  -1.440  25.175  0.00  0.00    -0.024 A 
ATOM     19  C   UNL     1      -4.456  -1.091  23.967  0.00  0.00    +0.024 A 
ATOM     20  C   UNL     1      -2.411  -2.798  24.900  0.00  0.00    +0.005 A 
ATOM     22  C   UNL     1      -4.484  -2.461  23.686  0.00  0.00    +0.002 A 
ATOM     23  C   UNL     1      -3.468  -3.308  24.149  0.00  0.00    +0.000 A 
ENDBRANCH  12  14
ENDBRANCH   8  12
BRANCH  11  13
ATOM     13  C   UNL     1       0.490   1.996  24.515  0.00  0.00    +0.138 C 
BRANCH  13   7
ATOM      5  O   UNL     1       0.604  -0.431  22.925  0.00  0.00    -0.276 OA
ATOM      7  N   UNL     1       1.610   1.489  23.778  0.00  0.00    -0.313 N 
ATOM     21  C   UNL     1       1.576   0.312  23.039  0.00  0.00    +0.210 C 
ATOM     24  C   UNL     1       2.879   0.026  22.344  0.00  0.00    +0.109 C 
ATOM     27  H   UNL     1       2.466   2.037  23.789  0.00  0.00    +0.149 HD
ENDBRANCH  13   7
ENDBRANCH  11  13
TORSDOF 6
ENDMDL
MODEL 5
REMARK VINA RESULT:      -4.1     14.774     17.588
REMARK  Name = 40777846
REMARK  7 active torsions:
REMARK  status: ('A' for Active; 'I' for Inactive)
REMARK    1  A    between atoms: O_2  and  C_9
REMARK    2  A    between atoms: O_3  and  C_10
REMARK    3  A    between atoms: N_7  and  C_13
REMARK    4  A    between atoms: C_8  and  C_12
REMARK    5  A    between atoms: C_11  and  C_13
REMARK    6  A    between atoms: C_12  and  C_14
REMARK    7  A    between atoms: C_21  and  C_24
REMARK                            x       y       z     vdW  Elec       q    Type
REMARK                         _______ _______ _______ _____ _____    ______ ____
ROOT
ATOM      1  O   UNL     1      -3.202  -0.529  25.818  0.00  0.00    -0.366 OA
ATOM      8  C   UNL     1      -4.272  -0.821  24.903  0.00  0.00    +0.159 C 
ATOM      9  C   UNL     1      -3.680  -1.761  23.866  0.00  0.00    +0.175 C 
ATOM     10  C   UNL     1      -2.721  -2.577  24.707  0.00  0.00    +0.176 C 
ATOM     11  C   UNL     1      -2.166  -1.526  25.665  0.00  0.00    +0.167 C 
ENDROOT
BRANCH   9   2
ATOM      2  O   UNL     1      -4.671  -2.541  23.232  0.00  0.00    -0.387 OA
ATOM     25  H   UNL     1      -4.227  -3.313  22.841  0.00  0.00    +0.210 HD
ENDBRANCH   9   2
BRANCH  10   3
ATOM      3  O   UNL     1      -3.436  -3.543  25.477  0.00  0.00    -0.387 OA
ATOM     26  H   UNL     1      -4.097  -3.063  26.004  0.00  0.00    +0.210 HD
ENDBRANCH  10   3
BRANCH   8  12
ATOM     12  C   UNL     1      -4.805   0.471  24.310  0.00  0.00    +0.130 C 
BRANCH  12  14
ATOM      4  O   UNL     1      -2.953   1.045  22.947  0.00  0.00    -0.275 OA
ATOM      6  N   UNL     1      -3.499   2.500  24.687  0.00  0.00    -0.271 N 
ATOM     14  C   UNL     1      -3.656   1.364  23.907  0.00  0.00    +0.222 C 
ATOM     15  C   UNL     1      -4.344   2.882  25.839  0.00  0.00    +0.118 C 
ATOM     16  C   UNL     1      -3.812   4.208  26.391  0.00  0.00    +0.056 C 
ATOM     17  C   UNL     1      -2.507   3.489  24.519  0.00  0.00    +0.039 A 
ATOM     18  C   UNL     1      -2.658   4.487  25.484  0.00  0.00    -0.024 A 
ATOM     19  C   UNL     1      -1.491   3.565  23.579  0.00  0.00    +0.024 A 
ATOM     20  C   UNL     1      -1.803   5.577  25.534  0.00  0.00    +0.005 A 
ATOM     22  C   UNL     1      -0.623   4.661  23.622  0.00  0.00    +0.002 A 
ATOM     23  C   UNL     1      -0.778   5.660  24.592  0.00  0.00    +0.000 A 
ENDBRANCH  12  14
ENDBRANCH   8  12
BRANCH  11  13
ATOM     13  C   UNL     1      -0.923  -0.830  25.130  0.00  0.00    +0.138 C 
BRANCH  13   7
ATOM      5  O   UNL     1       0.624   1.477  24.283  0.00  0.00    -0.276 OA
ATOM      7  N   UNL     1      -0.614   0.341  25.897  0.00  0.00    -0.313 N 
ATOM     21  C   UNL     1       0.137   1.405  25.409  0.00  0.00    +0.210 C 
ATOM     24  C   UNL     1       0.290   2.515  26.412  0.00  0.00    +0.109 C 
ATOM     27  H   UNL     1      -0.984   0.395  26.841  0.00  0.00    +0.149 HD
ENDBRANCH  13   7
ENDBRANCH  11  13
TORSDOF 6
ENDMDL
MODEL 6
REMARK VINA RESULT:      -3.8      2.275      4.366
REMARK  Name = 40777846
REMARK  7 active torsions:
REMARK  status: ('A' for Active; 'I' for Inactive)
REMARK    1  A    between atoms: O_2  and  C_9
REMARK    2  A    between atoms: O_3  and  C_10
REMARK    3  A    between atoms: N_7  and  C_13
REMARK    4  A    between atoms: C_8  and  C_12
REMARK    5  A    between atoms: C_11  and  C_13
REMARK    6  A    between atoms: C_12  and  C_14
REMARK    7  A    between atoms: C_21  and  C_24
REMARK                            x       y       z     vdW  Elec       q    Type
REMARK                         _______ _______ _______ _____ _____    ______ ____
ROOT
ATOM      1  O   UNL     1      -5.212 -10.781  10.123  0.00  0.00    -0.366 OA
ATOM      8  C   UNL     1      -6.381 -10.310  10.815  0.00  0.00    +0.159 C 
ATOM      9  C   UNL     1      -6.393  -8.803  10.625  0.00  0.00    +0.175 C 
ATOM     10  C   UNL     1      -5.838  -8.670   9.222  0.00  0.00    +0.176 C 
ATOM     11  C   UNL     1      -4.772  -9.760   9.198  0.00  0.00    +0.167 C 
ENDROOT
BRANCH   9   2
ATOM      2  O   UNL     1      -7.688  -8.261  10.768  0.00  0.00    -0.387 OA
ATOM     25  H   UNL     1      -8.321  -8.993  10.675  0.00  0.00    +0.210 HD
ENDBRANCH   9   2
BRANCH  10   3
ATOM      3  O   UNL     1      -6.837  -9.006   8.261  0.00  0.00    -0.387 OA
ATOM     26  H   UNL     1      -7.689  -8.686   8.603  0.00  0.00    +0.210 HD
ENDBRANCH  10   3
BRANCH   8  12
ATOM     12  C   UNL     1      -6.317 -10.734  12.273  0.00  0.00    +0.130 C 
BRANCH  12  14
ATOM      4  O   UNL     1      -8.662 -10.392  12.334  0.00  0.00    -0.275 OA
ATOM      6  N   UNL     1      -7.471 -10.040  14.310  0.00  0.00    -0.271 N 
ATOM     14  C   UNL     1      -7.607 -10.371  12.970  0.00  0.00    +0.222 C 
ATOM     15  C   UNL     1      -6.204 -10.017  15.071  0.00  0.00    +0.118 C 
ATOM     16  C   UNL     1      -6.530  -9.603  16.510  0.00  0.00    +0.056 C 
ATOM     17  C   UNL     1      -8.518  -9.667  15.180  0.00  0.00    +0.039 A 
ATOM     18  C   UNL     1      -8.010  -9.407  16.455  0.00  0.00    -0.024 A 
ATOM     19  C   UNL     1      -9.875  -9.543  14.922  0.00  0.00    +0.024 A 
ATOM     20  C   UNL     1      -8.840  -9.020  17.496  0.00  0.00    +0.005 A 
ATOM     22  C   UNL     1     -10.719  -9.152  15.967  0.00  0.00    +0.002 A 
ATOM     23  C   UNL     1     -10.205  -8.893  17.245  0.00  0.00    +0.000 A 
ENDBRANCH  12  14
ENDBRANCH   8  12
BRANCH  11  13
ATOM     13  C   UNL     1      -3.407  -9.269   9.660  0.00  0.00    +0.138 C 
BRANCH  13   7
ATOM      5  O   UNL     1      -0.880  -9.013  11.068  0.00  0.00    -0.276 OA
ATOM      7  N   UNL     1      -3.058  -9.830  10.932  0.00  0.00    -0.313 N 
ATOM     21  C   UNL     1      -1.817  -9.656  11.536  0.00  0.00    +0.210 C 
ATOM     24  C   UNL     1      -1.725 -10.330  12.878  0.00  0.00    +0.109 C 
ATOM     27  H   UNL     1      -3.768 -10.369  11.419  0.00  0.00    +0.149 HD
ENDBRANCH  13   7
ENDBRANCH  11  13
TORSDOF 6
ENDMDL
MODEL 7
REMARK VINA RESULT:      -3.7      2.675      4.767
REMARK  Name = 40777846
REMARK  7 active torsions:
REMARK  status: ('A' for Active; 'I' for Inactive)
REMARK    1  A    between atoms: O_2  and  C_9
REMARK    2  A    between atoms: O_3  and  C_10
REMARK    3  A    between atoms: N_7  and  C_13
REMARK    4  A    between atoms: C_8  and  C_12
REMARK    5  A    between atoms: C_11  and  C_13
REMARK    6  A    between atoms: C_12  and  C_14
REMARK    7  A    between atoms: C_21  and  C_24
REMARK                            x       y       z     vdW  Elec       q    Type
REMARK                         _______ _______ _______ _____ _____    ______ ____
ROOT
ATOM      1  O   UNL     1      -7.215  -9.224  11.738  0.00  0.00    -0.366 OA
ATOM      8  C   UNL     1      -6.555  -9.579  10.510  0.00  0.00    +0.159 C 
ATOM      9  C   UNL     1      -7.638 -10.160   9.616  0.00  0.00    +0.175 C 
ATOM     10  C   UNL     1      -8.833  -9.313   9.997  0.00  0.00    +0.176 C 
ATOM     11  C   UNL     1      -8.639  -9.148  11.501  0.00  0.00    +0.167 C 
ENDROOT
BRANCH   9   2
ATOM      2  O   UNL     1      -7.300 -10.068   8.248  0.00  0.00    -0.387 OA
ATOM     25  H   UNL     1      -6.350 -10.261   8.170  0.00  0.00    +0.210 HD
ENDBRANCH   9   2
BRANCH  10   3
ATOM      3  O   UNL     1      -8.739  -8.022   9.395  0.00  0.00    -0.387 OA
ATOM     26  H   UNL     1      -7.808  -7.745   9.447  0.00  0.00    +0.210 HD
ENDBRANCH  10   3
BRANCH   8  12
ATOM     12  C   UNL     1      -5.426 -10.553  10.800  0.00  0.00    +0.130 C 
BRANCH  12  14
ATOM      4  O   UNL     1      -6.130 -10.777  13.052  0.00  0.00    -0.275 OA
ATOM      6  N   UNL     1      -3.846 -10.499  12.661  0.00  0.00    -0.271 N 
ATOM     14  C   UNL     1      -5.177 -10.621  12.288  0.00  0.00    +0.222 C 
ATOM     15  C   UNL     1      -2.703 -10.313  11.742  0.00  0.00    +0.118 C 
ATOM     16  C   UNL     1      -1.429 -10.235  12.589  0.00  0.00    +0.056 C 
ATOM     17  C   UNL     1      -3.351 -10.530  13.982  0.00  0.00    +0.039 A 
ATOM     18  C   UNL     1      -1.963 -10.379  13.977  0.00  0.00    -0.024 A 
ATOM     19  C   UNL     1      -4.040 -10.681  15.177  0.00  0.00    +0.024 A 
ATOM     20  C   UNL     1      -1.234 -10.376  15.156  0.00  0.00    +0.005 A 
ATOM     22  C   UNL     1      -3.312 -10.678  16.371  0.00  0.00    +0.002 A 
ATOM     23  C   UNL     1      -1.919 -10.527  16.361  0.00  0.00    +0.000 A 
ENDBRANCH  12  14
ENDBRANCH   8  12
BRANCH  11  13
ATOM     13  C   UNL     1      -9.307 -10.249  12.312  0.00  0.00    +0.138 C 
BRANCH  13   7
ATOM      5  O   UNL     1      -8.506  -9.836  15.072  0.00  0.00    -0.276 OA
ATOM      7  N   UNL     1     -10.097  -9.703  13.376  0.00  0.00    -0.313 N 
ATOM     21  C   UNL     1      -9.630  -9.540  14.676  0.00  0.00    +0.210 C 
ATOM     24  C   UNL     1     -10.655  -8.921  15.587  0.00  0.00    +0.109 C 
ATOM     27  H   UNL     1     -11.043  -9.406  13.154  0.00  0.00    +0.149 HD
ENDBRANCH  13   7
ENDBRANCH  11  13
TORSDOF 6
ENDMDL
MODEL 8
REMARK VINA RESULT:      -3.6     15.113     17.468
REMARK  Name = 40777846
REMARK  7 active torsions:
REMARK  status: ('A' for Active; 'I' for Inactive)
REMARK    1  A    between atoms: O_2  and  C_9
REMARK    2  A    between atoms: O_3  and  C_10
REMARK    3  A    between atoms: N_7  and  C_13
REMARK    4  A    between atoms: C_8  and  C_12
REMARK    5  A    between atoms: C_11  and  C_13
REMARK    6  A    between atoms: C_12  and  C_14
REMARK    7  A    between atoms: C_21  and  C_24
REMARK                            x       y       z     vdW  Elec       q    Type
REMARK                         _______ _______ _______ _____ _____    ______ ____
ROOT
ATOM      1  O   UNL     1      -3.656   4.021  24.322  0.00  0.00    -0.366 OA
ATOM      8  C   UNL     1      -4.714   3.189  23.816  0.00  0.00    +0.159 C 
ATOM      9  C   UNL     1      -5.245   2.424  25.017  0.00  0.00    +0.175 C 
ATOM     10  C   UNL     1      -5.109   3.454  26.118  0.00  0.00    +0.176 C 
ATOM     11  C   UNL     1      -3.791   4.133  25.757  0.00  0.00    +0.167 C 
ENDROOT
BRANCH   9   2
ATOM      2  O   UNL     1      -6.573   1.986  24.821  0.00  0.00    -0.387 OA
ATOM     25  H   UNL     1      -6.559   1.014  24.808  0.00  0.00    +0.210 HD
ENDBRANCH   9   2
BRANCH  10   3
ATOM      3  O   UNL     1      -6.149   4.426  26.018  0.00  0.00    -0.387 OA
ATOM     26  H   UNL     1      -6.778   4.255  26.739  0.00  0.00    +0.210 HD
ENDBRANCH  10   3
BRANCH   8  12
ATOM     12  C   UNL     1      -4.177   2.289  22.717  0.00  0.00    +0.130 C 
BRANCH  12  14
ATOM      4  O   UNL     1      -1.836   2.212  23.082  0.00  0.00    -0.275 OA
ATOM      6  N   UNL     1      -3.083   0.337  23.696  0.00  0.00    -0.271 N 
ATOM     14  C   UNL     1      -2.908   1.614  23.181  0.00  0.00    +0.222 C 
ATOM     15  C   UNL     1      -4.371  -0.378  23.815  0.00  0.00    +0.118 C 
ATOM     16  C   UNL     1      -4.089  -1.748  24.441  0.00  0.00    +0.056 C 
ATOM     17  C   UNL     1      -2.063  -0.501  24.193  0.00  0.00    +0.039 A 
ATOM     18  C   UNL     1      -2.608  -1.710  24.630  0.00  0.00    -0.024 A 
ATOM     19  C   UNL     1      -0.699  -0.267  24.285  0.00  0.00    +0.024 A 
ATOM     20  C   UNL     1      -1.809  -2.709  25.165  0.00  0.00    +0.005 A 
ATOM     22  C   UNL     1       0.114  -1.270  24.824  0.00  0.00    +0.002 A 
ATOM     23  C   UNL     1      -0.437  -2.482  25.261  0.00  0.00    +0.000 A 
ENDBRANCH  12  14
ENDBRANCH   8  12
BRANCH  11  13
ATOM     13  C   UNL     1      -2.582   3.462  26.394  0.00  0.00    +0.138 C 
BRANCH  13   7
ATOM      5  O   UNL     1       0.056   2.350  26.878  0.00  0.00    -0.276 OA
ATOM      7  N   UNL     1      -1.488   3.382  25.472  0.00  0.00    -0.313 N 
ATOM     21  C   UNL     1      -0.252   2.830  25.790  0.00  0.00    +0.210 C 
ATOM     24  C   UNL     1       0.708   2.850  24.632  0.00  0.00    +0.109 C 
ATOM     27  H   UNL     1      -1.640   3.735  24.532  0.00  0.00    +0.149 HD
ENDBRANCH  13   7
ENDBRANCH  11  13
TORSDOF 6
ENDMDL
MODEL 9
REMARK VINA RESULT:      -3.1     14.737     17.232
REMARK  Name = 40777846
REMARK  7 active torsions:
REMARK  status: ('A' for Active; 'I' for Inactive)
REMARK    1  A    between atoms: O_2  and  C_9
REMARK    2  A    between atoms: O_3  and  C_10
REMARK    3  A    between atoms: N_7  and  C_13
REMARK    4  A    between atoms: C_8  and  C_12
REMARK    5  A    between atoms: C_11  and  C_13
REMARK    6  A    between atoms: C_12  and  C_14
REMARK    7  A    between atoms: C_21  and  C_24
REMARK                            x       y       z     vdW  Elec       q    Type
REMARK                         _______ _______ _______ _____ _____    ______ ____
ROOT
ATOM      1  O   UNL     1      -1.626   3.103  25.614  0.00  0.00    -0.366 OA
ATOM      8  C   UNL     1      -0.483   3.244  24.752  0.00  0.00    +0.159 C 
ATOM      9  C   UNL     1      -0.877   4.281  23.714  0.00  0.00    +0.175 C 
ATOM     10  C   UNL     1      -1.737   5.220  24.534  0.00  0.00    +0.176 C 
ATOM     11  C   UNL     1      -2.488   4.251  25.441  0.00  0.00    +0.167 C 
ENDROOT
BRANCH   9   2
ATOM      2  O   UNL     1       0.249   4.910  23.141  0.00  0.00    -0.387 OA
ATOM     25  H   UNL     1       0.050   5.860  23.078  0.00  0.00    +0.210 HD
ENDBRANCH   9   2
BRANCH  10   3
ATOM      3  O   UNL     1      -0.919   6.051  25.355  0.00  0.00    -0.387 OA
ATOM     26  H   UNL     1      -0.321   5.468  25.854  0.00  0.00    +0.210 HD
ENDBRANCH  10   3
BRANCH   8  12
ATOM     12  C   UNL     1      -0.127   1.895  24.151  0.00  0.00    +0.130 C 
BRANCH  12  14
ATOM      4  O   UNL     1      -2.256   1.664  23.134  0.00  0.00    -0.275 OA
ATOM      6  N   UNL     1      -1.445  -0.152  24.356  0.00  0.00    -0.271 N 
ATOM     14  C   UNL     1      -1.388   1.129  23.825  0.00  0.00    +0.222 C 
ATOM     15  C   UNL     1      -0.401  -0.792  25.184  0.00  0.00    +0.118 C 
ATOM     16  C   UNL     1      -0.885  -2.202  25.538  0.00  0.00    +0.056 C 
ATOM     17  C   UNL     1      -2.509  -1.065  24.198  0.00  0.00    +0.039 A 
ATOM     18  C   UNL     1      -2.219  -2.256  24.867  0.00  0.00    -0.024 A 
ATOM     19  C   UNL     1      -3.703  -0.916  23.509  0.00  0.00    +0.024 A 
ATOM     20  C   UNL     1      -3.109  -3.319  24.865  0.00  0.00    +0.005 A 
ATOM     22  C   UNL     1      -4.607  -1.983  23.502  0.00  0.00    +0.002 A 
ATOM     23  C   UNL     1      -4.312  -3.177  24.175  0.00  0.00    +0.000 A 
ENDBRANCH  12  14
ENDBRANCH   8  12
BRANCH  11  13
ATOM     13  C   UNL     1      -3.798   3.763  24.838  0.00  0.00    +0.138 C 
BRANCH  13   7
ATOM      5  O   UNL     1      -5.836   1.722  24.499  0.00  0.00    -0.276 OA
ATOM      7  N   UNL     1      -4.661   3.218  25.844  0.00  0.00    -0.313 N 
ATOM     21  C   UNL     1      -5.614   2.237  25.592  0.00  0.00    +0.210 C 
ATOM     24  C   UNL     1      -6.365   1.826  26.829  0.00  0.00    +0.109 C 
ATOM     27  H   UNL     1      -4.551   3.561  26.794  0.00  0.00    +0.149 HD
ENDBRANCH  13   7
ENDBRANCH  11  13
TORSDOF 6
ENDMDL
MODEL 10
REMARK VINA RESULT:      -3.0     14.703     17.192
REMARK  Name = 40777846
REMARK  7 active torsions:
REMARK  status: ('A' for Active; 'I' for Inactive)
REMARK    1  A    between atoms: O_2  and  C_9
REMARK    2  A    between atoms: O_3  and  C_10
REMARK    3  A    between atoms: N_7  and  C_13
REMARK    4  A    between atoms: C_8  and  C_12
REMARK    5  A    between atoms: C_11  and  C_13
REMARK    6  A    between atoms: C_12  and  C_14
REMARK    7  A    between atoms: C_21  and  C_24
REMARK                            x       y       z     vdW  Elec       q    Type
REMARK                         _______ _______ _______ _____ _____    ______ ____
ROOT
ATOM      1  O   UNL     1      -2.017  -0.642  25.847  0.00  0.00    -0.366 OA
ATOM      8  C   UNL     1      -2.420  -1.787  25.075  0.00  0.00    +0.159 C 
ATOM      9  C   UNL     1      -1.314  -2.005  24.056  0.00  0.00    +0.175 C 
ATOM     10  C   UNL     1      -0.086  -1.611  24.851  0.00  0.00    +0.176 C 
ATOM     11  C   UNL     1      -0.600  -0.425  25.661  0.00  0.00    +0.167 C 
ENDROOT
BRANCH   9   2
ATOM      2  O   UNL     1      -1.276  -3.338  23.592  0.00  0.00    -0.387 OA
ATOM     25  H   UNL     1      -1.353  -3.918  24.368  0.00  0.00    +0.210 HD
ENDBRANCH   9   2
BRANCH  10   3
ATOM      3  O   UNL     1       0.267  -2.650  25.763  0.00  0.00    -0.387 OA
ATOM     26  H   UNL     1       0.855  -3.264  25.291  0.00  0.00    +0.210 HD
ENDBRANCH  10   3
BRANCH   8  12
ATOM     12  C   UNL     1      -3.777  -1.527  24.445  0.00  0.00    +0.130 C 
BRANCH  12  14
ATOM      4  O   UNL     1      -5.036  -0.239  25.985  0.00  0.00    -0.275 OA
ATOM      6  N   UNL     1      -4.017   0.892  24.216  0.00  0.00    -0.271 N 
ATOM     14  C   UNL     1      -4.345  -0.229  24.966  0.00  0.00    +0.222 C 
ATOM     15  C   UNL     1      -3.187   0.902  22.993  0.00  0.00    +0.118 C 
ATOM     16  C   UNL     1      -3.086   2.352  22.509  0.00  0.00    +0.056 C 
ATOM     17  C   UNL     1      -4.420   2.217  24.489  0.00  0.00    +0.039 A 
ATOM     18  C   UNL     1      -3.902   3.083  23.524  0.00  0.00    -0.024 A 
ATOM     19  C   UNL     1      -5.207   2.702  25.523  0.00  0.00    +0.024 A 
ATOM     20  C   UNL     1      -4.154   4.445  23.568  0.00  0.00    +0.005 A 
ATOM     22  C   UNL     1      -5.467   4.075  25.575  0.00  0.00    +0.002 A 
ATOM     23  C   UNL     1      -4.944   4.941  24.605  0.00  0.00    +0.000 A 
ENDBRANCH  12  14
ENDBRANCH   8  12
BRANCH  11  13
ATOM     13  C   UNL     1      -0.421   0.907  24.945  0.00  0.00    +0.138 C 
BRANCH  13   7
ATOM      5  O   UNL     1      -0.403   3.736  24.293  0.00  0.00    -0.276 OA
ATOM      7  N   UNL     1      -1.061   1.970  25.662  0.00  0.00    -0.313 N 
ATOM     21  C   UNL     1      -1.000   3.305  25.276  0.00  0.00    +0.210 C 
ATOM     24  C   UNL     1      -1.781   4.210  26.190  0.00  0.00    +0.109 C 
ATOM     27  H   UNL     1      -1.601   1.723  26.486  0.00  0.00    +0.149 HD
ENDBRANCH  13   7
ENDBRANCH  11  13
TORSDOF 6
ENDMDL
