MODEL 1
REMARK VINA RESULT:       8.2      0.000      0.000
REMARK  Name = 25389742
REMARK  9 active torsions:
REMARK  status: ('A' for Active; 'I' for Inactive)
REMARK    1  A    between atoms: O_2  and  C_21
REMARK    2  A    between atoms: O_2  and  C_33
REMARK    3  A    between atoms: N_6  and  C_12
REMARK    4  A    between atoms: N_6  and  C_22
REMARK    5  A    between atoms: N_8  and  C_27
REMARK    6  A    between atoms: C_10  and  C_18
REMARK    7  A    between atoms: C_14  and  C_21
REMARK    8  A    between atoms: C_22  and  C_27
REMARK    9  A    between atoms: C_34  and  C_35
REMARK                            x       y       z     vdW  Elec       q    Type
REMARK                         _______ _______ _______ _____ _____    ______ ____
ROOT
ATOM      5  N   UNL     1      -0.791   0.645  23.671  0.00  0.00    -0.274 NA
ATOM      7  N   UNL     1       2.841   1.560  23.115  0.00  0.00    -0.356 N 
ATOM      9  C   UNL     1       0.267   1.528  23.057  0.00  0.00    +0.106 C 
ATOM     10  C   UNL     1      -0.848   0.791  25.159  0.00  0.00    +0.090 C 
ATOM     11  C   UNL     1       0.172   2.988  23.515  0.00  0.00    +0.044 C 
ATOM     12  C   UNL     1       0.204   3.109  25.035  0.00  0.00    +0.057 C 
ATOM     13  C   UNL     1      -0.933   2.272  25.610  0.00  0.00    +0.042 C 
ATOM     14  C   UNL     1      -0.550  -0.749  23.171  0.00  0.00    +0.172 C 
ATOM     15  C   UNL     1       1.638   0.921  23.235  0.00  0.00    +0.038 A 
ATOM     16  C   UNL     1       0.772  -1.390  23.654  0.00  0.00    +0.068 C 
ATOM     17  C   UNL     1       1.887  -0.413  23.493  0.00  0.00    -0.016 A 
ATOM     19  C   UNL     1       3.295  -0.586  23.568  0.00  0.00    +0.003 A 
ATOM     20  C   UNL     1       3.869   0.667  23.329  0.00  0.00    +0.047 A 
ATOM     25  C   UNL     1       4.143  -1.685  23.814  0.00  0.00    +0.010 A 
ATOM     26  C   UNL     1       5.254   0.872  23.323  0.00  0.00    +0.026 A 
ATOM     28  C   UNL     1       5.529  -1.492  23.814  0.00  0.00    +0.001 A 
ATOM     31  C   UNL     1       6.073  -0.232  23.572  0.00  0.00    +0.002 A 
ATOM     37  H   UNL     1       2.966   2.541  22.909  0.00  0.00    +0.166 HD
ENDROOT
BRANCH  10  18
ATOM      1 CL   UNL     1      -5.967   0.607  26.215  0.00  0.00    -0.084 Cl
ATOM     18  C   UNL     1      -2.022   0.073  25.821  0.00  0.00    -0.029 A 
ATOM     23  C   UNL     1      -3.308   0.605  25.727  0.00  0.00    +0.025 A 
ATOM     24  C   UNL     1      -1.808  -1.114  26.521  0.00  0.00    +0.005 A 
ATOM     29  C   UNL     1      -4.380  -0.051  26.331  0.00  0.00    +0.041 A 
ATOM     30  C   UNL     1      -2.880  -1.770  27.126  0.00  0.00    +0.002 A 
ATOM     32  C   UNL     1      -4.167  -1.239  27.031  0.00  0.00    +0.020 A 
ENDBRANCH  10  18
BRANCH  14  21
ATOM      3  O   UNL     1      -1.639  -2.784  23.842  0.00  0.00    -0.249 OA
ATOM     21  C   UNL     1      -1.725  -1.634  23.431  0.00  0.00    +0.325 C 
BRANCH  21   2
ATOM      2  O   UNL     1      -2.875  -0.961  23.144  0.00  0.00    -0.467 OA
ATOM     33  C   UNL     1      -4.086  -1.675  23.406  0.00  0.00    +0.280 C 
ENDBRANCH  21   2
ENDBRANCH  14  21
BRANCH  12   6
ATOM      6  N   UNL     1       0.059   4.505  25.449  0.00  0.00    -0.312 NA
ATOM     36  H   UNL     1       0.946   4.992  25.325  0.00  0.00    +0.122 HD
BRANCH   6  22
ATOM     22  C   UNL     1      -0.959   5.174  24.655  0.00  0.00    +0.100 C 
BRANCH  22  27
ATOM     27  C   UNL     1      -2.311   5.088  25.347  0.00  0.00    +0.119 C 
BRANCH  27   8
ATOM      4  O   UNL     1      -4.713   3.788  26.330  0.00  0.00    -0.276 OA
ATOM      8  N   UNL     1      -3.225   4.266  24.603  0.00  0.00    -0.314 N 
ATOM     34  C   UNL     1      -4.356   3.681  25.160  0.00  0.00    +0.210 C 
ATOM     35  C   UNL     1      -5.151   2.893  24.155  0.00  0.00    +0.109 C 
ATOM     38  H   UNL     1      -3.025   4.108  23.620  0.00  0.00    +0.149 HD
ENDBRANCH  27   8
ENDBRANCH  22  27
ENDBRANCH   6  22
ENDBRANCH  12   6
TORSDOF 7
ENDMDL
MODEL 2
REMARK VINA RESULT:       9.7      2.653      6.214
REMARK  Name = 25389742
REMARK  9 active torsions:
REMARK  status: ('A' for Active; 'I' for Inactive)
REMARK    1  A    between atoms: O_2  and  C_21
REMARK    2  A    between atoms: O_2  and  C_33
REMARK    3  A    between atoms: N_6  and  C_12
REMARK    4  A    between atoms: N_6  and  C_22
REMARK    5  A    between atoms: N_8  and  C_27
REMARK    6  A    between atoms: C_10  and  C_18
REMARK    7  A    between atoms: C_14  and  C_21
REMARK    8  A    between atoms: C_22  and  C_27
REMARK    9  A    between atoms: C_34  and  C_35
REMARK                            x       y       z     vdW  Elec       q    Type
REMARK                         _______ _______ _______ _____ _____    ______ ____
ROOT
ATOM      5  N   UNL     1      -0.422   0.819  25.390  0.00  0.00    -0.274 NA
ATOM      7  N   UNL     1      -3.659   2.591  26.236  0.00  0.00    -0.356 N 
ATOM      9  C   UNL     1      -1.241   1.710  26.291  0.00  0.00    +0.106 C 
ATOM     10  C   UNL     1      -0.134   1.468  24.073  0.00  0.00    +0.090 C 
ATOM     11  C   UNL     1      -0.660   3.122  26.430  0.00  0.00    +0.044 C 
ATOM     12  C   UNL     1      -0.458   3.789  25.073  0.00  0.00    +0.057 C 
ATOM     13  C   UNL     1       0.444   2.898  24.227  0.00  0.00    +0.042 C 
ATOM     14  C   UNL     1      -1.129  -0.503  25.314  0.00  0.00    +0.172 C 
ATOM     15  C   UNL     1      -2.696   1.687  25.886  0.00  0.00    +0.038 A 
ATOM     16  C   UNL     1      -2.507  -0.461  24.615  0.00  0.00    +0.068 C 
ATOM     17  C   UNL     1      -3.294   0.695  25.133  0.00  0.00    -0.016 A 
ATOM     19  C   UNL     1      -4.667   1.026  24.990  0.00  0.00    +0.003 A 
ATOM     20  C   UNL     1      -4.870   2.220  25.690  0.00  0.00    +0.047 A 
ATOM     25  C   UNL     1      -5.764   0.429  24.336  0.00  0.00    +0.010 A 
ATOM     26  C   UNL     1      -6.120   2.845  25.767  0.00  0.00    +0.026 A 
ATOM     28  C   UNL     1      -7.019   1.046  24.403  0.00  0.00    +0.001 A 
ATOM     31  C   UNL     1      -7.191   2.235  25.108  0.00  0.00    +0.002 A 
ATOM     37  H   UNL     1      -3.514   3.415  26.803  0.00  0.00    +0.166 HD
ENDROOT
BRANCH  10  18
ATOM      1 CL   UNL     1       4.812   0.220  22.914  0.00  0.00    -0.084 Cl
ATOM     18  C   UNL     1       0.850   0.701  23.192  0.00  0.00    -0.029 A 
ATOM     23  C   UNL     1       2.221   0.798  23.428  0.00  0.00    +0.025 A 
ATOM     24  C   UNL     1       0.376  -0.097  22.150  0.00  0.00    +0.005 A 
ATOM     29  C   UNL     1       3.119   0.098  22.623  0.00  0.00    +0.041 A 
ATOM     30  C   UNL     1       1.275  -0.797  21.345  0.00  0.00    +0.002 A 
ATOM     32  C   UNL     1       2.647  -0.701  21.581  0.00  0.00    +0.020 A 
ENDBRANCH  10  18
BRANCH  14  21
ATOM      3  O   UNL     1       0.912  -1.751  25.086  0.00  0.00    -0.249 OA
ATOM     21  C   UNL     1      -0.246  -1.562  24.739  0.00  0.00    +0.325 C 
BRANCH  21   2
ATOM      2  O   UNL     1      -0.931  -2.261  23.790  0.00  0.00    -0.467 OA
ATOM     33  C   UNL     1      -2.024  -3.047  24.276  0.00  0.00    +0.280 C 
ENDBRANCH  21   2
ENDBRANCH  14  21
BRANCH  12   6
ATOM      6  N   UNL     1       0.146   5.112  25.230  0.00  0.00    -0.312 NA
ATOM     36  H   UNL     1       0.969   5.185  24.632  0.00  0.00    +0.122 HD
BRANCH   6  22
ATOM     22  C   UNL     1      -0.796   6.156  24.860  0.00  0.00    +0.100 C 
BRANCH  22  27
ATOM     27  C   UNL     1      -2.214   5.607  24.843  0.00  0.00    +0.119 C 
BRANCH  27   8
ATOM      4  O   UNL     1      -4.678   4.563  23.716  0.00  0.00    -0.276 OA
ATOM      8  N   UNL     1      -2.355   4.557  23.871  0.00  0.00    -0.314 N 
ATOM     34  C   UNL     1      -3.582   4.121  23.386  0.00  0.00    +0.210 C 
ATOM     35  C   UNL     1      -3.441   3.029  22.361  0.00  0.00    +0.109 C 
ATOM     38  H   UNL     1      -1.506   4.116  23.527  0.00  0.00    +0.149 HD
ENDBRANCH  27   8
ENDBRANCH  22  27
ENDBRANCH   6  22
ENDBRANCH  12   6
TORSDOF 7
ENDMDL
MODEL 3
REMARK VINA RESULT:       9.9      2.331      4.771
REMARK  Name = 25389742
REMARK  9 active torsions:
REMARK  status: ('A' for Active; 'I' for Inactive)
REMARK    1  A    between atoms: O_2  and  C_21
REMARK    2  A    between atoms: O_2  and  C_33
REMARK    3  A    between atoms: N_6  and  C_12
REMARK    4  A    between atoms: N_6  and  C_22
REMARK    5  A    between atoms: N_8  and  C_27
REMARK    6  A    between atoms: C_10  and  C_18
REMARK    7  A    between atoms: C_14  and  C_21
REMARK    8  A    between atoms: C_22  and  C_27
REMARK    9  A    between atoms: C_34  and  C_35
REMARK                            x       y       z     vdW  Elec       q    Type
REMARK                         _______ _______ _______ _____ _____    ______ ____
ROOT
ATOM      5  N   UNL     1      -1.537   1.423  25.248  0.00  0.00    -0.274 NA
ATOM      7  N   UNL     1       1.266  -0.938  24.297  0.00  0.00    -0.356 N 
ATOM      9  C   UNL     1      -0.785   0.128  25.432  0.00  0.00    +0.106 C 
ATOM     10  C   UNL     1      -2.262   1.469  23.941  0.00  0.00    +0.090 C 
ATOM     11  C   UNL     1      -1.651  -1.112  25.180  0.00  0.00    +0.044 C 
ATOM     12  C   UNL     1      -2.308  -1.075  23.804  0.00  0.00    +0.057 C 
ATOM     13  C   UNL     1      -3.127   0.206  23.693  0.00  0.00    +0.042 C 
ATOM     14  C   UNL     1      -0.561   2.539  25.481  0.00  0.00    +0.172 C 
ATOM     15  C   UNL     1       0.503   0.143  24.642  0.00  0.00    +0.038 A 
ATOM     16  C   UNL     1       0.573   2.636  24.435  0.00  0.00    +0.068 C 
ATOM     17  C   UNL     1       1.145   1.280  24.192  0.00  0.00    -0.016 A 
ATOM     19  C   UNL     1       2.326   0.875  23.517  0.00  0.00    +0.003 A 
ATOM     20  C   UNL     1       2.378  -0.521  23.596  0.00  0.00    +0.047 A 
ATOM     25  C   UNL     1       3.362   1.555  22.846  0.00  0.00    +0.010 A 
ATOM     26  C   UNL     1       3.420  -1.269  23.036  0.00  0.00    +0.026 A 
ATOM     28  C   UNL     1       4.408   0.817  22.278  0.00  0.00    +0.001 A 
ATOM     31  C   UNL     1       4.434  -0.572  22.374  0.00  0.00    +0.002 A 
ATOM     37  H   UNL     1       1.052  -1.901  24.513  0.00  0.00    +0.166 HD
ENDROOT
BRANCH  10  18
ATOM      1 CL   UNL     1      -5.826   4.688  26.013  0.00  0.00    -0.084 Cl
ATOM     18  C   UNL     1      -3.197   2.666  23.777  0.00  0.00    -0.029 A 
ATOM     23  C   UNL     1      -3.991   3.083  24.845  0.00  0.00    +0.025 A 
ATOM     24  C   UNL     1      -3.256   3.342  22.558  0.00  0.00    +0.005 A 
ATOM     29  C   UNL     1      -4.844   4.175  24.695  0.00  0.00    +0.041 A 
ATOM     30  C   UNL     1      -4.110   4.435  22.408  0.00  0.00    +0.002 A 
ATOM     32  C   UNL     1      -4.904   4.853  23.477  0.00  0.00    +0.020 A 
ENDBRANCH  10  18
BRANCH  14  21
ATOM      3  O   UNL     1      -2.106   4.055  26.525  0.00  0.00    -0.249 OA
ATOM     21  C   UNL     1      -1.260   3.846  25.666  0.00  0.00    +0.325 C 
BRANCH  21   2
ATOM      2  O   UNL     1      -0.806   4.741  24.742  0.00  0.00    -0.467 OA
ATOM     33  C   UNL     1      -1.486   5.999  24.721  0.00  0.00    +0.280 C 
ENDBRANCH  21   2
ENDBRANCH  14  21
BRANCH  12   6
ATOM      6  N   UNL     1      -3.170  -2.241  23.609  0.00  0.00    -0.312 NA
ATOM     36  H   UNL     1      -2.685  -3.082  23.922  0.00  0.00    +0.122 HD
BRANCH   6  22
ATOM     22  C   UNL     1      -4.404  -2.102  24.365  0.00  0.00    +0.100 C 
BRANCH  22  27
ATOM     27  C   UNL     1      -5.031  -0.740  24.109  0.00  0.00    +0.119 C 
BRANCH  27   8
ATOM      4  O   UNL     1      -6.822   1.512  24.499  0.00  0.00    -0.276 OA
ATOM      8  N   UNL     1      -5.326  -0.062  25.342  0.00  0.00    -0.314 N 
ATOM     34  C   UNL     1      -6.201   1.013  25.433  0.00  0.00    +0.210 C 
ATOM     35  C   UNL     1      -6.347   1.518  26.843  0.00  0.00    +0.109 C 
ATOM     38  H   UNL     1      -4.864  -0.393  26.184  0.00  0.00    +0.149 HD
ENDBRANCH  27   8
ENDBRANCH  22  27
ENDBRANCH   6  22
ENDBRANCH  12   6
TORSDOF 7
ENDMDL
MODEL 4
REMARK VINA RESULT:      10.5      2.168      6.574
REMARK  Name = 25389742
REMARK  9 active torsions:
REMARK  status: ('A' for Active; 'I' for Inactive)
REMARK    1  A    between atoms: O_2  and  C_21
REMARK    2  A    between atoms: O_2  and  C_33
REMARK    3  A    between atoms: N_6  and  C_12
REMARK    4  A    between atoms: N_6  and  C_22
REMARK    5  A    between atoms: N_8  and  C_27
REMARK    6  A    between atoms: C_10  and  C_18
REMARK    7  A    between atoms: C_14  and  C_21
REMARK    8  A    between atoms: C_22  and  C_27
REMARK    9  A    between atoms: C_34  and  C_35
REMARK                            x       y       z     vdW  Elec       q    Type
REMARK                         _______ _______ _______ _____ _____    ______ ____
ROOT
ATOM      5  N   UNL     1      -1.708   0.812  25.592  0.00  0.00    -0.274 NA
ATOM      7  N   UNL     1      -1.076   4.442  24.723  0.00  0.00    -0.356 N 
ATOM      9  C   UNL     1      -0.916   2.087  25.749  0.00  0.00    +0.106 C 
ATOM     10  C   UNL     1      -1.535   0.209  24.233  0.00  0.00    +0.090 C 
ATOM     11  C   UNL     1       0.554   1.936  25.339  0.00  0.00    +0.044 C 
ATOM     12  C   UNL     1       0.695   1.401  23.917  0.00  0.00    +0.057 C 
ATOM     13  C   UNL     1      -0.046   0.072  23.826  0.00  0.00    +0.042 C 
ATOM     14  C   UNL     1      -3.124   1.119  25.983  0.00  0.00    +0.172 C 
ATOM     15  C   UNL     1      -1.622   3.239  25.075  0.00  0.00    +0.038 A 
ATOM     16  C   UNL     1      -3.855   2.108  25.047  0.00  0.00    +0.068 C 
ATOM     17  C   UNL     1      -2.967   3.272  24.761  0.00  0.00    -0.016 A 
ATOM     19  C   UNL     1      -3.244   4.530  24.163  0.00  0.00    +0.003 A 
ATOM     20  C   UNL     1      -2.041   5.244  24.150  0.00  0.00    +0.047 A 
ATOM     25  C   UNL     1      -4.399   5.137  23.631  0.00  0.00    +0.010 A 
ATOM     26  C   UNL     1      -1.940   6.540  23.630  0.00  0.00    +0.026 A 
ATOM     28  C   UNL     1      -4.310   6.432  23.106  0.00  0.00    +0.001 A 
ATOM     31  C   UNL     1      -3.099   7.120  23.107  0.00  0.00    +0.002 A 
ATOM     37  H   UNL     1      -0.111   4.710  24.853  0.00  0.00    +0.166 HD
ENDROOT
BRANCH  10  18
ATOM      1 CL   UNL     1      -5.713  -2.736  23.122  0.00  0.00    -0.084 Cl
ATOM     18  C   UNL     1      -2.153  -1.179  24.073  0.00  0.00    -0.029 A 
ATOM     23  C   UNL     1      -3.494  -1.309  23.712  0.00  0.00    +0.025 A 
ATOM     24  C   UNL     1      -1.375  -2.316  24.289  0.00  0.00    +0.005 A 
ATOM     29  C   UNL     1      -4.057  -2.576  23.566  0.00  0.00    +0.041 A 
ATOM     30  C   UNL     1      -1.939  -3.584  24.144  0.00  0.00    +0.002 A 
ATOM     32  C   UNL     1      -3.280  -3.714  23.781  0.00  0.00    +0.020 A 
ENDBRANCH  10  18
BRANCH  14  21
ATOM      3  O   UNL     1      -3.491  -1.116  26.787  0.00  0.00    -0.249 OA
ATOM     21  C   UNL     1      -3.914  -0.131  26.198  0.00  0.00    +0.325 C 
BRANCH  21   2
ATOM      2  O   UNL     1      -5.151   0.012  25.642  0.00  0.00    -0.467 OA
ATOM     33  C   UNL     1      -5.930   1.099  26.150  0.00  0.00    +0.280 C 
ENDBRANCH  21   2
ENDBRANCH  14  21
BRANCH  12   6
ATOM      6  N   UNL     1       2.104   1.216  23.569  0.00  0.00    -0.312 NA
ATOM     36  H   UNL     1       2.614   0.867  24.380  0.00  0.00    +0.122 HD
BRANCH   6  22
ATOM     22  C   UNL     1       2.245   0.263  22.480  0.00  0.00    +0.100 C 
BRANCH  22  27
ATOM     27  C   UNL     1       3.642   0.344  21.885  0.00  0.00    +0.119 C 
BRANCH  27   8
ATOM      4  O   UNL     1       4.377  -1.720  23.790  0.00  0.00    -0.276 OA
ATOM      8  N   UNL     1       4.643   0.421  22.914  0.00  0.00    -0.314 N 
ATOM     34  C   UNL     1       4.928  -0.623  23.785  0.00  0.00    +0.210 C 
ATOM     35  C   UNL     1       6.035  -0.285  24.746  0.00  0.00    +0.109 C 
ATOM     38  H   UNL     1       5.163   1.290  23.001  0.00  0.00    +0.149 HD
ENDBRANCH  27   8
ENDBRANCH  22  27
ENDBRANCH   6  22
ENDBRANCH  12   6
TORSDOF 7
ENDMDL
MODEL 5
REMARK VINA RESULT:      10.7      2.129      5.671
REMARK  Name = 25389742
REMARK  9 active torsions:
REMARK  status: ('A' for Active; 'I' for Inactive)
REMARK    1  A    between atoms: O_2  and  C_21
REMARK    2  A    between atoms: O_2  and  C_33
REMARK    3  A    between atoms: N_6  and  C_12
REMARK    4  A    between atoms: N_6  and  C_22
REMARK    5  A    between atoms: N_8  and  C_27
REMARK    6  A    between atoms: C_10  and  C_18
REMARK    7  A    between atoms: C_14  and  C_21
REMARK    8  A    between atoms: C_22  and  C_27
REMARK    9  A    between atoms: C_34  and  C_35
REMARK                            x       y       z     vdW  Elec       q    Type
REMARK                         _______ _______ _______ _____ _____    ______ ____
ROOT
ATOM      5  N   UNL     1      -2.168   1.897  25.326  0.00  0.00    -0.274 NA
ATOM      7  N   UNL     1       0.463  -0.556  24.145  0.00  0.00    -0.356 N 
ATOM      9  C   UNL     1      -1.518   0.537  25.373  0.00  0.00    +0.106 C 
ATOM     10  C   UNL     1      -2.869   2.138  24.026  0.00  0.00    +0.090 C 
ATOM     11  C   UNL     1      -2.471  -0.600  24.985  0.00  0.00    +0.044 C 
ATOM     12  C   UNL     1      -3.103  -0.367  23.616  0.00  0.00    +0.057 C 
ATOM     13  C   UNL     1      -3.822   0.977  23.638  0.00  0.00    +0.042 C 
ATOM     14  C   UNL     1      -1.115   2.905  25.683  0.00  0.00    +0.172 C 
ATOM     15  C   UNL     1      -0.222   0.537  24.599  0.00  0.00    +0.038 A 
ATOM     16  C   UNL     1       0.039   3.026  24.661  0.00  0.00    +0.068 C 
ATOM     17  C   UNL     1       0.510   1.664  24.278  0.00  0.00    -0.016 A 
ATOM     19  C   UNL     1       1.668   1.244  23.570  0.00  0.00    +0.003 A 
ATOM     20  C   UNL     1       1.613  -0.152  23.500  0.00  0.00    +0.047 A 
ATOM     25  C   UNL     1       2.761   1.910  22.982  0.00  0.00    +0.010 A 
ATOM     26  C   UNL     1       2.604  -0.914  22.868  0.00  0.00    +0.026 A 
ATOM     28  C   UNL     1       3.758   1.160  22.346  0.00  0.00    +0.001 A 
ATOM     31  C   UNL     1       3.677  -0.230  22.292  0.00  0.00    +0.002 A 
ATOM     37  H   UNL     1       0.174  -1.517  24.254  0.00  0.00    +0.166 HD
ENDROOT
BRANCH  10  18
ATOM      1 CL   UNL     1      -6.687   5.056  26.090  0.00  0.00    -0.084 Cl
ATOM     18  C   UNL     1      -3.708   3.413  23.986  0.00  0.00    -0.029 A 
ATOM     23  C   UNL     1      -4.699   3.628  24.944  0.00  0.00    +0.025 A 
ATOM     24  C   UNL     1      -3.485   4.363  22.989  0.00  0.00    +0.005 A 
ATOM     29  C   UNL     1      -5.464   4.792  24.907  0.00  0.00    +0.041 A 
ATOM     30  C   UNL     1      -4.252   5.528  22.952  0.00  0.00    +0.002 A 
ATOM     32  C   UNL     1      -5.241   5.743  23.911  0.00  0.00    +0.020 A 
ENDBRANCH  10  18
BRANCH  14  21
ATOM      3  O   UNL     1      -2.647   4.395  26.781  0.00  0.00    -0.249 OA
ATOM     21  C   UNL     1      -1.716   4.234  26.003  0.00  0.00    +0.325 C 
BRANCH  21   2
ATOM      2  O   UNL     1      -1.069   5.208  25.302  0.00  0.00    -0.467 OA
ATOM     33  C   UNL     1      -1.830   6.393  25.052  0.00  0.00    +0.280 C 
ENDBRANCH  21   2
ENDBRANCH  14  21
BRANCH  12   6
ATOM      6  N   UNL     1      -4.048  -1.436  23.291  0.00  0.00    -0.312 NA
ATOM     36  H   UNL     1      -3.621  -2.079  22.625  0.00  0.00    +0.122 HD
BRANCH   6  22
ATOM     22  C   UNL     1      -4.419  -2.177  24.487  0.00  0.00    +0.100 C 
BRANCH  22  27
ATOM     27  C   UNL     1      -3.671  -3.500  24.542  0.00  0.00    +0.119 C 
BRANCH  27   8
ATOM      4  O   UNL     1      -1.052  -2.988  23.398  0.00  0.00    -0.276 OA
ATOM      8  N   UNL     1      -2.423  -3.365  25.243  0.00  0.00    -0.314 N 
ATOM     34  C   UNL     1      -1.212  -3.119  24.608  0.00  0.00    +0.210 C 
ATOM     35  C   UNL     1      -0.068  -2.998  25.579  0.00  0.00    +0.109 C 
ATOM     38  H   UNL     1      -2.438  -3.457  26.254  0.00  0.00    +0.149 HD
ENDBRANCH  27   8
ENDBRANCH  22  27
ENDBRANCH   6  22
ENDBRANCH  12   6
TORSDOF 7
ENDMDL
