MODEL 1
REMARK VINA RESULT:      -3.4      0.000      0.000
REMARK  Name = 86769020
REMARK  5 active torsions:
REMARK  status: ('A' for Active; 'I' for Inactive)
REMARK    1  A    between atoms: O_3  and  C_19
REMARK    2  A    between atoms: O_3  and  C_20
REMARK    3  A    between atoms: N_4  and  C_9
REMARK    4  A    between atoms: N_6  and  C_18
REMARK    5  A    between atoms: C_18  and  C_19
REMARK                            x       y       z     vdW  Elec       q    Type
REMARK                         _______ _______ _______ _____ _____    ______ ____
ROOT
ATOM      2  O   UNL     1       0.678  -1.907  23.888  0.00  0.00    -0.252 OA
ATOM      4  N   UNL     1      -2.706   1.654  25.169  0.00  0.00    -0.296 NA
ATOM      5  N   UNL     1      -0.509  -0.010  24.603  0.00  0.00    -0.278 N 
ATOM      6  N   UNL     1       1.320   0.294  23.335  0.00  0.00    -0.281 N 
ATOM      7  C   UNL     1      -0.332   1.427  24.560  0.00  0.00    +0.109 C 
ATOM      8  C   UNL     1      -1.656   2.117  24.239  0.00  0.00    +0.108 C 
ATOM     10  C   UNL     1      -2.897   0.193  25.061  0.00  0.00    +0.104 C 
ATOM     11  C   UNL     1       0.766   1.625  23.516  0.00  0.00    +0.133 C 
ATOM     12  C   UNL     1      -1.605  -0.566  25.370  0.00  0.00    +0.125 C 
ATOM     15  C   UNL     1       0.518  -0.695  23.940  0.00  0.00    +0.305 C 
ENDROOT
BRANCH   4   9
ATOM      1  O   UNL     1      -6.445   3.415  25.905  0.00  0.00    -0.380 OA
ATOM      9  C   UNL     1      -3.961   2.353  24.908  0.00  0.00    +0.061 C 
ATOM     13  C   UNL     1      -5.152   1.459  25.265  0.00  0.00    +0.047 C 
ATOM     14  C   UNL     1      -4.036   3.664  25.696  0.00  0.00    +0.047 C 
ATOM     16  C   UNL     1      -6.459   2.229  25.110  0.00  0.00    +0.161 C 
ATOM     17  C   UNL     1      -5.405   4.312  25.517  0.00  0.00    +0.161 C 
ENDBRANCH   4   9
BRANCH   6  18
ATOM     18  C   UNL     1       2.473   0.052  22.498  0.00  0.00    +0.137 C 
BRANCH  18  19
ATOM     19  C   UNL     1       3.612   1.001  22.830  0.00  0.00    +0.178 C 
BRANCH  19   3
ATOM      3  O   UNL     1       4.852   0.327  22.662  0.00  0.00    -0.381 OA
ATOM     20  C   UNL     1       5.397  -0.082  23.909  0.00  0.00    +0.194 C 
ENDBRANCH  19   3
ENDBRANCH  18  19
ENDBRANCH   6  18
TORSDOF 4
ENDMDL
MODEL 2
REMARK VINA RESULT:      -2.5      1.475      7.492
REMARK  Name = 86769020
REMARK  5 active torsions:
REMARK  status: ('A' for Active; 'I' for Inactive)
REMARK    1  A    between atoms: O_3  and  C_19
REMARK    2  A    between atoms: O_3  and  C_20
REMARK    3  A    between atoms: N_4  and  C_9
REMARK    4  A    between atoms: N_6  and  C_18
REMARK    5  A    between atoms: C_18  and  C_19
REMARK                            x       y       z     vdW  Elec       q    Type
REMARK                         _______ _______ _______ _____ _____    ______ ____
ROOT
ATOM      2  O   UNL     1      -2.999   0.304  25.751  0.00  0.00    -0.252 OA
ATOM      4  N   UNL     1       1.179  -0.044  22.890  0.00  0.00    -0.296 NA
ATOM      5  N   UNL     1      -1.264   0.488  24.178  0.00  0.00    -0.278 N 
ATOM      6  N   UNL     1      -2.134   2.376  25.030  0.00  0.00    -0.281 N 
ATOM      7  C   UNL     1      -0.609   1.553  23.446  0.00  0.00    +0.109 C 
ATOM      8  C   UNL     1       0.899   1.314  23.397  0.00  0.00    +0.108 C 
ATOM     10  C   UNL     1       0.568  -1.068  23.762  0.00  0.00    +0.104 C 
ATOM     11  C   UNL     1      -1.035   2.818  24.189  0.00  0.00    +0.133 C 
ATOM     12  C   UNL     1      -0.948  -0.889  23.861  0.00  0.00    +0.125 C 
ATOM     15  C   UNL     1      -2.233   0.970  25.069  0.00  0.00    +0.305 C 
ENDROOT
BRANCH   4   9
ATOM      1  O   UNL     1       5.229  -0.135  23.991  0.00  0.00    -0.380 OA
ATOM      9  C   UNL     1       2.620  -0.260  22.781  0.00  0.00    +0.061 C 
ATOM     13  C   UNL     1       3.372   1.059  22.976  0.00  0.00    +0.047 C 
ATOM     14  C   UNL     1       3.101  -1.293  23.806  0.00  0.00    +0.047 C 
ATOM     16  C   UNL     1       4.877   0.815  22.985  0.00  0.00    +0.161 C 
ATOM     17  C   UNL     1       4.621  -1.407  23.769  0.00  0.00    +0.161 C 
ENDBRANCH   4   9
BRANCH   6  18
ATOM     18  C   UNL     1      -2.907   3.300  25.830  0.00  0.00    +0.137 C 
BRANCH  18  19
ATOM     19  C   UNL     1      -4.219   3.657  25.155  0.00  0.00    +0.178 C 
BRANCH  19   3
ATOM      3  O   UNL     1      -5.293   3.046  25.856  0.00  0.00    -0.381 OA
ATOM     20  C   UNL     1      -5.882   1.998  25.098  0.00  0.00    +0.194 C 
ENDBRANCH  19   3
ENDBRANCH  18  19
ENDBRANCH   6  18
TORSDOF 4
ENDMDL
MODEL 3
REMARK VINA RESULT:      -1.6      1.650      7.159
REMARK  Name = 86769020
REMARK  5 active torsions:
REMARK  status: ('A' for Active; 'I' for Inactive)
REMARK    1  A    between atoms: O_3  and  C_19
REMARK    2  A    between atoms: O_3  and  C_20
REMARK    3  A    between atoms: N_4  and  C_9
REMARK    4  A    between atoms: N_6  and  C_18
REMARK    5  A    between atoms: C_18  and  C_19
REMARK                            x       y       z     vdW  Elec       q    Type
REMARK                         _______ _______ _______ _____ _____    ______ ____
ROOT
ATOM      2  O   UNL     1      -3.828  -0.953  25.585  0.00  0.00    -0.252 OA
ATOM      4  N   UNL     1       0.762  -0.288  23.521  0.00  0.00    -0.296 NA
ATOM      5  N   UNL     1      -1.944  -0.458  24.272  0.00  0.00    -0.278 N 
ATOM      6  N   UNL     1      -3.554   1.097  24.453  0.00  0.00    -0.281 N 
ATOM      7  C   UNL     1      -1.529   0.600  23.375  0.00  0.00    +0.109 C 
ATOM      8  C   UNL     1      -0.056   0.939  23.597  0.00  0.00    +0.108 C 
ATOM     10  C   UNL     1       0.342  -1.265  24.547  0.00  0.00    +0.104 C 
ATOM     11  C   UNL     1      -2.503   1.737  23.681  0.00  0.00    +0.133 C 
ATOM     12  C   UNL     1      -1.130  -1.651  24.387  0.00  0.00    +0.125 C 
ATOM     15  C   UNL     1      -3.191  -0.203  24.859  0.00  0.00    +0.305 C 
ENDROOT
BRANCH   4   9
ATOM      1  O   UNL     1       4.852  -0.047  22.608  0.00  0.00    -0.380 OA
ATOM      9  C   UNL     1       2.178   0.033  23.672  0.00  0.00    +0.061 C 
ATOM     13  C   UNL     1       3.019  -1.246  23.660  0.00  0.00    +0.047 C 
ATOM     14  C   UNL     1       2.650   0.980  22.564  0.00  0.00    +0.047 C 
ATOM     16  C   UNL     1       4.505  -0.906  23.694  0.00  0.00    +0.161 C 
ATOM     17  C   UNL     1       4.156   1.198  22.660  0.00  0.00    +0.161 C 
ENDBRANCH   4   9
BRANCH   6  18
ATOM     18  C   UNL     1      -4.746   1.807  24.859  0.00  0.00    +0.137 C 
BRANCH  18  19
ATOM     19  C   UNL     1      -4.531   3.310  24.848  0.00  0.00    +0.178 C 
BRANCH  19   3
ATOM      3  O   UNL     1      -4.109   3.737  26.136  0.00  0.00    -0.381 OA
ATOM     20  C   UNL     1      -2.784   4.249  26.109  0.00  0.00    +0.194 C 
ENDBRANCH  19   3
ENDBRANCH  18  19
ENDBRANCH   6  18
TORSDOF 4
ENDMDL
MODEL 4
REMARK VINA RESULT:      -1.5      1.626      2.080
REMARK  Name = 86769020
REMARK  5 active torsions:
REMARK  status: ('A' for Active; 'I' for Inactive)
REMARK    1  A    between atoms: O_3  and  C_19
REMARK    2  A    between atoms: O_3  and  C_20
REMARK    3  A    between atoms: N_4  and  C_9
REMARK    4  A    between atoms: N_6  and  C_18
REMARK    5  A    between atoms: C_18  and  C_19
REMARK                            x       y       z     vdW  Elec       q    Type
REMARK                         _______ _______ _______ _____ _____    ______ ____
ROOT
ATOM      2  O   UNL     1       1.610   2.181  24.817  0.00  0.00    -0.252 OA
ATOM      4  N   UNL     1      -3.353   2.877  24.007  0.00  0.00    -0.296 NA
ATOM      5  N   UNL     1      -0.582   2.387  23.999  0.00  0.00    -0.278 N 
ATOM      6  N   UNL     1       0.627   0.603  23.365  0.00  0.00    -0.281 N 
ATOM      7  C   UNL     1      -1.419   1.706  23.033  0.00  0.00    +0.109 C 
ATOM      8  C   UNL     1      -2.843   1.562  23.570  0.00  0.00    +0.108 C 
ATOM     10  C   UNL     1      -2.502   3.444  25.073  0.00  0.00    +0.104 C 
ATOM     11  C   UNL     1      -0.689   0.386  22.788  0.00  0.00    +0.133 C 
ATOM     12  C   UNL     1      -1.055   3.615  24.605  0.00  0.00    +0.125 C 
ATOM     15  C   UNL     1       0.672   1.778  24.143  0.00  0.00    +0.305 C 
ENDROOT
BRANCH   4   9
ATOM      1  O   UNL     1      -6.586   2.300  26.621  0.00  0.00    -0.380 OA
ATOM      9  C   UNL     1      -4.734   2.760  24.465  0.00  0.00    +0.061 C 
ATOM     13  C   UNL     1      -4.986   1.367  25.048  0.00  0.00    +0.047 C 
ATOM     14  C   UNL     1      -5.061   3.831  25.511  0.00  0.00    +0.047 C 
ATOM     16  C   UNL     1      -6.389   1.284  25.638  0.00  0.00    +0.161 C 
ATOM     17  C   UNL     1      -6.460   3.612  26.074  0.00  0.00    +0.161 C 
ENDBRANCH   4   9
BRANCH   6  18
ATOM     18  C   UNL     1       1.684  -0.375  23.251  0.00  0.00    +0.137 C 
BRANCH  18  19
ATOM     19  C   UNL     1       2.774   0.090  22.301  0.00  0.00    +0.178 C 
BRANCH  19   3
ATOM      3  O   UNL     1       3.678   0.936  22.998  0.00  0.00    -0.381 OA
ATOM     20  C   UNL     1       4.931   0.300  23.210  0.00  0.00    +0.194 C 
ENDBRANCH  19   3
ENDBRANCH  18  19
ENDBRANCH   6  18
TORSDOF 4
ENDMDL
MODEL 5
REMARK VINA RESULT:      -1.4      1.682      7.384
REMARK  Name = 86769020
REMARK  5 active torsions:
REMARK  status: ('A' for Active; 'I' for Inactive)
REMARK    1  A    between atoms: O_3  and  C_19
REMARK    2  A    between atoms: O_3  and  C_20
REMARK    3  A    between atoms: N_4  and  C_9
REMARK    4  A    between atoms: N_6  and  C_18
REMARK    5  A    between atoms: C_18  and  C_19
REMARK                            x       y       z     vdW  Elec       q    Type
REMARK                         _______ _______ _______ _____ _____    ______ ____
ROOT
ATOM      2  O   UNL     1      -2.508   4.755  25.888  0.00  0.00    -0.252 OA
ATOM      4  N   UNL     1       0.120   0.636  24.513  0.00  0.00    -0.296 NA
ATOM      5  N   UNL     1      -1.683   2.617  25.373  0.00  0.00    -0.278 N 
ATOM      6  N   UNL     1      -3.766   3.141  24.716  0.00  0.00    -0.281 N 
ATOM      7  C   UNL     1      -2.205   1.389  24.808  0.00  0.00    +0.109 C 
ATOM      8  C   UNL     1      -1.190   0.773  23.846  0.00  0.00    +0.108 C 
ATOM     10  C   UNL     1       0.627   1.951  24.955  0.00  0.00    +0.104 C 
ATOM     11  C   UNL     1      -3.522   1.819  24.164  0.00  0.00    +0.133 C 
ATOM     12  C   UNL     1      -0.343   2.631  25.923  0.00  0.00    +0.125 C 
ATOM     15  C   UNL     1      -2.637   3.644  25.393  0.00  0.00    +0.305 C 
ENDROOT
BRANCH   4   9
ATOM      1  O   UNL     1       2.587   0.045  21.168  0.00  0.00    -0.380 OA
ATOM      9  C   UNL     1       1.081  -0.008  23.621  0.00  0.00    +0.061 C 
ATOM     13  C   UNL     1       0.440  -0.284  22.258  0.00  0.00    +0.047 C 
ATOM     14  C   UNL     1       2.334   0.855  23.446  0.00  0.00    +0.047 C 
ATOM     16  C   UNL     1       1.475  -0.843  21.289  0.00  0.00    +0.161 C 
ATOM     17  C   UNL     1       3.265   0.232  22.411  0.00  0.00    +0.161 C 
ENDBRANCH   4   9
BRANCH   6  18
ATOM     18  C   UNL     1      -4.984   3.870  24.446  0.00  0.00    +0.137 C 
BRANCH  18  19
ATOM     19  C   UNL     1      -5.846   3.996  25.690  0.00  0.00    +0.178 C 
BRANCH  19   3
ATOM      3  O   UNL     1      -5.674   2.843  26.502  0.00  0.00    -0.381 OA
ATOM     20  C   UNL     1      -6.476   1.760  26.048  0.00  0.00    +0.194 C 
ENDBRANCH  19   3
ENDBRANCH  18  19
ENDBRANCH   6  18
TORSDOF 4
ENDMDL
MODEL 6
REMARK VINA RESULT:      -0.5      2.724      5.975
REMARK  Name = 86769020
REMARK  5 active torsions:
REMARK  status: ('A' for Active; 'I' for Inactive)
REMARK    1  A    between atoms: O_3  and  C_19
REMARK    2  A    between atoms: O_3  and  C_20
REMARK    3  A    between atoms: N_4  and  C_9
REMARK    4  A    between atoms: N_6  and  C_18
REMARK    5  A    between atoms: C_18  and  C_19
REMARK                            x       y       z     vdW  Elec       q    Type
REMARK                         _______ _______ _______ _____ _____    ______ ____
ROOT
ATOM      2  O   UNL     1       0.289   4.060  23.160  0.00  0.00    -0.252 OA
ATOM      4  N   UNL     1      -0.564  -0.550  25.106  0.00  0.00    -0.296 NA
ATOM      5  N   UNL     1      -0.019   2.136  24.472  0.00  0.00    -0.278 N 
ATOM      6  N   UNL     1      -0.936   4.063  25.175  0.00  0.00    -0.281 N 
ATOM      7  C   UNL     1      -0.577   1.820  25.771  0.00  0.00    +0.109 C 
ATOM      8  C   UNL     1      -1.384   0.524  25.702  0.00  0.00    +0.108 C 
ATOM     10  C   UNL     1      -0.135  -0.188  23.740  0.00  0.00    +0.104 C 
ATOM     11  C   UNL     1      -1.389   3.064  26.129  0.00  0.00    +0.133 C 
ATOM     12  C   UNL     1       0.680   1.107  23.731  0.00  0.00    +0.125 C 
ATOM     15  C   UNL     1      -0.160   3.492  24.145  0.00  0.00    +0.305 C 
ENDROOT
BRANCH   4   9
ATOM      1  O   UNL     1      -3.571  -3.324  24.163  0.00  0.00    -0.380 OA
ATOM      9  C   UNL     1      -1.306  -1.808  25.092  0.00  0.00    +0.061 C 
ATOM     13  C   UNL     1      -2.718  -1.600  25.648  0.00  0.00    +0.047 C 
ATOM     14  C   UNL     1      -1.382  -2.387  23.675  0.00  0.00    +0.047 C 
ATOM     16  C   UNL     1      -3.533  -2.882  25.520  0.00  0.00    +0.161 C 
ATOM     17  C   UNL     1      -2.271  -3.626  23.657  0.00  0.00    +0.161 C 
ENDBRANCH   4   9
BRANCH   6  18
ATOM     18  C   UNL     1      -1.380   5.437  25.235  0.00  0.00    +0.137 C 
BRANCH  18  19
ATOM     19  C   UNL     1      -2.895   5.529  25.304  0.00  0.00    +0.178 C 
BRANCH  19   3
ATOM      3  O   UNL     1      -3.468   4.490  24.523  0.00  0.00    -0.381 OA
ATOM     20  C   UNL     1      -4.575   3.891  25.182  0.00  0.00    +0.194 C 
ENDBRANCH  19   3
ENDBRANCH  18  19
ENDBRANCH   6  18
TORSDOF 4
ENDMDL
