MODEL 1
REMARK VINA RESULT:      -4.8      0.000      0.000
REMARK  Name = 28961558
REMARK  7 active torsions:
REMARK  status: ('A' for Active; 'I' for Inactive)
REMARK    1  A    between atoms: O_4  and  C_12
REMARK    2  A    between atoms: O_5  and  C_19
REMARK    3  A    between atoms: N_7  and  C_10
REMARK    4  A    between atoms: N_8  and  C_18
REMARK    5  A    between atoms: N_9  and  C_21
REMARK    6  A    between atoms: C_11  and  C_18
REMARK    7  A    between atoms: C_13  and  C_19
REMARK                            x       y       z     vdW  Elec       q    Type
REMARK                         _______ _______ _______ _____ _____    ______ ____
ROOT
ATOM      3  O   UNL     1      -2.639   3.199  25.064  0.00  0.00    -0.365 OA
ATOM     10  C   UNL     1      -2.845   0.838  25.278  0.00  0.00    +0.118 C 
ATOM     11  C   UNL     1      -1.979   1.965  24.702  0.00  0.00    +0.155 C 
ATOM     12  C   UNL     1      -4.228   1.468  25.346  0.00  0.00    +0.165 C 
ATOM     13  C   UNL     1      -3.868   2.893  25.750  0.00  0.00    +0.174 C 
ENDROOT
BRANCH  10   7
ATOM      7  N   UNL     1      -2.780  -0.441  24.585  0.00  0.00    -0.295 NA
ATOM     14  C   UNL     1      -3.941  -1.286  24.863  0.00  0.00    +0.085 C 
ATOM     15  C   UNL     1      -1.624  -1.238  24.994  0.00  0.00    +0.085 C 
ATOM     16  C   UNL     1      -3.487  -2.656  24.382  0.00  0.00    +0.017 C 
ATOM     17  C   UNL     1      -1.965  -2.626  24.471  0.00  0.00    +0.017 C 
ENDBRANCH  10   7
BRANCH  12   4
ATOM      4  O   UNL     1      -4.868   1.460  24.077  0.00  0.00    -0.388 OA
ATOM     27  H   UNL     1      -5.825   1.540  24.230  0.00  0.00    +0.210 HD
ENDBRANCH  12   4
BRANCH  11  18
ATOM     18  C   UNL     1      -1.793   1.979  23.188  0.00  0.00    +0.139 C 
BRANCH  18   8
ATOM      6  O   UNL     1       0.849   1.966  24.296  0.00  0.00    -0.253 OA
ATOM      8  N   UNL     1      -0.704   1.135  22.795  0.00  0.00    -0.297 N 
ATOM      9  N   UNL     1       1.425   0.250  22.801  0.00  0.00    -0.267 N 
ATOM     20  C   UNL     1       0.569   1.187  23.387  0.00  0.00    +0.304 C 
ATOM     28  H   UNL     1      -0.858   0.474  22.040  0.00  0.00    +0.150 HD
ATOM     30  H   UNL     1       1.036  -0.323  22.057  0.00  0.00    +0.156 HD
BRANCH   9  21
ATOM      1  F   UNL     1       3.383   2.214  22.525  0.00  0.00    -0.203 F 
ATOM      2  F   UNL     1       6.731  -0.762  24.048  0.00  0.00    -0.205 F 
ATOM     21  C   UNL     1       2.780  -0.006  23.118  0.00  0.00    +0.070 A 
ATOM     22  C   UNL     1       3.736   0.999  22.969  0.00  0.00    +0.147 A 
ATOM     23  C   UNL     1       3.159  -1.266  23.581  0.00  0.00    +0.029 A 
ATOM     24  C   UNL     1       5.071   0.744  23.283  0.00  0.00    +0.078 A 
ATOM     25  C   UNL     1       4.493  -1.521  23.894  0.00  0.00    +0.040 A 
ATOM     26  C   UNL     1       5.450  -0.516  23.746  0.00  0.00    +0.126 A 
ENDBRANCH   9  21
ENDBRANCH  18   8
ENDBRANCH  11  18
BRANCH  13  19
ATOM     19  C   UNL     1      -4.904   3.949  25.417  0.00  0.00    +0.190 C 
BRANCH  19   5
ATOM      5  O   UNL     1      -6.188   3.461  25.772  0.00  0.00    -0.392 OA
ATOM     29  H   UNL     1      -6.056   2.612  26.226  0.00  0.00    +0.210 HD
ENDBRANCH  19   5
ENDBRANCH  13  19
TORSDOF 7
ENDMDL
MODEL 2
REMARK VINA RESULT:      -4.2      0.979      1.376
REMARK  Name = 28961558
REMARK  7 active torsions:
REMARK  status: ('A' for Active; 'I' for Inactive)
REMARK    1  A    between atoms: O_4  and  C_12
REMARK    2  A    between atoms: O_5  and  C_19
REMARK    3  A    between atoms: N_7  and  C_10
REMARK    4  A    between atoms: N_8  and  C_18
REMARK    5  A    between atoms: N_9  and  C_21
REMARK    6  A    between atoms: C_11  and  C_18
REMARK    7  A    between atoms: C_13  and  C_19
REMARK                            x       y       z     vdW  Elec       q    Type
REMARK                         _______ _______ _______ _____ _____    ______ ____
ROOT
ATOM      3  O   UNL     1      -2.717   3.116  25.350  0.00  0.00    -0.365 OA
ATOM     10  C   UNL     1      -3.176   0.781  25.325  0.00  0.00    +0.118 C 
ATOM     11  C   UNL     1      -2.130   1.849  24.980  0.00  0.00    +0.155 C 
ATOM     12  C   UNL     1      -4.487   1.548  25.248  0.00  0.00    +0.165 C 
ATOM     13  C   UNL     1      -4.060   2.893  25.823  0.00  0.00    +0.174 C 
ENDROOT
BRANCH  10   7
ATOM      7  N   UNL     1      -3.127  -0.444  24.539  0.00  0.00    -0.295 NA
ATOM     14  C   UNL     1      -4.415  -1.135  24.503  0.00  0.00    +0.085 C 
ATOM     15  C   UNL     1      -2.187  -1.421  25.088  0.00  0.00    +0.085 C 
ATOM     16  C   UNL     1      -4.044  -2.519  23.991  0.00  0.00    +0.017 C 
ATOM     17  C   UNL     1      -2.581  -2.708  24.379  0.00  0.00    +0.017 C 
ENDBRANCH  10   7
BRANCH  12   4
ATOM      4  O   UNL     1      -4.924   1.700  23.905  0.00  0.00    -0.388 OA
ATOM     27  H   UNL     1      -4.659   2.587  23.608  0.00  0.00    +0.210 HD
ENDBRANCH  12   4
BRANCH  11  18
ATOM     18  C   UNL     1      -1.715   1.953  23.516  0.00  0.00    +0.139 C 
BRANCH  18   8
ATOM      6  O   UNL     1       1.079   2.279  24.056  0.00  0.00    -0.253 OA
ATOM      8  N   UNL     1      -0.669   1.023  23.210  0.00  0.00    -0.297 N 
ATOM      9  N   UNL     1       1.472   0.175  23.092  0.00  0.00    -0.267 N 
ATOM     20  C   UNL     1       0.685   1.253  23.506  0.00  0.00    +0.304 C 
ATOM     28  H   UNL     1      -0.920   0.157  22.742  0.00  0.00    +0.150 HD
ATOM     30  H   UNL     1       0.988  -0.602  22.651  0.00  0.00    +0.156 HD
BRANCH   9  21
ATOM      1  F   UNL     1       2.604  -2.114  24.210  0.00  0.00    -0.203 F 
ATOM      2  F   UNL     1       6.966  -0.399  23.559  0.00  0.00    -0.205 F 
ATOM     21  C   UNL     1       2.874   0.026  23.213  0.00  0.00    +0.070 A 
ATOM     22  C   UNL     1       3.409  -1.132  23.777  0.00  0.00    +0.147 A 
ATOM     23  C   UNL     1       3.720   1.041  22.767  0.00  0.00    +0.029 A 
ATOM     24  C   UNL     1       4.791  -1.276  23.894  0.00  0.00    +0.078 A 
ATOM     25  C   UNL     1       5.102   0.897  22.884  0.00  0.00    +0.040 A 
ATOM     26  C   UNL     1       5.639  -0.261  23.448  0.00  0.00    +0.126 A 
ENDBRANCH   9  21
ENDBRANCH  18   8
ENDBRANCH  11  18
BRANCH  13  19
ATOM     19  C   UNL     1      -4.929   4.075  25.438  0.00  0.00    +0.190 C 
BRANCH  19   5
ATOM      5  O   UNL     1      -6.270   3.800  25.811  0.00  0.00    -0.392 OA
ATOM     29  H   UNL     1      -6.283   2.907  26.195  0.00  0.00    +0.210 HD
ENDBRANCH  19   5
ENDBRANCH  13  19
TORSDOF 7
ENDMDL
MODEL 3
REMARK VINA RESULT:      -3.8      1.699      3.557
REMARK  Name = 28961558
REMARK  7 active torsions:
REMARK  status: ('A' for Active; 'I' for Inactive)
REMARK    1  A    between atoms: O_4  and  C_12
REMARK    2  A    between atoms: O_5  and  C_19
REMARK    3  A    between atoms: N_7  and  C_10
REMARK    4  A    between atoms: N_8  and  C_18
REMARK    5  A    between atoms: N_9  and  C_21
REMARK    6  A    between atoms: C_11  and  C_18
REMARK    7  A    between atoms: C_13  and  C_19
REMARK                            x       y       z     vdW  Elec       q    Type
REMARK                         _______ _______ _______ _____ _____    ______ ____
ROOT
ATOM      3  O   UNL     1      -2.924  -0.874  23.264  0.00  0.00    -0.365 OA
ATOM     10  C   UNL     1      -4.379   0.676  24.334  0.00  0.00    +0.118 C 
ATOM     11  C   UNL     1      -3.170   0.544  23.400  0.00  0.00    +0.155 C 
ATOM     12  C   UNL     1      -4.318  -0.601  25.157  0.00  0.00    +0.165 C 
ATOM     13  C   UNL     1      -3.850  -1.595  24.100  0.00  0.00    +0.174 C 
ENDROOT
BRANCH  10   7
ATOM      7  N   UNL     1      -4.463   1.907  25.106  0.00  0.00    -0.295 NA
ATOM     14  C   UNL     1      -5.834   2.221  25.509  0.00  0.00    +0.085 C 
ATOM     15  C   UNL     1      -4.015   3.074  24.346  0.00  0.00    +0.085 C 
ATOM     16  C   UNL     1      -5.738   3.679  25.933  0.00  0.00    +0.017 C 
ATOM     17  C   UNL     1      -4.545   4.240  25.167  0.00  0.00    +0.017 C 
ENDBRANCH  10   7
BRANCH  12   4
ATOM      4  O   UNL     1      -3.361  -0.503  26.203  0.00  0.00    -0.388 OA
ATOM     27  H   UNL     1      -3.825  -0.189  26.998  0.00  0.00    +0.210 HD
ENDBRANCH  12   4
BRANCH  11  18
ATOM     18  C   UNL     1      -1.868   1.184  23.871  0.00  0.00    +0.139 C 
BRANCH  18   8
ATOM      6  O   UNL     1       0.871   1.597  24.603  0.00  0.00    -0.253 OA
ATOM      8  N   UNL     1      -0.732   0.467  23.375  0.00  0.00    -0.297 N 
ATOM      9  N   UNL     1       1.483  -0.127  23.132  0.00  0.00    -0.267 N 
ATOM     20  C   UNL     1       0.588   0.727  23.782  0.00  0.00    +0.304 C 
ATOM     28  H   UNL     1      -0.888  -0.259  22.683  0.00  0.00    +0.150 HD
ATOM     30  H   UNL     1       1.085  -0.796  22.478  0.00  0.00    +0.156 HD
BRANCH   9  21
ATOM      1  F   UNL     1       3.085   2.089  22.589  0.00  0.00    -0.203 F 
ATOM      2  F   UNL     1       6.995  -0.341  23.684  0.00  0.00    -0.205 F 
ATOM     21  C   UNL     1       2.890  -0.179  23.271  0.00  0.00    +0.070 A 
ATOM     22  C   UNL     1       3.664   0.948  22.992  0.00  0.00    +0.147 A 
ATOM     23  C   UNL     1       3.503  -1.360  23.689  0.00  0.00    +0.029 A 
ATOM     24  C   UNL     1       5.050   0.893  23.131  0.00  0.00    +0.078 A 
ATOM     25  C   UNL     1       4.889  -1.414  23.828  0.00  0.00    +0.040 A 
ATOM     26  C   UNL     1       5.664  -0.287  23.549  0.00  0.00    +0.126 A 
ENDBRANCH   9  21
ENDBRANCH  18   8
ENDBRANCH  11  18
BRANCH  13  19
ATOM     19  C   UNL     1      -3.175  -2.845  24.632  0.00  0.00    +0.190 C 
BRANCH  19   5
ATOM      5  O   UNL     1      -1.774  -2.629  24.673  0.00  0.00    -0.392 OA
ATOM     29  H   UNL     1      -1.351  -3.503  24.723  0.00  0.00    +0.210 HD
ENDBRANCH  19   5
ENDBRANCH  13  19
TORSDOF 7
ENDMDL
MODEL 4
REMARK VINA RESULT:      -2.0      1.688      3.200
REMARK  Name = 28961558
REMARK  7 active torsions:
REMARK  status: ('A' for Active; 'I' for Inactive)
REMARK    1  A    between atoms: O_4  and  C_12
REMARK    2  A    between atoms: O_5  and  C_19
REMARK    3  A    between atoms: N_7  and  C_10
REMARK    4  A    between atoms: N_8  and  C_18
REMARK    5  A    between atoms: N_9  and  C_21
REMARK    6  A    between atoms: C_11  and  C_18
REMARK    7  A    between atoms: C_13  and  C_19
REMARK                            x       y       z     vdW  Elec       q    Type
REMARK                         _______ _______ _______ _____ _____    ______ ____
ROOT
ATOM      3  O   UNL     1      -4.707   0.833  24.268  0.00  0.00    -0.365 OA
ATOM     10  C   UNL     1      -3.315   2.761  24.166  0.00  0.00    +0.118 C 
ATOM     11  C   UNL     1      -3.348   1.238  23.986  0.00  0.00    +0.155 C 
ATOM     12  C   UNL     1      -4.448   3.016  25.147  0.00  0.00    +0.165 C 
ATOM     13  C   UNL     1      -5.468   1.988  24.671  0.00  0.00    +0.174 C 
ENDROOT
BRANCH  10   7
ATOM      7  N   UNL     1      -2.031   3.336  24.540  0.00  0.00    -0.295 NA
ATOM     14  C   UNL     1      -2.153   4.713  25.016  0.00  0.00    +0.085 C 
ATOM     15  C   UNL     1      -1.101   3.405  23.413  0.00  0.00    +0.085 C 
ATOM     16  C   UNL     1      -0.718   5.218  24.970  0.00  0.00    +0.017 C 
ATOM     17  C   UNL     1      -0.028   4.361  23.913  0.00  0.00    +0.017 C 
ENDBRANCH  10   7
BRANCH  12   4
ATOM      4  O   UNL     1      -4.054   2.739  26.484  0.00  0.00    -0.388 OA
ATOM     27  H   UNL     1      -3.436   1.989  26.459  0.00  0.00    +0.210 HD
ENDBRANCH  12   4
BRANCH  11  18
ATOM     18  C   UNL     1      -2.436   0.421  24.895  0.00  0.00    +0.139 C 
BRANCH  18   8
ATOM      6  O   UNL     1       0.323   1.119  25.220  0.00  0.00    -0.253 OA
ATOM      8  N   UNL     1      -1.325  -0.113  24.164  0.00  0.00    -0.297 N 
ATOM      9  N   UNL     1       0.871  -0.408  23.523  0.00  0.00    -0.267 N 
ATOM     20  C   UNL     1       0.007   0.280  24.380  0.00  0.00    +0.304 C 
ATOM     28  H   UNL     1      -1.513  -0.802  23.443  0.00  0.00    +0.150 HD
ATOM     30  H   UNL     1       0.446  -1.073  22.883  0.00  0.00    +0.156 HD
BRANCH   9  21
ATOM      1  F   UNL     1       2.100   2.008  22.873  0.00  0.00    -0.203 F 
ATOM      2  F   UNL     1       6.386   0.028  23.181  0.00  0.00    -0.205 F 
ATOM     21  C   UNL     1       2.278  -0.294  23.435  0.00  0.00    +0.070 A 
ATOM     22  C   UNL     1       2.862   0.930  23.107  0.00  0.00    +0.147 A 
ATOM     23  C   UNL     1       3.081  -1.409  23.676  0.00  0.00    +0.029 A 
ATOM     24  C   UNL     1       4.250   1.039  23.021  0.00  0.00    +0.078 A 
ATOM     25  C   UNL     1       4.468  -1.300  23.590  0.00  0.00    +0.040 A 
ATOM     26  C   UNL     1       5.054  -0.076  23.262  0.00  0.00    +0.126 A 
ENDBRANCH   9  21
ENDBRANCH  18   8
ENDBRANCH  11  18
BRANCH  13  19
ATOM     19  C   UNL     1      -6.505   1.571  25.697  0.00  0.00    +0.190 C 
BRANCH  19   5
ATOM      5  O   UNL     1      -6.478   2.490  26.777  0.00  0.00    -0.392 OA
ATOM     29  H   UNL     1      -7.381   2.836  26.882  0.00  0.00    +0.210 HD
ENDBRANCH  19   5
ENDBRANCH  13  19
TORSDOF 7
ENDMDL
MODEL 5
REMARK VINA RESULT:      -1.0      1.785      2.612
REMARK  Name = 28961558
REMARK  7 active torsions:
REMARK  status: ('A' for Active; 'I' for Inactive)
REMARK    1  A    between atoms: O_4  and  C_12
REMARK    2  A    between atoms: O_5  and  C_19
REMARK    3  A    between atoms: N_7  and  C_10
REMARK    4  A    between atoms: N_8  and  C_18
REMARK    5  A    between atoms: N_9  and  C_21
REMARK    6  A    between atoms: C_11  and  C_18
REMARK    7  A    between atoms: C_13  and  C_19
REMARK                            x       y       z     vdW  Elec       q    Type
REMARK                         _______ _______ _______ _____ _____    ______ ____
ROOT
ATOM      3  O   UNL     1      -0.812   3.091  25.029  0.00  0.00    -0.365 OA
ATOM     10  C   UNL     1      -3.078   2.465  25.400  0.00  0.00    +0.118 C 
ATOM     11  C   UNL     1      -1.733   1.994  24.835  0.00  0.00    +0.155 C 
ATOM     12  C   UNL     1      -2.994   3.978  25.272  0.00  0.00    +0.165 C 
ATOM     13  C   UNL     1      -1.523   4.206  25.602  0.00  0.00    +0.174 C 
ENDROOT
BRANCH  10   7
ATOM      7  N   UNL     1      -4.267   1.859  24.818  0.00  0.00    -0.295 NA
ATOM     14  C   UNL     1      -5.503   2.423  25.360  0.00  0.00    +0.085 C 
ATOM     15  C   UNL     1      -4.353   0.425  25.092  0.00  0.00    +0.085 C 
ATOM     16  C   UNL     1      -6.556   1.413  24.928  0.00  0.00    +0.017 C 
ATOM     17  C   UNL     1      -5.801   0.099  24.755  0.00  0.00    +0.017 C 
ENDBRANCH  10   7
BRANCH  12   4
ATOM      4  O   UNL     1      -3.276   4.406  23.947  0.00  0.00    -0.388 OA
ATOM     27  H   UNL     1      -2.491   4.219  23.404  0.00  0.00    +0.210 HD
ENDBRANCH  12   4
BRANCH  11  18
ATOM     18  C   UNL     1      -1.701   1.634  23.353  0.00  0.00    +0.139 C 
BRANCH  18   8
ATOM      6  O   UNL     1       1.044   1.996  24.085  0.00  0.00    -0.253 OA
ATOM      8  N   UNL     1      -0.613   0.749  23.061  0.00  0.00    -0.297 N 
ATOM      9  N   UNL     1       1.554  -0.038  23.031  0.00  0.00    -0.267 N 
ATOM     20  C   UNL     1       0.713   0.995  23.455  0.00  0.00    +0.304 C 
ATOM     28  H   UNL     1      -0.810  -0.093  22.530  0.00  0.00    +0.150 HD
ATOM     30  H   UNL     1       1.120  -0.800  22.516  0.00  0.00    +0.156 HD
BRANCH   9  21
ATOM      1  F   UNL     1       3.292   2.076  22.505  0.00  0.00    -0.203 F 
ATOM      2  F   UNL     1       7.020  -0.524  23.822  0.00  0.00    -0.205 F 
ATOM     21  C   UNL     1       2.949  -0.160  23.231  0.00  0.00    +0.070 A 
ATOM     22  C   UNL     1       3.792   0.918  22.959  0.00  0.00    +0.147 A 
ATOM     23  C   UNL     1       3.481  -1.360  23.703  0.00  0.00    +0.029 A 
ATOM     24  C   UNL     1       5.167   0.795  23.158  0.00  0.00    +0.078 A 
ATOM     25  C   UNL     1       4.856  -1.482  23.902  0.00  0.00    +0.040 A 
ATOM     26  C   UNL     1       5.700  -0.405  23.629  0.00  0.00    +0.126 A 
ENDBRANCH   9  21
ENDBRANCH  18   8
ENDBRANCH  11  18
BRANCH  13  19
ATOM     19  C   UNL     1      -0.929   5.500  25.080  0.00  0.00    +0.190 C 
BRANCH  19   5
ATOM      5  O   UNL     1      -0.187   5.224  23.903  0.00  0.00    -0.392 OA
ATOM     29  H   UNL     1       0.743   5.121  24.168  0.00  0.00    +0.210 HD
ENDBRANCH  19   5
ENDBRANCH  13  19
TORSDOF 7
ENDMDL
