MODEL 1
REMARK VINA RESULT:       5.1      0.000      0.000
REMARK  Name = 40776854
REMARK  7 active torsions:
REMARK  status: ('A' for Active; 'I' for Inactive)
REMARK    1  A    between atoms: N_6  and  C_16
REMARK    2  A    between atoms: N_7  and  C_17
REMARK    3  A    between atoms: N_8  and  C_23
REMARK    4  A    between atoms: C_10  and  C_16
REMARK    5  A    between atoms: C_11  and  C_17
REMARK    6  A    between atoms: C_22  and  C_24
REMARK    7  A    between atoms: C_34  and  C_35
REMARK                            x       y       z     vdW  Elec       q    Type
REMARK                         _______ _______ _______ _____ _____    ______ ____
ROOT
ATOM      5  N   UNL     1      -3.420   5.204  24.681  0.00  0.00    -0.298 NA
ATOM      9  C   UNL     1      -1.036   4.225  25.038  0.00  0.00    -0.003 C 
ATOM     10  C   UNL     1      -1.698   3.619  23.780  0.00  0.00    +0.020 C 
ATOM     11  C   UNL     1      -3.285   4.684  26.068  0.00  0.00    +0.074 C 
ATOM     12  C   UNL     1      -1.932   3.963  26.262  0.00  0.00    +0.024 C 
ATOM     13  C   UNL     1      -3.157   4.124  23.699  0.00  0.00    +0.089 C 
ATOM     14  C   UNL     1      -0.986   5.750  24.827  0.00  0.00    +0.019 C 
ATOM     15  C   UNL     1      -2.398   6.262  24.488  0.00  0.00    +0.085 C 
ENDROOT
BRANCH  10  16
ATOM     16  C   UNL     1      -1.628   2.094  23.737  0.00  0.00    +0.089 C 
BRANCH  16   6
ATOM      6  N   UNL     1      -0.320   1.642  23.263  0.00  0.00    -0.299 NA
ATOM      8  N   UNL     1       2.269   0.458  23.489  0.00  0.00    -0.327 N 
ATOM     18  C   UNL     1      -0.179   0.192  23.443  0.00  0.00    +0.103 C 
ATOM     19  C   UNL     1       0.756   2.342  23.976  0.00  0.00    +0.103 C 
ATOM     20  C   UNL     1       1.163  -0.302  22.899  0.00  0.00    +0.120 C 
ATOM     21  C   UNL     1       2.128   1.919  23.449  0.00  0.00    +0.120 C 
BRANCH   8  23
ATOM     23  C   UNL     1       3.561  -0.079  23.484  0.00  0.00    +0.030 A 
ATOM     25  C   UNL     1       4.651   0.731  23.167  0.00  0.00    +0.023 A 
ATOM     26  C   UNL     1       3.760  -1.423  23.802  0.00  0.00    +0.023 A 
ATOM     29  C   UNL     1       5.940   0.197  23.164  0.00  0.00    +0.002 A 
ATOM     30  C   UNL     1       5.049  -1.956  23.801  0.00  0.00    +0.002 A 
ATOM     31  C   UNL     1       6.139  -1.147  23.482  0.00  0.00    +0.000 A 
ENDBRANCH   8  23
ENDBRANCH  16   6
ENDBRANCH  10  16
BRANCH  11  17
ATOM     17  C   UNL     1      -4.465   3.800  26.477  0.00  0.00    +0.123 C 
BRANCH  17   7
ATOM      4  O   UNL     1      -5.626   2.258  24.351  0.00  0.00    -0.270 OA
ATOM      7  N   UNL     1      -4.202   2.427  26.176  0.00  0.00    -0.310 N 
ATOM     22  C   UNL     1      -4.813   1.752  25.120  0.00  0.00    +0.244 C 
ATOM     36  H   UNL     1      -3.584   1.930  26.810  0.00  0.00    +0.149 HD
BRANCH  22  24
ATOM     24  C   UNL     1      -4.454   0.320  24.955  0.00  0.00    +0.037 A 
ATOM     27  C   UNL     1      -4.811  -0.361  23.792  0.00  0.00    +0.013 A 
ATOM     28  C   UNL     1      -3.757  -0.344  25.966  0.00  0.00    +0.013 A 
ATOM     32  C   UNL     1      -4.475  -1.705  23.639  0.00  0.00    +0.013 A 
ATOM     33  C   UNL     1      -3.420  -1.689  25.813  0.00  0.00    +0.013 A 
ATOM     34  C   UNL     1      -3.779  -2.370  24.649  0.00  0.00    +0.055 A 
BRANCH  34  35
ATOM      1  F   UNL     1      -4.361  -4.535  23.816  0.00  0.00    -0.166 F 
ATOM      2  F   UNL     1      -3.247  -4.445  25.680  0.00  0.00    -0.166 F 
ATOM      3  F   UNL     1      -2.258  -4.005  23.795  0.00  0.00    -0.166 F 
ATOM     35  C   UNL     1      -3.419  -3.808  24.485  0.00  0.00    +0.417 C 
ENDBRANCH  34  35
ENDBRANCH  22  24
ENDBRANCH  17   7
ENDBRANCH  11  17
TORSDOF 7
ENDMDL
MODEL 2
REMARK VINA RESULT:       7.0      3.747      5.510
REMARK  Name = 40776854
REMARK  7 active torsions:
REMARK  status: ('A' for Active; 'I' for Inactive)
REMARK    1  A    between atoms: N_6  and  C_16
REMARK    2  A    between atoms: N_7  and  C_17
REMARK    3  A    between atoms: N_8  and  C_23
REMARK    4  A    between atoms: C_10  and  C_16
REMARK    5  A    between atoms: C_11  and  C_17
REMARK    6  A    between atoms: C_22  and  C_24
REMARK    7  A    between atoms: C_34  and  C_35
REMARK                            x       y       z     vdW  Elec       q    Type
REMARK                         _______ _______ _______ _____ _____    ______ ____
ROOT
ATOM      5  N   UNL     1      -4.405   2.688  25.820  0.00  0.00    -0.298 NA
ATOM      9  C   UNL     1      -5.648   1.302  24.004  0.00  0.00    -0.003 C 
ATOM     10  C   UNL     1      -4.676   0.410  24.809  0.00  0.00    +0.020 C 
ATOM     11  C   UNL     1      -4.265   3.345  24.493  0.00  0.00    +0.074 C 
ATOM     12  C   UNL     1      -4.865   2.468  23.373  0.00  0.00    +0.024 C 
ATOM     13  C   UNL     1      -3.865   1.308  25.771  0.00  0.00    +0.089 C 
ATOM     14  C   UNL     1      -6.638   1.911  25.014  0.00  0.00    +0.019 C 
ATOM     15  C   UNL     1      -5.851   2.607  26.140  0.00  0.00    +0.085 C 
ENDROOT
BRANCH  10  16
ATOM     16  C   UNL     1      -3.764  -0.438  23.927  0.00  0.00    +0.089 C 
BRANCH  16   6
ATOM      6  N   UNL     1      -2.361  -0.066  24.113  0.00  0.00    -0.299 NA
ATOM      8  N   UNL     1       0.439  -0.089  23.552  0.00  0.00    -0.327 N 
ATOM     18  C   UNL     1      -1.838   0.594  22.911  0.00  0.00    +0.103 C 
ATOM     19  C   UNL     1      -1.552  -1.251  24.425  0.00  0.00    +0.103 C 
ATOM     20  C   UNL     1      -0.388   1.038  23.114  0.00  0.00    +0.120 C 
ATOM     21  C   UNL     1      -0.093  -0.867  24.678  0.00  0.00    +0.120 C 
BRANCH   8  23
ATOM     23  C   UNL     1       1.827  -0.037  23.385  0.00  0.00    +0.030 A 
ATOM     25  C   UNL     1       2.432   1.134  22.928  0.00  0.00    +0.023 A 
ATOM     26  C   UNL     1       2.608  -1.155  23.681  0.00  0.00    +0.023 A 
ATOM     29  C   UNL     1       3.816   1.187  22.764  0.00  0.00    +0.002 A 
ATOM     30  C   UNL     1       3.992  -1.101  23.519  0.00  0.00    +0.002 A 
ATOM     31  C   UNL     1       4.597   0.069  23.060  0.00  0.00    +0.000 A 
ENDBRANCH   8  23
ENDBRANCH  16   6
ENDBRANCH  10  16
BRANCH  11  17
ATOM     17  C   UNL     1      -2.819   3.746  24.190  0.00  0.00    +0.123 C 
BRANCH  17   7
ATOM      4  O   UNL     1       0.046   3.563  24.151  0.00  0.00    -0.270 OA
ATOM      7  N   UNL     1      -1.967   3.457  25.302  0.00  0.00    -0.310 N 
ATOM     22  C   UNL     1      -0.579   3.387  25.194  0.00  0.00    +0.244 C 
ATOM     36  H   UNL     1      -2.422   3.241  26.183  0.00  0.00    +0.149 HD
BRANCH  22  24
ATOM     24  C   UNL     1       0.164   3.051  26.436  0.00  0.00    +0.037 A 
ATOM     27  C   UNL     1       1.486   3.467  26.594  0.00  0.00    +0.013 A 
ATOM     28  C   UNL     1      -0.462   2.318  27.445  0.00  0.00    +0.013 A 
ATOM     32  C   UNL     1       2.182   3.150  27.759  0.00  0.00    +0.013 A 
ATOM     33  C   UNL     1       0.235   2.001  28.611  0.00  0.00    +0.013 A 
ATOM     34  C   UNL     1       1.557   2.417  28.768  0.00  0.00    +0.055 A 
BRANCH  34  35
ATOM      1  F   UNL     1       1.512   2.023  31.127  0.00  0.00    -0.166 F 
ATOM      2  F   UNL     1       3.279   2.985  30.306  0.00  0.00    -0.166 F 
ATOM      3  F   UNL     1       2.930   0.867  29.964  0.00  0.00    -0.166 F 
ATOM     35  C   UNL     1       2.302   2.078  30.015  0.00  0.00    +0.417 C 
ENDBRANCH  34  35
ENDBRANCH  22  24
ENDBRANCH  17   7
ENDBRANCH  11  17
TORSDOF 7
ENDMDL
MODEL 3
REMARK VINA RESULT:       7.1      3.459      5.781
REMARK  Name = 40776854
REMARK  7 active torsions:
REMARK  status: ('A' for Active; 'I' for Inactive)
REMARK    1  A    between atoms: N_6  and  C_16
REMARK    2  A    between atoms: N_7  and  C_17
REMARK    3  A    between atoms: N_8  and  C_23
REMARK    4  A    between atoms: C_10  and  C_16
REMARK    5  A    between atoms: C_11  and  C_17
REMARK    6  A    between atoms: C_22  and  C_24
REMARK    7  A    between atoms: C_34  and  C_35
REMARK                            x       y       z     vdW  Elec       q    Type
REMARK                         _______ _______ _______ _____ _____    ______ ____
ROOT
ATOM      5  N   UNL     1      -5.823   1.051  24.485  0.00  0.00    -0.298 NA
ATOM      9  C   UNL     1      -4.069   2.590  25.635  0.00  0.00    -0.003 C 
ATOM     10  C   UNL     1      -4.266   2.989  24.155  0.00  0.00    +0.020 C 
ATOM     11  C   UNL     1      -4.779   0.226  25.151  0.00  0.00    +0.074 C 
ATOM     12  C   UNL     1      -3.646   1.112  25.713  0.00  0.00    +0.024 C 
ATOM     13  C   UNL     1      -5.204   1.957  23.487  0.00  0.00    +0.089 C 
ATOM     14  C   UNL     1      -5.445   2.708  26.317  0.00  0.00    +0.019 C 
ATOM     15  C   UNL     1      -6.477   1.885  25.523  0.00  0.00    +0.085 C 
ENDROOT
BRANCH  10  16
ATOM     16  C   UNL     1      -2.953   3.132  23.389  0.00  0.00    +0.089 C 
BRANCH  16   6
ATOM      6  N   UNL     1      -1.834   3.359  24.304  0.00  0.00    -0.299 NA
ATOM      8  N   UNL     1      -0.208   2.884  26.603  0.00  0.00    -0.327 N 
ATOM     18  C   UNL     1      -0.977   2.170  24.375  0.00  0.00    +0.103 C 
ATOM     19  C   UNL     1      -2.327   3.701  25.644  0.00  0.00    +0.103 C 
ATOM     20  C   UNL     1       0.229   2.415  25.285  0.00  0.00    +0.120 C 
ATOM     21  C   UNL     1      -1.165   3.997  26.596  0.00  0.00    +0.120 C 
BRANCH   8  23
ATOM     23  C   UNL     1       0.648   2.759  27.703  0.00  0.00    +0.030 A 
ATOM     25  C   UNL     1       0.133   2.406  28.950  0.00  0.00    +0.023 A 
ATOM     26  C   UNL     1       2.016   2.983  27.552  0.00  0.00    +0.023 A 
ATOM     29  C   UNL     1       0.986   2.278  30.047  0.00  0.00    +0.002 A 
ATOM     30  C   UNL     1       2.869   2.855  28.648  0.00  0.00    +0.002 A 
ATOM     31  C   UNL     1       2.355   2.503  29.896  0.00  0.00    +0.000 A 
ENDBRANCH   8  23
ENDBRANCH  16   6
ENDBRANCH  10  16
BRANCH  11  17
ATOM     17  C   UNL     1      -4.240  -0.879  24.239  0.00  0.00    +0.123 C 
BRANCH  17   7
ATOM      4  O   UNL     1      -1.938  -2.443  24.942  0.00  0.00    -0.270 OA
ATOM      7  N   UNL     1      -2.884  -0.617  23.868  0.00  0.00    -0.310 N 
ATOM     22  C   UNL     1      -1.821  -1.432  24.254  0.00  0.00    +0.244 C 
ATOM     36  H   UNL     1      -2.709   0.238  23.349  0.00  0.00    +0.149 HD
BRANCH  22  24
ATOM     24  C   UNL     1      -0.469  -1.009  23.810  0.00  0.00    +0.037 A 
ATOM     27  C   UNL     1       0.650  -1.327  24.579  0.00  0.00    +0.013 A 
ATOM     28  C   UNL     1      -0.318  -0.294  22.621  0.00  0.00    +0.013 A 
ATOM     32  C   UNL     1       1.920  -0.928  24.162  0.00  0.00    +0.013 A 
ATOM     33  C   UNL     1       0.952   0.105  22.204  0.00  0.00    +0.013 A 
ATOM     34  C   UNL     1       2.071  -0.213  22.974  0.00  0.00    +0.055 A 
BRANCH  34  35
ATOM      1  F   UNL     1       4.437  -0.561  23.028  0.00  0.00    -0.166 F 
ATOM      2  F   UNL     1       3.728   1.490  22.904  0.00  0.00    -0.166 F 
ATOM      3  F   UNL     1       3.594   0.183  21.173  0.00  0.00    -0.166 F 
ATOM     35  C   UNL     1       3.429   0.213  22.528  0.00  0.00    +0.417 C 
ENDBRANCH  34  35
ENDBRANCH  22  24
ENDBRANCH  17   7
ENDBRANCH  11  17
TORSDOF 7
ENDMDL
MODEL 4
REMARK VINA RESULT:       8.2      3.339      7.034
REMARK  Name = 40776854
REMARK  7 active torsions:
REMARK  status: ('A' for Active; 'I' for Inactive)
REMARK    1  A    between atoms: N_6  and  C_16
REMARK    2  A    between atoms: N_7  and  C_17
REMARK    3  A    between atoms: N_8  and  C_23
REMARK    4  A    between atoms: C_10  and  C_16
REMARK    5  A    between atoms: C_11  and  C_17
REMARK    6  A    between atoms: C_22  and  C_24
REMARK    7  A    between atoms: C_34  and  C_35
REMARK                            x       y       z     vdW  Elec       q    Type
REMARK                         _______ _______ _______ _____ _____    ______ ____
ROOT
ATOM      5  N   UNL     1      -0.750   4.298  25.031  0.00  0.00    -0.298 NA
ATOM      9  C   UNL     1      -3.074   5.388  24.613  0.00  0.00    -0.003 C 
ATOM     10  C   UNL     1      -3.033   4.690  25.991  0.00  0.00    +0.020 C 
ATOM     11  C   UNL     1      -1.292   3.854  23.719  0.00  0.00    +0.074 C 
ATOM     12  C   UNL     1      -2.735   4.366  23.513  0.00  0.00    +0.024 C 
ATOM     13  C   UNL     1      -1.687   3.941  26.124  0.00  0.00    +0.089 C 
ATOM     14  C   UNL     1      -1.955   6.447  24.614  0.00  0.00    +0.019 C 
ATOM     15  C   UNL     1      -0.622   5.775  24.996  0.00  0.00    +0.085 C 
ENDROOT
BRANCH  10  16
ATOM     16  C   UNL     1      -4.219   3.760  26.231  0.00  0.00    +0.089 C 
BRANCH  16   6
ATOM      6  N   UNL     1      -4.111   2.549  25.417  0.00  0.00    -0.299 NA
ATOM      8  N   UNL     1      -4.060  -0.262  24.918  0.00  0.00    -0.327 N 
ATOM     18  C   UNL     1      -5.343   1.756  25.505  0.00  0.00    +0.103 C 
ATOM     19  C   UNL     1      -2.963   1.741  25.847  0.00  0.00    +0.103 C 
ATOM     20  C   UNL     1      -5.263   0.516  24.613  0.00  0.00    +0.120 C 
ATOM     21  C   UNL     1      -2.805   0.500  24.965  0.00  0.00    +0.120 C 
BRANCH   8  23
ATOM     23  C   UNL     1      -3.995  -1.612  24.557  0.00  0.00    +0.030 A 
ATOM     25  C   UNL     1      -3.219  -2.498  25.305  0.00  0.00    +0.023 A 
ATOM     26  C   UNL     1      -4.711  -2.075  23.453  0.00  0.00    +0.023 A 
ATOM     29  C   UNL     1      -3.157  -3.845  24.948  0.00  0.00    +0.002 A 
ATOM     30  C   UNL     1      -4.650  -3.422  23.096  0.00  0.00    +0.002 A 
ATOM     31  C   UNL     1      -3.873  -4.307  23.843  0.00  0.00    +0.000 A 
ENDBRANCH   8  23
ENDBRANCH  16   6
ENDBRANCH  10  16
BRANCH  11  17
ATOM     17  C   UNL     1      -1.194   2.338  23.531  0.00  0.00    +0.123 C 
BRANCH  17   7
ATOM      4  O   UNL     1      -0.208  -0.239  22.736  0.00  0.00    -0.270 OA
ATOM      7  N   UNL     1       0.171   1.913  23.519  0.00  0.00    -0.310 N 
ATOM     22  C   UNL     1       0.564   0.637  23.117  0.00  0.00    +0.244 C 
ATOM     36  H   UNL     1       0.857   2.569  23.880  0.00  0.00    +0.149 HD
BRANCH  22  24
ATOM     24  C   UNL     1       2.018   0.341  23.188  0.00  0.00    +0.037 A 
ATOM     27  C   UNL     1       2.455  -0.925  23.576  0.00  0.00    +0.013 A 
ATOM     28  C   UNL     1       2.947   1.331  22.865  0.00  0.00    +0.013 A 
ATOM     32  C   UNL     1       3.820  -1.201  23.643  0.00  0.00    +0.013 A 
ATOM     33  C   UNL     1       4.312   1.055  22.932  0.00  0.00    +0.013 A 
ATOM     34  C   UNL     1       4.749  -0.212  23.321  0.00  0.00    +0.055 A 
BRANCH  34  35
ATOM      1  F   UNL     1       6.499  -1.676  24.038  0.00  0.00    -0.166 F 
ATOM      2  F   UNL     1       6.908   0.458  24.057  0.00  0.00    -0.166 F 
ATOM      3  F   UNL     1       6.806  -0.617  22.170  0.00  0.00    -0.166 F 
ATOM     35  C   UNL     1       6.209  -0.508  23.393  0.00  0.00    +0.417 C 
ENDBRANCH  34  35
ENDBRANCH  22  24
ENDBRANCH  17   7
ENDBRANCH  11  17
TORSDOF 7
ENDMDL
