MODEL 1
REMARK VINA RESULT:       4.7      0.000      0.000
REMARK  Name = 11912771
REMARK  8 active torsions:
REMARK  status: ('A' for Active; 'I' for Inactive)
REMARK    1  A    between atoms: O_3  and  C_16
REMARK    2  A    between atoms: O_3  and  C_20
REMARK    3  A    between atoms: O_7  and  C_35
REMARK    4  A    between atoms: O_7  and  C_38
REMARK    5  A    between atoms: N_9  and  C_15
REMARK    6  A    between atoms: N_12  and  C_24
REMARK    7  A    between atoms: C_21  and  C_25
REMARK    8  A    between atoms: C_26  and  C_35
REMARK                            x       y       z     vdW  Elec       q    Type
REMARK                         _______ _______ _______ _____ _____    ______ ____
ROOT
ATOM      1  O   UNL     1      -1.981  -0.703  24.486  0.00  0.00    -0.368 OA
ATOM      2  O   UNL     1      -2.065  -3.563  25.595  0.00  0.00    -0.368 OA
ATOM     13  C   UNL     1      -1.208  -2.941  24.613  0.00  0.00    +0.173 C 
ATOM     14  C   UNL     1      -2.072  -1.976  23.826  0.00  0.00    +0.192 C 
ATOM     15  C   UNL     1      -0.197  -2.052  25.299  0.00  0.00    +0.130 C 
ATOM     16  C   UNL     1      -3.448  -2.581  23.963  0.00  0.00    +0.235 C 
ATOM     17  C   UNL     1      -0.988  -0.774  25.520  0.00  0.00    +0.185 C 
ATOM     18  C   UNL     1      -3.415  -3.131  25.371  0.00  0.00    +0.207 C 
ENDROOT
BRANCH  15   9
ATOM      9  N   UNL     1       0.927  -1.802  24.423  0.00  0.00    -0.306 N 
ATOM     10  N   UNL     1       0.515   0.483  24.390  0.00  0.00    -0.214 NA
ATOM     11  N   UNL     1       2.354  -0.474  23.161  0.00  0.00    -0.223 NA
ATOM     19  C   UNL     1       1.281  -0.543  23.972  0.00  0.00    +0.216 A 
ATOM     21  C   UNL     1       0.888   1.695  23.932  0.00  0.00    +0.076 A 
ATOM     22  C   UNL     1       2.671   0.768  22.741  0.00  0.00    +0.116 A 
ATOM     23  C   UNL     1       1.967   1.901  23.097  0.00  0.00    +0.048 A 
ATOM     39  H   UNL     1       1.529  -2.572  24.153  0.00  0.00    +0.149 HD
BRANCH  21  25
ATOM      5  O   UNL     1      -2.508   3.703  26.827  0.00  0.00    -0.453 OA
ATOM      6  O   UNL     1      -2.314   5.848  25.744  0.00  0.00    -0.453 OA
ATOM     25  C   UNL     1       0.070   2.798  24.379  0.00  0.00    +0.004 A 
ATOM     27  C   UNL     1      -0.826   2.612  25.434  0.00  0.00    +0.059 A 
ATOM     29  C   UNL     1       0.184   4.048  23.747  0.00  0.00    +0.014 A 
ATOM     30  C   UNL     1      -1.587   3.695  25.826  0.00  0.00    +0.167 A 
ATOM     31  C   UNL     1      -1.476   4.919  25.208  0.00  0.00    +0.166 A 
ATOM     32  C   UNL     1      -0.598   5.129  24.163  0.00  0.00    +0.050 A 
ATOM     37  C   UNL     1      -2.964   5.070  26.770  0.00  0.00    +0.466 C 
ENDBRANCH  21  25
ENDBRANCH  15   9
BRANCH  16   3
ATOM      3  O   UNL     1      -4.492  -1.651  23.781  0.00  0.00    -0.442 OA
BRANCH   3  20
ATOM      4  O   UNL     1      -4.303  -0.778  25.887  0.00  0.00    -0.226 OA
ATOM     12  N   UNL     1      -5.031   0.519  24.079  0.00  0.00    -0.250 N 
ATOM     20  C   UNL     1      -4.586  -0.630  24.705  0.00  0.00    +0.405 C 
ATOM     40  H   UNL     1      -5.214   0.432  23.084  0.00  0.00    +0.158 HD
BRANCH  12  24
ATOM     24  C   UNL     1      -5.264   1.788  24.656  0.00  0.00    +0.050 A 
ATOM     26  C   UNL     1      -4.712   2.942  24.098  0.00  0.00    +0.080 A 
ATOM     28  C   UNL     1      -6.058   1.877  25.799  0.00  0.00    +0.024 A 
ATOM     33  C   UNL     1      -4.953   4.185  24.684  0.00  0.00    +0.017 A 
ATOM     34  C   UNL     1      -6.298   3.120  26.385  0.00  0.00    +0.002 A 
ATOM     36  C   UNL     1      -5.747   4.274  25.828  0.00  0.00    +0.001 A 
BRANCH  26  35
ATOM      8  O   UNL     1      -4.034   3.606  21.910  0.00  0.00    -0.245 OA
ATOM     35  C   UNL     1      -3.878   2.885  22.903  0.00  0.00    +0.341 C 
BRANCH  35   7
ATOM      7  O   UNL     1      -2.903   1.935  23.018  0.00  0.00    -0.464 OA
ATOM     38  C   UNL     1      -2.187   1.599  21.825  0.00  0.00    +0.280 C 
ENDBRANCH  35   7
ENDBRANCH  26  35
ENDBRANCH  12  24
ENDBRANCH   3  20
ENDBRANCH  16   3
TORSDOF 7
ENDMDL
MODEL 2
REMARK VINA RESULT:       6.6      1.121      2.067
REMARK  Name = 11912771
REMARK  8 active torsions:
REMARK  status: ('A' for Active; 'I' for Inactive)
REMARK    1  A    between atoms: O_3  and  C_16
REMARK    2  A    between atoms: O_3  and  C_20
REMARK    3  A    between atoms: O_7  and  C_35
REMARK    4  A    between atoms: O_7  and  C_38
REMARK    5  A    between atoms: N_9  and  C_15
REMARK    6  A    between atoms: N_12  and  C_24
REMARK    7  A    between atoms: C_21  and  C_25
REMARK    8  A    between atoms: C_26  and  C_35
REMARK                            x       y       z     vdW  Elec       q    Type
REMARK                         _______ _______ _______ _____ _____    ______ ____
ROOT
ATOM      1  O   UNL     1      -2.082  -0.803  24.687  0.00  0.00    -0.368 OA
ATOM      2  O   UNL     1      -1.979  -3.671  25.773  0.00  0.00    -0.368 OA
ATOM     13  C   UNL     1      -1.210  -3.008  24.747  0.00  0.00    +0.173 C 
ATOM     14  C   UNL     1      -2.160  -2.075  24.023  0.00  0.00    +0.192 C 
ATOM     15  C   UNL     1      -0.197  -2.082  25.377  0.00  0.00    +0.130 C 
ATOM     16  C   UNL     1      -3.499  -2.737  24.239  0.00  0.00    +0.235 C 
ATOM     17  C   UNL     1      -1.025  -0.839  25.657  0.00  0.00    +0.185 C 
ATOM     18  C   UNL     1      -3.357  -3.295  25.637  0.00  0.00    +0.207 C 
ENDROOT
BRANCH  15   9
ATOM      9  N   UNL     1       0.859  -1.779  24.435  0.00  0.00    -0.306 N 
ATOM     10  N   UNL     1       0.388   0.493  24.489  0.00  0.00    -0.214 NA
ATOM     11  N   UNL     1       2.165  -0.382  23.118  0.00  0.00    -0.223 NA
ATOM     19  C   UNL     1       1.150  -0.501  23.995  0.00  0.00    +0.216 A 
ATOM     21  C   UNL     1       0.698   1.726  24.040  0.00  0.00    +0.076 A 
ATOM     22  C   UNL     1       2.421   0.878  22.710  0.00  0.00    +0.116 A 
ATOM     23  C   UNL     1       1.714   1.982  23.141  0.00  0.00    +0.048 A 
ATOM     39  H   UNL     1       1.463  -2.526  24.107  0.00  0.00    +0.149 HD
BRANCH  21  25
ATOM      5  O   UNL     1      -2.909   3.469  26.851  0.00  0.00    -0.453 OA
ATOM      6  O   UNL     1      -2.505   5.738  26.144  0.00  0.00    -0.453 OA
ATOM     25  C   UNL     1      -0.117   2.795  24.568  0.00  0.00    +0.004 A 
ATOM     27  C   UNL     1      -1.131   2.505  25.483  0.00  0.00    +0.059 A 
ATOM     29  C   UNL     1       0.119   4.118  24.156  0.00  0.00    +0.014 A 
ATOM     30  C   UNL     1      -1.884   3.559  25.961  0.00  0.00    +0.167 A 
ATOM     31  C   UNL     1      -1.653   4.854  25.557  0.00  0.00    +0.166 A 
ATOM     32  C   UNL     1      -0.657   5.167  24.654  0.00  0.00    +0.050 A 
ATOM     37  C   UNL     1      -3.297   4.854  26.963  0.00  0.00    +0.466 C 
ENDBRANCH  21  25
ENDBRANCH  15   9
BRANCH  16   3
ATOM      3  O   UNL     1      -4.590  -1.851  24.129  0.00  0.00    -0.442 OA
BRANCH   3  20
ATOM      4  O   UNL     1      -4.247  -0.213  25.688  0.00  0.00    -0.226 OA
ATOM     12  N   UNL     1      -4.327   0.266  23.398  0.00  0.00    -0.250 N 
ATOM     20  C   UNL     1      -4.373  -0.545  24.516  0.00  0.00    +0.405 C 
ATOM     40  H   UNL     1      -4.457  -0.207  22.509  0.00  0.00    +0.158 HD
BRANCH  12  24
ATOM     24  C   UNL     1      -4.125   1.664  23.345  0.00  0.00    +0.050 A 
ATOM     26  C   UNL     1      -4.937   2.535  24.072  0.00  0.00    +0.080 A 
ATOM     28  C   UNL     1      -3.095   2.170  22.552  0.00  0.00    +0.024 A 
ATOM     33  C   UNL     1      -4.720   3.911  24.005  0.00  0.00    +0.017 A 
ATOM     34  C   UNL     1      -2.879   3.546  22.484  0.00  0.00    +0.002 A 
ATOM     36  C   UNL     1      -3.691   4.417  23.211  0.00  0.00    +0.001 A 
BRANCH  26  35
ATOM      8  O   UNL     1      -6.989   1.395  24.492  0.00  0.00    -0.245 OA
ATOM     35  C   UNL     1      -6.021   2.040  24.912  0.00  0.00    +0.341 C 
BRANCH  35   7
ATOM      7  O   UNL     1      -5.834   2.380  26.223  0.00  0.00    -0.464 OA
ATOM     38  C   UNL     1      -6.603   1.658  27.191  0.00  0.00    +0.280 C 
ENDBRANCH  35   7
ENDBRANCH  26  35
ENDBRANCH  12  24
ENDBRANCH   3  20
ENDBRANCH  16   3
TORSDOF 7
ENDMDL
MODEL 3
REMARK VINA RESULT:       6.9      2.110      7.605
REMARK  Name = 11912771
REMARK  8 active torsions:
REMARK  status: ('A' for Active; 'I' for Inactive)
REMARK    1  A    between atoms: O_3  and  C_16
REMARK    2  A    between atoms: O_3  and  C_20
REMARK    3  A    between atoms: O_7  and  C_35
REMARK    4  A    between atoms: O_7  and  C_38
REMARK    5  A    between atoms: N_9  and  C_15
REMARK    6  A    between atoms: N_12  and  C_24
REMARK    7  A    between atoms: C_21  and  C_25
REMARK    8  A    between atoms: C_26  and  C_35
REMARK                            x       y       z     vdW  Elec       q    Type
REMARK                         _______ _______ _______ _____ _____    ______ ____
ROOT
ATOM      1  O   UNL     1      -2.262   4.631  24.840  0.00  0.00    -0.368 OA
ATOM      2  O   UNL     1      -2.984   3.157  22.248  0.00  0.00    -0.368 OA
ATOM     13  C   UNL     1      -3.579   3.129  23.562  0.00  0.00    +0.173 C 
ATOM     14  C   UNL     1      -2.443   3.234  24.560  0.00  0.00    +0.192 C 
ATOM     15  C   UNL     1      -4.384   4.387  23.792  0.00  0.00    +0.130 C 
ATOM     16  C   UNL     1      -1.277   2.662  23.790  0.00  0.00    +0.235 C 
ATOM     17  C   UNL     1      -3.318   5.380  24.220  0.00  0.00    +0.185 C 
ATOM     18  C   UNL     1      -1.555   3.145  22.384  0.00  0.00    +0.207 C 
ENDROOT
BRANCH  15   9
ATOM      9  N   UNL     1      -5.338   4.182  24.861  0.00  0.00    -0.306 N 
ATOM     10  N   UNL     1      -4.757   1.945  25.081  0.00  0.00    -0.214 NA
ATOM     11  N   UNL     1      -6.449   2.941  26.479  0.00  0.00    -0.223 NA
ATOM     19  C   UNL     1      -5.522   2.970  25.502  0.00  0.00    +0.216 A 
ATOM     21  C   UNL     1      -4.962   0.779  25.726  0.00  0.00    +0.076 A 
ATOM     22  C   UNL     1      -6.602   1.743  27.082  0.00  0.00    +0.116 A 
ATOM     23  C   UNL     1      -5.880   0.617  26.744  0.00  0.00    +0.048 A 
ATOM     39  H   UNL     1      -5.875   4.971  25.207  0.00  0.00    +0.149 HD
BRANCH  21  25
ATOM      5  O   UNL     1      -0.835  -1.850  25.712  0.00  0.00    -0.453 OA
ATOM      6  O   UNL     1      -1.708  -3.406  24.090  0.00  0.00    -0.453 OA
ATOM     25  C   UNL     1      -4.142  -0.322  25.279  0.00  0.00    +0.004 A 
ATOM     27  C   UNL     1      -2.851  -0.476  25.789  0.00  0.00    +0.059 A 
ATOM     29  C   UNL     1      -4.652  -1.229  24.333  0.00  0.00    +0.014 A 
ATOM     30  C   UNL     1      -2.105  -1.543  25.332  0.00  0.00    +0.167 A 
ATOM     31  C   UNL     1      -2.603  -2.431  24.406  0.00  0.00    +0.166 A 
ATOM     32  C   UNL     1      -3.875  -2.301  23.887  0.00  0.00    +0.050 A 
ATOM     37  C   UNL     1      -0.590  -3.032  24.921  0.00  0.00    +0.466 C 
ENDBRANCH  21  25
ENDBRANCH  15   9
BRANCH  16   3
ATOM      3  O   UNL     1      -0.022   3.098  24.262  0.00  0.00    -0.442 OA
BRANCH   3  20
ATOM      4  O   UNL     1       0.918   1.488  25.586  0.00  0.00    -0.226 OA
ATOM     12  N   UNL     1       1.788   2.006  23.474  0.00  0.00    -0.250 N 
ATOM     20  C   UNL     1       0.914   2.123  24.538  0.00  0.00    +0.405 C 
ATOM     40  H   UNL     1       1.613   2.632  22.694  0.00  0.00    +0.158 HD
BRANCH  12  24
ATOM     24  C   UNL     1       2.889   1.130  23.346  0.00  0.00    +0.050 A 
ATOM     26  C   UNL     1       2.766  -0.085  22.671  0.00  0.00    +0.080 A 
ATOM     28  C   UNL     1       4.113   1.495  23.907  0.00  0.00    +0.024 A 
ATOM     33  C   UNL     1       3.866  -0.935  22.557  0.00  0.00    +0.017 A 
ATOM     34  C   UNL     1       5.213   0.644  23.794  0.00  0.00    +0.002 A 
ATOM     36  C   UNL     1       5.090  -0.571  23.119  0.00  0.00    +0.001 A 
BRANCH  26  35
ATOM      8  O   UNL     1       1.331  -0.678  20.861  0.00  0.00    -0.245 OA
ATOM     35  C   UNL     1       1.502  -0.497  22.073  0.00  0.00    +0.341 C 
BRANCH  35   7
ATOM      7  O   UNL     1       0.529  -0.657  23.019  0.00  0.00    -0.464 OA
ATOM     38  C   UNL     1      -0.772  -0.152  22.697  0.00  0.00    +0.280 C 
ENDBRANCH  35   7
ENDBRANCH  26  35
ENDBRANCH  12  24
ENDBRANCH   3  20
ENDBRANCH  16   3
TORSDOF 7
ENDMDL
MODEL 4
REMARK VINA RESULT:       7.4      2.092      7.720
REMARK  Name = 11912771
REMARK  8 active torsions:
REMARK  status: ('A' for Active; 'I' for Inactive)
REMARK    1  A    between atoms: O_3  and  C_16
REMARK    2  A    between atoms: O_3  and  C_20
REMARK    3  A    between atoms: O_7  and  C_35
REMARK    4  A    between atoms: O_7  and  C_38
REMARK    5  A    between atoms: N_9  and  C_15
REMARK    6  A    between atoms: N_12  and  C_24
REMARK    7  A    between atoms: C_21  and  C_25
REMARK    8  A    between atoms: C_26  and  C_35
REMARK                            x       y       z     vdW  Elec       q    Type
REMARK                         _______ _______ _______ _____ _____    ______ ____
ROOT
ATOM      1  O   UNL     1      -1.926   2.530  25.027  0.00  0.00    -0.368 OA
ATOM      2  O   UNL     1      -0.514   5.240  25.307  0.00  0.00    -0.368 OA
ATOM     13  C   UNL     1      -1.894   4.902  25.056  0.00  0.00    +0.173 C 
ATOM     14  C   UNL     1      -1.890   3.677  24.163  0.00  0.00    +0.192 C 
ATOM     15  C   UNL     1      -2.549   4.422  26.330  0.00  0.00    +0.130 C 
ATOM     16  C   UNL     1      -0.565   3.798  23.449  0.00  0.00    +0.235 C 
ATOM     17  C   UNL     1      -2.129   2.963  26.381  0.00  0.00    +0.185 C 
ATOM     18  C   UNL     1       0.325   4.378  24.524  0.00  0.00    +0.207 C 
ENDROOT
BRANCH  15   9
ATOM      9  N   UNL     1      -3.989   4.526  26.224  0.00  0.00    -0.306 N 
ATOM     10  N   UNL     1      -4.197   2.306  25.578  0.00  0.00    -0.214 NA
ATOM     11  N   UNL     1      -6.128   3.730  25.799  0.00  0.00    -0.223 NA
ATOM     19  C   UNL     1      -4.807   3.475  25.851  0.00  0.00    +0.216 A 
ATOM     21  C   UNL     1      -5.023   1.303  25.218  0.00  0.00    +0.076 A 
ATOM     22  C   UNL     1      -6.896   2.682  25.432  0.00  0.00    +0.116 A 
ATOM     23  C   UNL     1      -6.394   1.434  25.127  0.00  0.00    +0.048 A 
ATOM     39  H   UNL     1      -4.446   5.394  26.481  0.00  0.00    +0.149 HD
BRANCH  21  25
ATOM      5  O   UNL     1      -1.438  -1.979  25.785  0.00  0.00    -0.453 OA
ATOM      6  O   UNL     1      -2.423  -3.488  24.183  0.00  0.00    -0.453 OA
ATOM     25  C   UNL     1      -4.373   0.047  24.925  0.00  0.00    +0.004 A 
ATOM     27  C   UNL     1      -3.180  -0.282  25.572  0.00  0.00    +0.059 A 
ATOM     29  C   UNL     1      -4.948  -0.832  23.991  0.00  0.00    +0.014 A 
ATOM     30  C   UNL     1      -2.595  -1.493  25.260  0.00  0.00    +0.167 A 
ATOM     31  C   UNL     1      -3.157  -2.354  24.346  0.00  0.00    +0.166 A 
ATOM     32  C   UNL     1      -4.335  -2.052  23.693  0.00  0.00    +0.050 A 
ATOM     37  C   UNL     1      -1.335  -3.244  25.099  0.00  0.00    +0.466 C 
ENDBRANCH  21  25
ENDBRANCH  15   9
BRANCH  16   3
ATOM      3  O   UNL     1      -0.075   2.569  22.961  0.00  0.00    -0.442 OA
BRANCH   3  20
ATOM      4  O   UNL     1       0.956   1.962  24.911  0.00  0.00    -0.226 OA
ATOM     12  N   UNL     1       1.853   1.406  22.821  0.00  0.00    -0.250 N 
ATOM     20  C   UNL     1       0.933   1.968  23.686  0.00  0.00    +0.405 C 
ATOM     40  H   UNL     1       1.652   1.523  21.833  0.00  0.00    +0.158 HD
BRANCH  12  24
ATOM     24  C   UNL     1       3.032   0.697  23.146  0.00  0.00    +0.050 A 
ATOM     26  C   UNL     1       2.977  -0.628  23.580  0.00  0.00    +0.080 A 
ATOM     28  C   UNL     1       4.263   1.341  23.027  0.00  0.00    +0.024 A 
ATOM     33  C   UNL     1       4.153  -1.308  23.896  0.00  0.00    +0.017 A 
ATOM     34  C   UNL     1       5.439   0.661  23.345  0.00  0.00    +0.002 A 
ATOM     36  C   UNL     1       5.385  -0.664  23.778  0.00  0.00    +0.001 A 
BRANCH  26  35
ATOM      8  O   UNL     1       1.383  -2.003  24.701  0.00  0.00    -0.245 OA
ATOM     35  C   UNL     1       1.707  -1.331  23.714  0.00  0.00    +0.341 C 
BRANCH  35   7
ATOM      7  O   UNL     1       0.918  -1.155  22.612  0.00  0.00    -0.464 OA
ATOM     38  C   UNL     1      -0.440  -0.767  22.846  0.00  0.00    +0.280 C 
ENDBRANCH  35   7
ENDBRANCH  26  35
ENDBRANCH  12  24
ENDBRANCH   3  20
ENDBRANCH  16   3
TORSDOF 7
ENDMDL
MODEL 5
REMARK VINA RESULT:       7.9      1.991      7.065
REMARK  Name = 11912771
REMARK  8 active torsions:
REMARK  status: ('A' for Active; 'I' for Inactive)
REMARK    1  A    between atoms: O_3  and  C_16
REMARK    2  A    between atoms: O_3  and  C_20
REMARK    3  A    between atoms: O_7  and  C_35
REMARK    4  A    between atoms: O_7  and  C_38
REMARK    5  A    between atoms: N_9  and  C_15
REMARK    6  A    between atoms: N_12  and  C_24
REMARK    7  A    between atoms: C_21  and  C_25
REMARK    8  A    between atoms: C_26  and  C_35
REMARK                            x       y       z     vdW  Elec       q    Type
REMARK                         _______ _______ _______ _____ _____    ______ ____
ROOT
ATOM      1  O   UNL     1      -2.073   3.156  24.722  0.00  0.00    -0.368 OA
ATOM      2  O   UNL     1      -0.703   5.785  25.513  0.00  0.00    -0.368 OA
ATOM     13  C   UNL     1      -2.087   5.469  25.248  0.00  0.00    +0.173 C 
ATOM     14  C   UNL     1      -2.095   4.459  24.117  0.00  0.00    +0.192 C 
ATOM     15  C   UNL     1      -2.677   4.715  26.416  0.00  0.00    +0.130 C 
ATOM     16  C   UNL     1      -0.804   4.763  23.396  0.00  0.00    +0.235 C 
ATOM     17  C   UNL     1      -2.226   3.290  26.143  0.00  0.00    +0.185 C 
ATOM     18  C   UNL     1       0.119   5.131  24.536  0.00  0.00    +0.207 C 
ENDROOT
BRANCH  15   9
ATOM      9  N   UNL     1      -4.121   4.798  26.387  0.00  0.00    -0.306 N 
ATOM     10  N   UNL     1      -4.325   2.638  25.560  0.00  0.00    -0.214 NA
ATOM     11  N   UNL     1      -6.266   3.998  25.996  0.00  0.00    -0.223 NA
ATOM     19  C   UNL     1      -4.940   3.766  25.963  0.00  0.00    +0.216 A 
ATOM     21  C   UNL     1      -5.152   1.654  25.153  0.00  0.00    +0.076 A 
ATOM     22  C   UNL     1      -7.034   2.971  25.576  0.00  0.00    +0.116 A 
ATOM     23  C   UNL     1      -6.527   1.764  25.139  0.00  0.00    +0.048 A 
ATOM     39  H   UNL     1      -4.579   5.631  26.741  0.00  0.00    +0.149 HD
BRANCH  21  25
ATOM      5  O   UNL     1      -3.607  -2.940  25.833  0.00  0.00    -0.453 OA
ATOM      6  O   UNL     1      -2.660  -3.060  23.619  0.00  0.00    -0.453 OA
ATOM     25  C   UNL     1      -4.496   0.441  24.721  0.00  0.00    +0.004 A 
ATOM     27  C   UNL     1      -4.417  -0.650  25.589  0.00  0.00    +0.059 A 
ATOM     29  C   UNL     1      -3.944   0.372  23.430  0.00  0.00    +0.014 A 
ATOM     30  C   UNL     1      -3.782  -1.787  25.132  0.00  0.00    +0.167 A 
ATOM     31  C   UNL     1      -3.240  -1.855  23.869  0.00  0.00    +0.166 A 
ATOM     32  C   UNL     1      -3.306  -0.791  22.992  0.00  0.00    +0.050 A 
ATOM     37  C   UNL     1      -2.897  -3.743  24.868  0.00  0.00    +0.466 C 
ENDBRANCH  21  25
ENDBRANCH  15   9
BRANCH  16   3
ATOM      3  O   UNL     1      -0.311   3.679  22.643  0.00  0.00    -0.442 OA
BRANCH   3  20
ATOM      4  O   UNL     1      -1.808   1.955  22.501  0.00  0.00    -0.226 OA
ATOM     12  N   UNL     1       0.079   1.836  23.884  0.00  0.00    -0.250 N 
ATOM     20  C   UNL     1      -0.780   2.424  22.975  0.00  0.00    +0.405 C 
ATOM     40  H   UNL     1       0.881   2.397  24.154  0.00  0.00    +0.158 HD
BRANCH  12  24
ATOM     24  C   UNL     1      -0.029   0.559  24.480  0.00  0.00    +0.050 A 
ATOM     26  C   UNL     1       0.605  -0.551  23.919  0.00  0.00    +0.080 A 
ATOM     28  C   UNL     1      -0.781   0.417  25.646  0.00  0.00    +0.024 A 
ATOM     33  C   UNL     1       0.486  -1.802  24.523  0.00  0.00    +0.017 A 
ATOM     34  C   UNL     1      -0.902  -0.835  26.249  0.00  0.00    +0.002 A 
ATOM     36  C   UNL     1      -0.269  -1.945  25.689  0.00  0.00    +0.001 A 
BRANCH  26  35
ATOM      8  O   UNL     1       0.924  -0.363  21.564  0.00  0.00    -0.245 OA
ATOM     35  C   UNL     1       1.400  -0.437  22.702  0.00  0.00    +0.341 C 
BRANCH  35   7
ATOM      7  O   UNL     1       2.739  -0.424  22.979  0.00  0.00    -0.464 OA
ATOM     38  C   UNL     1       3.453   0.772  22.645  0.00  0.00    +0.280 C 
ENDBRANCH  35   7
ENDBRANCH  26  35
ENDBRANCH  12  24
ENDBRANCH   3  20
ENDBRANCH  16   3
TORSDOF 7
ENDMDL
