MODEL 1
REMARK VINA RESULT:       7.7      0.000      0.000
REMARK  Name = 7687228
REMARK  4 active torsions:
REMARK  status: ('A' for Active; 'I' for Inactive)
REMARK    1  A    between atoms: S_2  and  N_6
REMARK    2  A    between atoms: S_2  and  C_19
REMARK    3  A    between atoms: C_15  and  C_20
REMARK    4  A    between atoms: C_23  and  C_27
REMARK                            x       y       z     vdW  Elec       q    Type
REMARK                         _______ _______ _______ _____ _____    ______ ____
ROOT
ATOM      5  O   UNL     1      -4.700  -3.509  23.667  0.00  0.00    -0.268 OA
ATOM      6  N   UNL     1      -3.026   1.135  24.310  0.00  0.00    -0.176 NA
ATOM      7  N   UNL     1      -3.196  -2.005  24.645  0.00  0.00    -0.311 N 
ATOM      8  C   UNL     1      -3.999  -0.145  26.218  0.00  0.00    +0.025 C 
ATOM      9  C   UNL     1      -1.611  -0.364  25.699  0.00  0.00    +0.052 C 
ATOM     10  C   UNL     1      -2.621  -0.282  26.841  0.00  0.00    +0.017 C 
ATOM     11  C   UNL     1      -4.087   1.125  25.357  0.00  0.00    +0.114 C 
ATOM     12  C   UNL     1      -1.660   0.939  24.879  0.00  0.00    +0.119 C 
ATOM     13  C   UNL     1      -4.296  -1.416  25.421  0.00  0.00    +0.130 C 
ATOM     14  C   UNL     1      -1.861  -1.575  24.793  0.00  0.00    +0.033 A 
ATOM     15  C   UNL     1      -0.857  -2.214  24.134  0.00  0.00    -0.005 A 
ATOM     16  C   UNL     1      -3.555  -3.085  23.820  0.00  0.00    +0.252 A 
ATOM     17  C   UNL     1      -1.202  -3.337  23.276  0.00  0.00    +0.015 A 
ATOM     18  C   UNL     1      -2.453  -3.760  23.102  0.00  0.00    +0.071 A 
ENDROOT
BRANCH   6   2
ATOM      2  S   UNL     1      -3.166   2.363  23.126  0.00  0.00    +0.061 S 
ATOM      3  O   UNL     1      -4.531   2.844  23.102  0.00  0.00    -0.153 OA
ATOM      4  O   UNL     1      -2.510   1.924  21.913  0.00  0.00    -0.153 OA
BRANCH   2  19
ATOM     19  C   UNL     1      -2.165   3.617  23.862  0.00  0.00    +0.105 A 
ATOM     21  C   UNL     1      -0.823   3.697  23.525  0.00  0.00    +0.028 A 
ATOM     22  C   UNL     1      -2.737   4.500  24.763  0.00  0.00    +0.028 A 
ATOM     24  C   UNL     1      -0.032   4.689  24.106  0.00  0.00    +0.002 A 
ATOM     25  C   UNL     1      -1.946   5.492  25.344  0.00  0.00    +0.002 A 
ATOM     26  C   UNL     1      -0.593   5.585  25.016  0.00  0.00    +0.000 A 
ENDBRANCH   2  19
ENDBRANCH   6   2
BRANCH  15  20
ATOM     20  C   UNL     1       0.536  -1.805  24.227  0.00  0.00    +0.010 C 
ATOM     23  C   UNL     1       1.132  -1.081  23.281  0.00  0.00    +0.008 C 
BRANCH  23  27
ATOM      1 CL   UNL     1       6.835   0.658  23.471  0.00  0.00    -0.084 Cl
ATOM     27  C   UNL     1       2.540  -0.651  23.327  0.00  0.00    -0.025 A 
ATOM     28  C   UNL     1       2.883   0.606  22.854  0.00  0.00    +0.009 A 
ATOM     29  C   UNL     1       3.495  -1.512  23.844  0.00  0.00    +0.009 A 
ATOM     30  C   UNL     1       4.217   1.013  22.898  0.00  0.00    +0.020 A 
ATOM     31  C   UNL     1       4.829  -1.105  23.888  0.00  0.00    +0.020 A 
ATOM     32  C   UNL     1       5.190   0.157  23.415  0.00  0.00    +0.041 A 
ENDBRANCH  23  27
ENDBRANCH  15  20
TORSDOF 4
ENDMDL
MODEL 2
REMARK VINA RESULT:       8.4      1.989      5.178
REMARK  Name = 7687228
REMARK  4 active torsions:
REMARK  status: ('A' for Active; 'I' for Inactive)
REMARK    1  A    between atoms: S_2  and  N_6
REMARK    2  A    between atoms: S_2  and  C_19
REMARK    3  A    between atoms: C_15  and  C_20
REMARK    4  A    between atoms: C_23  and  C_27
REMARK                            x       y       z     vdW  Elec       q    Type
REMARK                         _______ _______ _______ _____ _____    ______ ____
ROOT
ATOM      5  O   UNL     1      -4.346   4.679  26.413  0.00  0.00    -0.268 OA
ATOM      6  N   UNL     1      -3.518   0.425  23.963  0.00  0.00    -0.176 NA
ATOM      7  N   UNL     1      -3.128   3.436  24.847  0.00  0.00    -0.311 N 
ATOM      8  C   UNL     1      -4.241   2.478  22.744  0.00  0.00    +0.025 C 
ATOM      9  C   UNL     1      -1.854   2.084  23.154  0.00  0.00    +0.052 C 
ATOM     10  C   UNL     1      -2.859   2.613  22.132  0.00  0.00    +0.017 C 
ATOM     11  C   UNL     1      -4.557   1.009  23.068  0.00  0.00    +0.114 C 
ATOM     12  C   UNL     1      -2.137   0.594  23.424  0.00  0.00    +0.119 C 
ATOM     13  C   UNL     1      -4.312   3.378  23.978  0.00  0.00    +0.130 C 
ATOM     14  C   UNL     1      -1.890   2.881  24.463  0.00  0.00    +0.033 A 
ATOM     15  C   UNL     1      -0.791   3.044  25.248  0.00  0.00    -0.005 A 
ATOM     16  C   UNL     1      -3.294   4.163  26.039  0.00  0.00    +0.252 A 
ATOM     17  C   UNL     1      -0.935   3.795  26.486  0.00  0.00    +0.015 A 
ATOM     18  C   UNL     1      -2.092   4.320  26.885  0.00  0.00    +0.071 A 
ENDROOT
BRANCH   6   2
ATOM      2  S   UNL     1      -3.878  -1.121  24.604  0.00  0.00    +0.061 S 
ATOM      3  O   UNL     1      -4.403  -1.961  23.548  0.00  0.00    -0.153 OA
ATOM      4  O   UNL     1      -4.594  -0.958  25.852  0.00  0.00    -0.153 OA
BRANCH   2  19
ATOM     19  C   UNL     1      -2.249  -1.686  24.983  0.00  0.00    +0.105 A 
ATOM     21  C   UNL     1      -1.467  -0.957  25.865  0.00  0.00    +0.028 A 
ATOM     22  C   UNL     1      -1.780  -2.847  24.392  0.00  0.00    +0.028 A 
ATOM     24  C   UNL     1      -0.180  -1.404  26.165  0.00  0.00    +0.002 A 
ATOM     25  C   UNL     1      -0.492  -3.294  24.692  0.00  0.00    +0.002 A 
ATOM     26  C   UNL     1       0.307  -2.571  25.578  0.00  0.00    +0.000 A 
ENDBRANCH   2  19
ENDBRANCH   6   2
BRANCH  15  20
ATOM     20  C   UNL     1       0.507   2.478  24.919  0.00  0.00    +0.010 C 
ATOM     23  C   UNL     1       0.692   1.677  23.871  0.00  0.00    +0.008 C 
BRANCH  23  27
ATOM      1 CL   UNL     1       5.926  -0.771  22.387  0.00  0.00    -0.084 Cl
ATOM     27  C   UNL     1       1.985   1.073  23.504  0.00  0.00    -0.025 A 
ATOM     28  C   UNL     1       3.038   1.894  23.132  0.00  0.00    +0.009 A 
ATOM     29  C   UNL     1       2.124  -0.305  23.538  0.00  0.00    +0.009 A 
ATOM     30  C   UNL     1       4.262   1.321  22.785  0.00  0.00    +0.020 A 
ATOM     31  C   UNL     1       3.348  -0.878  23.191  0.00  0.00    +0.020 A 
ATOM     32  C   UNL     1       4.416  -0.065  22.814  0.00  0.00    +0.041 A 
ENDBRANCH  23  27
ENDBRANCH  15  20
TORSDOF 4
ENDMDL
MODEL 3
REMARK VINA RESULT:      10.9      1.408      2.039
REMARK  Name = 7687228
REMARK  4 active torsions:
REMARK  status: ('A' for Active; 'I' for Inactive)
REMARK    1  A    between atoms: S_2  and  N_6
REMARK    2  A    between atoms: S_2  and  C_19
REMARK    3  A    between atoms: C_15  and  C_20
REMARK    4  A    between atoms: C_23  and  C_27
REMARK                            x       y       z     vdW  Elec       q    Type
REMARK                         _______ _______ _______ _____ _____    ______ ____
ROOT
ATOM      5  O   UNL     1      -4.408  -3.459  23.776  0.00  0.00    -0.268 OA
ATOM      6  N   UNL     1      -2.437   1.001  24.780  0.00  0.00    -0.176 NA
ATOM      7  N   UNL     1      -2.750  -2.145  24.781  0.00  0.00    -0.311 N 
ATOM      8  C   UNL     1      -3.323  -0.442  26.611  0.00  0.00    +0.025 C 
ATOM      9  C   UNL     1      -0.999  -0.708  25.869  0.00  0.00    +0.052 C 
ATOM     10  C   UNL     1      -1.910  -0.711  27.096  0.00  0.00    +0.017 C 
ATOM     11  C   UNL     1      -3.411   0.920  25.905  0.00  0.00    +0.114 C 
ATOM     12  C   UNL     1      -1.043   0.681  25.205  0.00  0.00    +0.119 C 
ATOM     13  C   UNL     1      -3.751  -1.599  25.708  0.00  0.00    +0.130 C 
ATOM     14  C   UNL     1      -1.387  -1.796  24.861  0.00  0.00    +0.033 A 
ATOM     15  C   UNL     1      -0.475  -2.400  24.052  0.00  0.00    -0.005 A 
ATOM     16  C   UNL     1      -3.233  -3.107  23.876  0.00  0.00    +0.252 A 
ATOM     17  C   UNL     1      -0.947  -3.402  23.109  0.00  0.00    +0.015 A 
ATOM     18  C   UNL     1      -2.230  -3.745  22.998  0.00  0.00    +0.071 A 
ENDROOT
BRANCH   6   2
ATOM      2  S   UNL     1      -2.604   2.361  23.753  0.00  0.00    +0.061 S 
ATOM      3  O   UNL     1      -2.954   1.911  22.423  0.00  0.00    -0.153 OA
ATOM      4  O   UNL     1      -1.484   3.252  23.967  0.00  0.00    -0.153 OA
BRANCH   2  19
ATOM     19  C   UNL     1      -4.037   3.110  24.463  0.00  0.00    +0.105 A 
ATOM     21  C   UNL     1      -3.991   4.444  24.834  0.00  0.00    +0.028 A 
ATOM     22  C   UNL     1      -5.183   2.351  24.637  0.00  0.00    +0.028 A 
ATOM     24  C   UNL     1      -5.124   5.036  25.394  0.00  0.00    +0.002 A 
ATOM     25  C   UNL     1      -6.315   2.943  25.198  0.00  0.00    +0.002 A 
ATOM     26  C   UNL     1      -6.285   4.285  25.577  0.00  0.00    +0.000 A 
ENDBRANCH   2  19
ENDBRANCH   6   2
BRANCH  15  20
ATOM     20  C   UNL     1       0.941  -2.068  24.070  0.00  0.00    +0.010 C 
ATOM     23  C   UNL     1       1.439  -1.029  23.401  0.00  0.00    +0.008 C 
BRANCH  23  27
ATOM      1 CL   UNL     1       7.213   0.469  23.328  0.00  0.00    -0.084 Cl
ATOM     27  C   UNL     1       2.865  -0.659  23.382  0.00  0.00    -0.025 A 
ATOM     28  C   UNL     1       3.244   0.560  22.842  0.00  0.00    +0.009 A 
ATOM     29  C   UNL     1       3.801  -1.537  23.906  0.00  0.00    +0.009 A 
ATOM     30  C   UNL     1       4.594   0.911  22.825  0.00  0.00    +0.020 A 
ATOM     31  C   UNL     1       5.151  -1.186  23.889  0.00  0.00    +0.020 A 
ATOM     32  C   UNL     1       5.548   0.037  23.349  0.00  0.00    +0.041 A 
ENDBRANCH  23  27
ENDBRANCH  15  20
TORSDOF 4
ENDMDL
