MODEL 1
REMARK VINA RESULT:       1.9      0.000      0.000
REMARK  Name = 11913341
REMARK  9 active torsions:
REMARK  status: ('A' for Active; 'I' for Inactive)
REMARK    1  A    between atoms: O_4  and  C_25
REMARK    2  A    between atoms: N_6  and  C_12
REMARK    3  A    between atoms: N_7  and  C_13
REMARK    4  A    between atoms: C_16  and  C_18
REMARK    5  A    between atoms: C_18  and  C_19
REMARK    6  A    between atoms: C_19  and  C_21
REMARK    7  A    between atoms: C_20  and  C_24
REMARK    8  A    between atoms: C_21  and  C_25
REMARK    9  A    between atoms: C_30  and  C_31
REMARK                            x       y       z     vdW  Elec       q    Type
REMARK                         _______ _______ _______ _____ _____    ______ ____
ROOT
ATOM      7  N   UNL     1      -5.667   1.446  24.310  0.00  0.00    -0.306 N 
ATOM      8  N   UNL     1      -3.578   0.445  24.143  0.00  0.00    -0.214 NA
ATOM      9  N   UNL     1      -5.567  -0.866  24.509  0.00  0.00    -0.223 NA
ATOM     17  C   UNL     1      -4.904   0.292  24.322  0.00  0.00    +0.216 A 
ATOM     20  C   UNL     1      -2.865  -0.701  24.160  0.00  0.00    +0.076 A 
ATOM     22  C   UNL     1      -4.794  -1.971  24.515  0.00  0.00    +0.116 A 
ATOM     23  C   UNL     1      -3.424  -1.949  24.343  0.00  0.00    +0.048 A 
ATOM     38  H   UNL     1      -6.658   1.342  24.496  0.00  0.00    +0.149 HD
ENDROOT
BRANCH   7  13
ATOM      1  O   UNL     1      -2.972   3.879  23.924  0.00  0.00    -0.370 OA
ATOM      2  O   UNL     1      -4.997   3.725  26.293  0.00  0.00    -0.370 OA
ATOM     10  C   UNL     1      -3.729   3.097  26.039  0.00  0.00    +0.171 C 
ATOM     11  C   UNL     1      -3.667   2.790  24.556  0.00  0.00    +0.171 C 
ATOM     12  C   UNL     1      -2.603   4.081  26.259  0.00  0.00    +0.130 C 
ATOM     13  C   UNL     1      -5.113   2.769  24.122  0.00  0.00    +0.130 C 
ATOM     14  C   UNL     1      -2.543   4.810  24.928  0.00  0.00    +0.185 C 
ATOM     15  C   UNL     1      -5.763   3.751  25.080  0.00  0.00    +0.185 C 
BRANCH  12   6
ATOM      3  O   UNL     1      -0.339   3.858  24.506  0.00  0.00    -0.276 OA
ATOM      6  N   UNL     1      -1.361   3.400  26.539  0.00  0.00    -0.308 N 
ATOM     16  C   UNL     1      -0.319   3.348  25.622  0.00  0.00    +0.213 C 
ATOM     37  H   UNL     1      -1.273   2.895  27.416  0.00  0.00    +0.149 HD
BRANCH  16  18
ATOM     18  C   UNL     1       0.857   2.547  26.154  0.00  0.00    +0.096 C 
BRANCH  18  19
ATOM     19  C   UNL     1       0.692   2.103  27.606  0.00  0.00    +0.020 C 
BRANCH  19  21
ATOM     21  C   UNL     1       1.751   2.713  28.527  0.00  0.00    +0.121 C 
BRANCH  21  25
ATOM      5  O   UNL     1       0.694   2.882  30.714  0.00  0.00    -0.251 OA
ATOM     25  C   UNL     1       1.512   2.353  29.975  0.00  0.00    +0.305 C 
BRANCH  25   4
ATOM      4  O   UNL     1       2.330   1.344  30.377  0.00  0.00    -0.481 OA
ATOM     39  H   UNL     1       3.083   1.217  29.760  0.00  0.00    +0.295 HD
ENDBRANCH  25   4
ENDBRANCH  21  25
ENDBRANCH  19  21
ENDBRANCH  18  19
ENDBRANCH  16  18
ENDBRANCH  12   6
ENDBRANCH   7  13
BRANCH  20  24
ATOM     24  C   UNL     1      -1.444  -0.540  23.970  0.00  0.00    +0.001 A 
ATOM     26  C   UNL     1      -0.559  -1.487  24.488  0.00  0.00    +0.010 A 
ATOM     27  C   UNL     1      -0.953   0.561  23.267  0.00  0.00    +0.010 A 
ATOM     28  C   UNL     1       0.814  -1.333  24.304  0.00  0.00    +0.009 A 
ATOM     29  C   UNL     1       0.421   0.715  23.083  0.00  0.00    +0.009 A 
ATOM     30  C   UNL     1       1.305  -0.231  23.602  0.00  0.00    -0.018 A 
BRANCH  30  31
ATOM     31  C   UNL     1       2.729  -0.071  23.411  0.00  0.00    -0.018 A 
ATOM     32  C   UNL     1       3.606  -1.067  23.839  0.00  0.00    +0.008 A 
ATOM     33  C   UNL     1       3.226   1.080  22.797  0.00  0.00    +0.008 A 
ATOM     34  C   UNL     1       4.981  -0.913  23.654  0.00  0.00    +0.001 A 
ATOM     35  C   UNL     1       4.600   1.233  22.612  0.00  0.00    +0.001 A 
ATOM     36  C   UNL     1       5.478   0.236  23.040  0.00  0.00    +0.000 A 
ENDBRANCH  30  31
ENDBRANCH  20  24
TORSDOF 9
ENDMDL
