MODEL 1
REMARK VINA RESULT:      -2.8      0.000      0.000
REMARK  Name = 38030867
REMARK  13 active torsions:
REMARK  status: ('A' for Active; 'I' for Inactive)
REMARK    1  A    between atoms: O_2  and  C_28
REMARK    2  A    between atoms: O_2  and  C_29
REMARK    3  A    between atoms: N_3  and  C_13
REMARK    4  A    between atoms: N_3  and  C_19
REMARK    5  A    between atoms: C_6  and  C_10
REMARK    6  A    between atoms: C_7  and  C_13
REMARK    7  A    between atoms: C_9  and  C_14
REMARK    8  A    between atoms: C_10  and  C_15
REMARK    9  A    between atoms: C_10  and  C_16
REMARK   10  A    between atoms: C_11  and  C_17
REMARK   11  A    between atoms: C_14  and  C_18
REMARK   12  A    between atoms: C_19  and  C_21
REMARK   13  A    between atoms: C_20  and  C_22
REMARK                            x       y       z     vdW  Elec       q    Type
REMARK                         _______ _______ _______ _____ _____    ______ ____
ROOT
ATOM      6  C   UNL     1      -3.648   2.317  24.103  0.00  0.00    +0.000 C 
ATOM      7  C   UNL     1      -4.479   3.489  24.681  0.00  0.00    +0.029 C 
ATOM      8  C   UNL     1      -4.533   1.078  23.904  0.00  0.00    +0.012 C 
ATOM      9  C   UNL     1      -5.188   0.611  25.218  0.00  0.00    +0.024 C 
ATOM     11  C   UNL     1      -5.802   1.767  25.982  0.00  0.00    -0.073 C 
ATOM     12  C   UNL     1      -5.483   3.047  25.719  0.00  0.00    -0.023 C 
ATOM     17  C   UNL     1      -6.826   1.420  27.027  0.00  0.00    +0.039 C 
ENDROOT
BRANCH   6  10
ATOM     10  C   UNL     1      -2.976   2.693  22.779  0.00  0.00    -0.013 C 
ATOM     15  C   UNL     1      -2.527   1.440  22.034  0.00  0.00    +0.007 C 
ATOM     16  C   UNL     1      -3.924   3.523  21.919  0.00  0.00    +0.007 C 
ENDBRANCH   6  10
BRANCH   7  13
ATOM     13  C   UNL     1      -3.571   4.570  25.276  0.00  0.00    +0.089 C 
BRANCH  13   3
ATOM      3  N   UNL     1      -2.910   4.083  26.474  0.00  0.00    -0.305 NA
ATOM     30  H   UNL     1      -2.811   4.838  27.153  0.00  0.00    +0.123 HD
BRANCH   3  19
ATOM     19  C   UNL     1      -1.591   3.544  26.164  0.00  0.00    +0.170 C 
BRANCH  19  21
ATOM     21  C   UNL     1      -0.902   4.383  25.178  0.00  0.00    -0.090 C 
ATOM     25  C   UNL     1      -0.332   5.067  24.373  0.00  0.00    +0.005 C 
ENDBRANCH  19  21
ENDBRANCH   3  19
ENDBRANCH  13   3
ENDBRANCH   7  13
BRANCH   9  14
ATOM     14  C   UNL     1      -4.187  -0.154  26.092  0.00  0.00    +0.105 C 
BRANCH  14  18
ATOM      1  O   UNL     1      -1.989   0.051  25.053  0.00  0.00    -0.420 OA
ATOM      4  N   UNL     1      -2.983  -1.922  24.710  0.00  0.00    -0.112 NA
ATOM      5  N   UNL     1      -1.757  -1.945  24.072  0.00  0.00    -0.107 NA
ATOM     18  C   UNL     1      -3.076  -0.739  25.269  0.00  0.00    +0.218 A 
ATOM     20  C   UNL     1      -1.212  -0.773  24.298  0.00  0.00    +0.248 A 
BRANCH  20  22
ATOM     22  C   UNL     1       0.051  -0.238  23.882  0.00  0.00    +0.039 A 
ATOM     23  C   UNL     1       0.398   1.071  24.213  0.00  0.00    +0.017 A 
ATOM     24  C   UNL     1       0.936  -1.028  23.146  0.00  0.00    +0.017 A 
ATOM     26  C   UNL     1       1.627   1.592  23.809  0.00  0.00    +0.046 A 
ATOM     27  C   UNL     1       2.165  -0.508  22.742  0.00  0.00    +0.046 A 
ATOM     28  C   UNL     1       2.510   0.803  23.073  0.00  0.00    +0.120 A 
BRANCH  28   2
ATOM      2  O   UNL     1       3.711   1.309  22.682  0.00  0.00    -0.495 OA
ATOM     29  C   UNL     1       4.880   0.592  23.080  0.00  0.00    +0.277 C 
ENDBRANCH  28   2
ENDBRANCH  20  22
ENDBRANCH  14  18
ENDBRANCH   9  14
TORSDOF 9
ENDMDL
MODEL 2
REMARK VINA RESULT:       0.0      1.736      2.851
REMARK  Name = 38030867
REMARK  13 active torsions:
REMARK  status: ('A' for Active; 'I' for Inactive)
REMARK    1  A    between atoms: O_2  and  C_28
REMARK    2  A    between atoms: O_2  and  C_29
REMARK    3  A    between atoms: N_3  and  C_13
REMARK    4  A    between atoms: N_3  and  C_19
REMARK    5  A    between atoms: C_6  and  C_10
REMARK    6  A    between atoms: C_7  and  C_13
REMARK    7  A    between atoms: C_9  and  C_14
REMARK    8  A    between atoms: C_10  and  C_15
REMARK    9  A    between atoms: C_10  and  C_16
REMARK   10  A    between atoms: C_11  and  C_17
REMARK   11  A    between atoms: C_14  and  C_18
REMARK   12  A    between atoms: C_19  and  C_21
REMARK   13  A    between atoms: C_20  and  C_22
REMARK                            x       y       z     vdW  Elec       q    Type
REMARK                         _______ _______ _______ _____ _____    ______ ____
ROOT
ATOM      6  C   UNL     1      -2.109   3.869  24.920  0.00  0.00    +0.000 C 
ATOM      7  C   UNL     1      -2.606   3.781  26.384  0.00  0.00    +0.029 C 
ATOM      8  C   UNL     1      -3.266   4.249  23.983  0.00  0.00    +0.012 C 
ATOM      9  C   UNL     1      -4.424   3.235  24.045  0.00  0.00    +0.024 C 
ATOM     11  C   UNL     1      -4.795   2.891  25.474  0.00  0.00    -0.073 C 
ATOM     12  C   UNL     1      -3.976   3.156  26.507  0.00  0.00    -0.023 C 
ATOM     17  C   UNL     1      -6.150   2.278  25.693  0.00  0.00    +0.039 C 
ENDROOT
BRANCH   6  10
ATOM     10  C   UNL     1      -0.965   4.876  24.766  0.00  0.00    -0.013 C 
ATOM     15  C   UNL     1      -0.232   4.652  23.448  0.00  0.00    +0.007 C 
ATOM     16  C   UNL     1      -1.498   6.303  24.853  0.00  0.00    +0.007 C 
ENDBRANCH   6  10
BRANCH   7  13
ATOM     13  C   UNL     1      -1.612   3.011  27.260  0.00  0.00    +0.089 C 
BRANCH  13   3
ATOM      3  N   UNL     1      -0.612   2.349  26.441  0.00  0.00    -0.305 NA
ATOM     30  H   UNL     1      -0.682   1.338  26.549  0.00  0.00    +0.123 HD
BRANCH   3  19
ATOM     19  C   UNL     1       0.734   2.776  26.809  0.00  0.00    +0.170 C 
BRANCH  19  21
ATOM     21  C   UNL     1       0.992   2.524  28.231  0.00  0.00    -0.090 C 
ATOM     25  C   UNL     1       1.207   2.312  29.392  0.00  0.00    +0.005 C 
ENDBRANCH  19  21
ENDBRANCH   3  19
ENDBRANCH  13   3
ENDBRANCH   7  13
BRANCH   9  14
ATOM     14  C   UNL     1      -4.094   1.970  23.245  0.00  0.00    +0.105 C 
BRANCH  14  18
ATOM      1  O   UNL     1      -1.723   1.401  23.153  0.00  0.00    -0.420 OA
ATOM      4  N   UNL     1      -2.816   0.491  24.879  0.00  0.00    -0.112 NA
ATOM      5  N   UNL     1      -1.496   0.089  24.951  0.00  0.00    -0.107 NA
ATOM     18  C   UNL     1      -2.903   1.255  23.815  0.00  0.00    +0.218 A 
ATOM     20  C   UNL     1      -0.895   0.643  23.924  0.00  0.00    +0.248 A 
BRANCH  20  22
ATOM     22  C   UNL     1       0.472   0.576  23.498  0.00  0.00    +0.039 A 
ATOM     23  C   UNL     1       0.922  -0.522  22.765  0.00  0.00    +0.017 A 
ATOM     24  C   UNL     1       1.354   1.610  23.817  0.00  0.00    +0.017 A 
ATOM     26  C   UNL     1       2.251  -0.587  22.350  0.00  0.00    +0.046 A 
ATOM     27  C   UNL     1       2.684   1.545  23.402  0.00  0.00    +0.046 A 
ATOM     28  C   UNL     1       3.133   0.445  22.668  0.00  0.00    +0.120 A 
BRANCH  28   2
ATOM      2  O   UNL     1       4.430   0.384  22.261  0.00  0.00    -0.495 OA
ATOM     29  C   UNL     1       5.411   0.091  23.255  0.00  0.00    +0.277 C 
ENDBRANCH  28   2
ENDBRANCH  20  22
ENDBRANCH  14  18
ENDBRANCH   9  14
TORSDOF 9
ENDMDL
MODEL 3
REMARK VINA RESULT:       1.0      2.447      5.447
REMARK  Name = 38030867
REMARK  13 active torsions:
REMARK  status: ('A' for Active; 'I' for Inactive)
REMARK    1  A    between atoms: O_2  and  C_28
REMARK    2  A    between atoms: O_2  and  C_29
REMARK    3  A    between atoms: N_3  and  C_13
REMARK    4  A    between atoms: N_3  and  C_19
REMARK    5  A    between atoms: C_6  and  C_10
REMARK    6  A    between atoms: C_7  and  C_13
REMARK    7  A    between atoms: C_9  and  C_14
REMARK    8  A    between atoms: C_10  and  C_15
REMARK    9  A    between atoms: C_10  and  C_16
REMARK   10  A    between atoms: C_11  and  C_17
REMARK   11  A    between atoms: C_14  and  C_18
REMARK   12  A    between atoms: C_19  and  C_21
REMARK   13  A    between atoms: C_20  and  C_22
REMARK                            x       y       z     vdW  Elec       q    Type
REMARK                         _______ _______ _______ _____ _____    ______ ____
ROOT
ATOM      6  C   UNL     1      -2.203   2.470  23.873  0.00  0.00    +0.000 C 
ATOM      7  C   UNL     1      -0.732   2.952  23.811  0.00  0.00    +0.029 C 
ATOM      8  C   UNL     1      -3.161   3.635  23.580  0.00  0.00    +0.012 C 
ATOM      9  C   UNL     1      -2.986   4.798  24.574  0.00  0.00    +0.024 C 
ATOM     11  C   UNL     1      -1.527   5.156  24.771  0.00  0.00    -0.073 C 
ATOM     12  C   UNL     1      -0.533   4.324  24.411  0.00  0.00    -0.023 C 
ATOM     17  C   UNL     1      -1.234   6.512  25.349  0.00  0.00    +0.039 C 
ENDROOT
BRANCH   6  10
ATOM     10  C   UNL     1      -2.468   1.321  22.895  0.00  0.00    -0.013 C 
ATOM     15  C   UNL     1      -2.425   1.826  21.456  0.00  0.00    +0.007 C 
ATOM     16  C   UNL     1      -1.454   0.201  23.106  0.00  0.00    +0.007 C 
ENDBRANCH   6  10
BRANCH   7  13
ATOM     13  C   UNL     1       0.206   1.953  24.498  0.00  0.00    +0.089 C 
BRANCH  13   3
ATOM      3  N   UNL     1       1.525   1.988  23.891  0.00  0.00    -0.305 NA
ATOM     30  H   UNL     1       1.569   2.723  23.186  0.00  0.00    +0.123 HD
BRANCH   3  19
ATOM     19  C   UNL     1       1.851   0.710  23.268  0.00  0.00    +0.170 C 
BRANCH  19  21
ATOM     21  C   UNL     1       3.283   0.627  22.961  0.00  0.00    -0.090 C 
ATOM     25  C   UNL     1       4.454   0.566  22.708  0.00  0.00    +0.005 C 
ENDBRANCH  19  21
ENDBRANCH   3  19
ENDBRANCH  13   3
ENDBRANCH   7  13
BRANCH   9  14
ATOM     14  C   UNL     1      -3.660   4.485  25.915  0.00  0.00    +0.105 C 
BRANCH  14  18
ATOM      1  O   UNL     1      -3.761   2.086  25.484  0.00  0.00    -0.420 OA
ATOM      4  N   UNL     1      -5.714   2.989  26.095  0.00  0.00    -0.112 NA
ATOM      5  N   UNL     1      -5.916   1.637  25.886  0.00  0.00    -0.107 NA
ATOM     18  C   UNL     1      -4.443   3.205  25.849  0.00  0.00    +0.218 A 
ATOM     20  C   UNL     1      -4.750   1.151  25.531  0.00  0.00    +0.248 A 
BRANCH  20  22
ATOM     22  C   UNL     1      -4.365  -0.188  25.191  0.00  0.00    +0.039 A 
ATOM     23  C   UNL     1      -4.803  -0.759  23.996  0.00  0.00    +0.017 A 
ATOM     24  C   UNL     1      -3.550  -0.920  26.056  0.00  0.00    +0.017 A 
ATOM     26  C   UNL     1      -4.427  -2.060  23.666  0.00  0.00    +0.046 A 
ATOM     27  C   UNL     1      -3.174  -2.221  25.725  0.00  0.00    +0.046 A 
ATOM     28  C   UNL     1      -3.614  -2.792  24.530  0.00  0.00    +0.120 A 
BRANCH  28   2
ATOM      2  O   UNL     1      -3.244  -4.061  24.206  0.00  0.00    -0.495 OA
ATOM     29  C   UNL     1      -2.261  -4.211  23.182  0.00  0.00    +0.277 C 
ENDBRANCH  28   2
ENDBRANCH  20  22
ENDBRANCH  14  18
ENDBRANCH   9  14
TORSDOF 9
ENDMDL
MODEL 4
REMARK VINA RESULT:       1.1      1.607      3.212
REMARK  Name = 38030867
REMARK  13 active torsions:
REMARK  status: ('A' for Active; 'I' for Inactive)
REMARK    1  A    between atoms: O_2  and  C_28
REMARK    2  A    between atoms: O_2  and  C_29
REMARK    3  A    between atoms: N_3  and  C_13
REMARK    4  A    between atoms: N_3  and  C_19
REMARK    5  A    between atoms: C_6  and  C_10
REMARK    6  A    between atoms: C_7  and  C_13
REMARK    7  A    between atoms: C_9  and  C_14
REMARK    8  A    between atoms: C_10  and  C_15
REMARK    9  A    between atoms: C_10  and  C_16
REMARK   10  A    between atoms: C_11  and  C_17
REMARK   11  A    between atoms: C_14  and  C_18
REMARK   12  A    between atoms: C_19  and  C_21
REMARK   13  A    between atoms: C_20  and  C_22
REMARK                            x       y       z     vdW  Elec       q    Type
REMARK                         _______ _______ _______ _____ _____    ______ ____
ROOT
ATOM      6  C   UNL     1      -1.939   3.919  24.795  0.00  0.00    +0.000 C 
ATOM      7  C   UNL     1      -2.221   3.219  26.147  0.00  0.00    +0.029 C 
ATOM      8  C   UNL     1      -3.219   4.569  24.249  0.00  0.00    +0.012 C 
ATOM      9  C   UNL     1      -4.351   3.544  24.042  0.00  0.00    +0.024 C 
ATOM     11  C   UNL     1      -4.512   2.633  25.242  0.00  0.00    -0.073 C 
ATOM     12  C   UNL     1      -3.556   2.511  26.179  0.00  0.00    -0.023 C 
ATOM     17  C   UNL     1      -5.819   1.899  25.364  0.00  0.00    +0.039 C 
ENDROOT
BRANCH   6  10
ATOM     10  C   UNL     1      -0.834   4.972  24.918  0.00  0.00    -0.013 C 
ATOM     15  C   UNL     1       0.146   4.856  23.756  0.00  0.00    +0.007 C 
ATOM     16  C   UNL     1      -1.439   6.372  24.977  0.00  0.00    +0.007 C 
ENDBRANCH   6  10
BRANCH   7  13
ATOM     13  C   UNL     1      -1.108   2.226  26.499  0.00  0.00    +0.089 C 
BRANCH  13   3
ATOM      3  N   UNL     1      -1.354   0.937  25.878  0.00  0.00    -0.305 NA
ATOM     30  H   UNL     1      -2.354   0.803  25.731  0.00  0.00    +0.123 HD
BRANCH   3  19
ATOM     19  C   UNL     1      -0.843  -0.151  26.704  0.00  0.00    +0.170 C 
BRANCH  19  21
ATOM     21  C   UNL     1      -0.613  -1.356  25.899  0.00  0.00    -0.090 C 
ATOM     25  C   UNL     1      -0.428  -2.345  25.246  0.00  0.00    +0.005 C 
ENDBRANCH  19  21
ENDBRANCH   3  19
ENDBRANCH  13   3
ENDBRANCH   7  13
BRANCH   9  14
ATOM     14  C   UNL     1      -4.131   2.731  22.761  0.00  0.00    +0.105 C 
BRANCH  14  18
ATOM      1  O   UNL     1      -1.837   1.899  22.794  0.00  0.00    -0.420 OA
ATOM      4  N   UNL     1      -3.374   0.368  23.339  0.00  0.00    -0.112 NA
ATOM      5  N   UNL     1      -2.131  -0.234  23.399  0.00  0.00    -0.107 NA
ATOM     18  C   UNL     1      -3.154   1.612  22.983  0.00  0.00    +0.218 A 
ATOM     20  C   UNL     1      -1.265   0.696  23.073  0.00  0.00    +0.248 A 
BRANCH  20  22
ATOM     22  C   UNL     1       0.164   0.642  22.968  0.00  0.00    +0.039 A 
ATOM     23  C   UNL     1       0.950   1.559  23.664  0.00  0.00    +0.017 A 
ATOM     24  C   UNL     1       0.768  -0.331  22.170  0.00  0.00    +0.017 A 
ATOM     26  C   UNL     1       2.340   1.505  23.563  0.00  0.00    +0.046 A 
ATOM     27  C   UNL     1       2.158  -0.384  22.068  0.00  0.00    +0.046 A 
ATOM     28  C   UNL     1       2.945   0.535  22.765  0.00  0.00    +0.120 A 
BRANCH  28   2
ATOM      2  O   UNL     1       4.301   0.479  22.668  0.00  0.00    -0.495 OA
ATOM     29  C   UNL     1       4.987  -0.341  23.614  0.00  0.00    +0.277 C 
ENDBRANCH  28   2
ENDBRANCH  20  22
ENDBRANCH  14  18
ENDBRANCH   9  14
TORSDOF 9
ENDMDL
MODEL 5
REMARK VINA RESULT:       1.1      2.821      5.223
REMARK  Name = 38030867
REMARK  13 active torsions:
REMARK  status: ('A' for Active; 'I' for Inactive)
REMARK    1  A    between atoms: O_2  and  C_28
REMARK    2  A    between atoms: O_2  and  C_29
REMARK    3  A    between atoms: N_3  and  C_13
REMARK    4  A    between atoms: N_3  and  C_19
REMARK    5  A    between atoms: C_6  and  C_10
REMARK    6  A    between atoms: C_7  and  C_13
REMARK    7  A    between atoms: C_9  and  C_14
REMARK    8  A    between atoms: C_10  and  C_15
REMARK    9  A    between atoms: C_10  and  C_16
REMARK   10  A    between atoms: C_11  and  C_17
REMARK   11  A    between atoms: C_14  and  C_18
REMARK   12  A    between atoms: C_19  and  C_21
REMARK   13  A    between atoms: C_20  and  C_22
REMARK                            x       y       z     vdW  Elec       q    Type
REMARK                         _______ _______ _______ _____ _____    ______ ____
ROOT
ATOM      6  C   UNL     1      -1.992   2.472  24.206  0.00  0.00    +0.000 C 
ATOM      7  C   UNL     1      -0.577   3.099  24.260  0.00  0.00    +0.029 C 
ATOM      8  C   UNL     1      -3.010   3.491  23.672  0.00  0.00    +0.012 C 
ATOM      9  C   UNL     1      -3.072   4.763  24.539  0.00  0.00    +0.024 C 
ATOM     11  C   UNL     1      -1.689   5.292  24.861  0.00  0.00    -0.073 C 
ATOM     12  C   UNL     1      -0.585   4.539  24.717  0.00  0.00    -0.023 C 
ATOM     17  C   UNL     1      -1.600   6.725  25.309  0.00  0.00    +0.039 C 
ENDROOT
BRANCH   6  10
ATOM     10  C   UNL     1      -2.022   1.207  23.343  0.00  0.00    -0.013 C 
ATOM     15  C   UNL     1      -2.369   1.555  21.899  0.00  0.00    +0.007 C 
ATOM     16  C   UNL     1      -0.683   0.481  23.418  0.00  0.00    +0.007 C 
ENDBRANCH   6  10
BRANCH   7  13
ATOM     13  C   UNL     1       0.356   2.282  25.161  0.00  0.00    +0.089 C 
BRANCH  13   3
ATOM      3  N   UNL     1       0.641   3.000  26.391  0.00  0.00    -0.305 NA
ATOM     30  H   UNL     1       1.633   3.228  26.443  0.00  0.00    +0.123 HD
BRANCH   3  19
ATOM     19  C   UNL     1       0.271   2.208  27.559  0.00  0.00    +0.170 C 
BRANCH  19  21
ATOM     21  C   UNL     1       1.236   2.401  28.647  0.00  0.00    -0.090 C 
ATOM     25  C   UNL     1       2.022   2.553  29.541  0.00  0.00    +0.005 C 
ENDBRANCH  19  21
ENDBRANCH   3  19
ENDBRANCH  13   3
ENDBRANCH   7  13
BRANCH   9  14
ATOM     14  C   UNL     1      -3.878   4.519  25.820  0.00  0.00    +0.105 C 
BRANCH  14  18
ATOM      1  O   UNL     1      -3.895   2.115  25.401  0.00  0.00    -0.420 OA
ATOM      4  N   UNL     1      -5.876   2.951  26.016  0.00  0.00    -0.112 NA
ATOM      5  N   UNL     1      -6.030   1.592  25.814  0.00  0.00    -0.107 NA
ATOM     18  C   UNL     1      -4.614   3.212  25.764  0.00  0.00    +0.218 A 
ATOM     20  C   UNL     1      -4.849   1.146  25.457  0.00  0.00    +0.248 A 
BRANCH  20  22
ATOM     22  C   UNL     1      -4.418  -0.180  25.122  0.00  0.00    +0.039 A 
ATOM     23  C   UNL     1      -3.600  -0.890  26.001  0.00  0.00    +0.017 A 
ATOM     24  C   UNL     1      -4.816  -0.760  23.917  0.00  0.00    +0.017 A 
ATOM     26  C   UNL     1      -3.181  -2.180  25.676  0.00  0.00    +0.046 A 
ATOM     27  C   UNL     1      -4.397  -2.050  23.593  0.00  0.00    +0.046 A 
ATOM     28  C   UNL     1      -3.578  -2.760  24.472  0.00  0.00    +0.120 A 
BRANCH  28   2
ATOM      2  O   UNL     1      -3.173  -4.020  24.156  0.00  0.00    -0.495 OA
ATOM     29  C   UNL     1      -2.085  -4.142  23.240  0.00  0.00    +0.277 C 
ENDBRANCH  28   2
ENDBRANCH  20  22
ENDBRANCH  14  18
ENDBRANCH   9  14
TORSDOF 9
ENDMDL
