MODEL 1
REMARK VINA RESULT:      -5.1      0.000      0.000
REMARK  Name = 75366944
REMARK  8 active torsions:
REMARK  status: ('A' for Active; 'I' for Inactive)
REMARK    1  A    between atoms: O_3  and  C_11
REMARK    2  A    between atoms: N_6  and  C_15
REMARK    3  A    between atoms: N_8  and  C_21
REMARK    4  A    between atoms: C_9  and  C_14
REMARK    5  A    between atoms: C_10  and  C_15
REMARK    6  A    between atoms: C_14  and  C_16
REMARK    7  A    between atoms: C_19  and  C_20
REMARK    8  A    between atoms: C_21  and  C_24
REMARK                            x       y       z     vdW  Elec       q    Type
REMARK                         _______ _______ _______ _____ _____    ______ ____
ROOT
ATOM      2  O   UNL     1      -5.741  -9.176  11.156  0.00  0.00    -0.369 OA
ATOM      9  C   UNL     1      -5.022 -10.344  10.753  0.00  0.00    +0.125 C 
ATOM     10  C   UNL     1      -7.046  -9.034  10.582  0.00  0.00    +0.164 C 
ATOM     11  C   UNL     1      -6.991  -9.077   9.050  0.00  0.00    +0.145 C 
ATOM     12  C   UNL     1      -4.840 -10.369   9.237  0.00  0.00    +0.034 C 
ATOM     13  C   UNL     1      -6.190 -10.269   8.531  0.00  0.00    +0.036 C 
ENDROOT
BRANCH  11   3
ATOM      3  O   UNL     1      -6.355  -7.887   8.578  0.00  0.00    -0.389 OA
ATOM     28  H   UNL     1      -5.893  -8.108   7.751  0.00  0.00    +0.210 HD
ENDBRANCH  11   3
BRANCH   9  14
ATOM     14  C   UNL     1      -3.674 -10.321  11.461  0.00  0.00    +0.090 C 
BRANCH  14  16
ATOM      4  O   UNL     1      -3.234 -10.701  15.018  0.00  0.00    -0.354 OA
ATOM      7  N   UNL     1      -2.745 -10.625  13.720  0.00  0.00    -0.083 NA
ATOM     16  C   UNL     1      -3.824 -10.447  12.953  0.00  0.00    +0.087 A 
ATOM     17  C   UNL     1      -5.011 -10.404  13.705  0.00  0.00    +0.076 A 
ATOM     19  C   UNL     1      -4.584 -10.568  14.997  0.00  0.00    +0.167 A 
BRANCH  19  20
ATOM      1  F   UNL     1      -7.112 -10.781  19.948  0.00  0.00    -0.205 F 
ATOM     20  C   UNL     1      -5.237 -10.624  16.273  0.00  0.00    +0.020 A 
ATOM     22  C   UNL     1      -6.630 -10.639  16.345  0.00  0.00    +0.014 A 
ATOM     23  C   UNL     1      -4.477 -10.663  17.443  0.00  0.00    +0.014 A 
ATOM     25  C   UNL     1      -7.263 -10.692  17.587  0.00  0.00    +0.039 A 
ATOM     26  C   UNL     1      -5.111 -10.715  18.684  0.00  0.00    +0.039 A 
ATOM     27  C   UNL     1      -6.504 -10.730  18.755  0.00  0.00    +0.123 A 
ENDBRANCH  19  20
ENDBRANCH  14  16
ENDBRANCH   9  14
BRANCH  10  15
ATOM     15  C   UNL     1      -8.021 -10.051  11.172  0.00  0.00    +0.140 C 
BRANCH  15   6
ATOM      5  O   UNL     1      -8.544 -10.781  13.915  0.00  0.00    -0.253 OA
ATOM      6  N   UNL     1      -8.937  -9.421  12.073  0.00  0.00    -0.297 N 
ATOM      8  N   UNL     1     -10.082  -9.049  14.047  0.00  0.00    -0.300 N 
ATOM     18  C   UNL     1      -9.135  -9.836  13.395  0.00  0.00    +0.300 C 
ATOM     29  H   UNL     1      -9.508  -8.657  11.722  0.00  0.00    +0.150 HD
ATOM     30  H   UNL     1     -10.523  -8.292  13.534  0.00  0.00    +0.150 HD
BRANCH   8  21
ATOM     21  C   UNL     1     -10.469  -9.268  15.420  0.00  0.00    +0.102 C 
ATOM     24  C   UNL     1      -9.894  -8.205  16.335  0.00  0.00    +0.024 C 
ENDBRANCH   8  21
ENDBRANCH  15   6
ENDBRANCH  10  15
TORSDOF 7
ENDMDL
MODEL 2
REMARK VINA RESULT:      -3.8      2.361      3.663
REMARK  Name = 75366944
REMARK  8 active torsions:
REMARK  status: ('A' for Active; 'I' for Inactive)
REMARK    1  A    between atoms: O_3  and  C_11
REMARK    2  A    between atoms: N_6  and  C_15
REMARK    3  A    between atoms: N_8  and  C_21
REMARK    4  A    between atoms: C_9  and  C_14
REMARK    5  A    between atoms: C_10  and  C_15
REMARK    6  A    between atoms: C_14  and  C_16
REMARK    7  A    between atoms: C_19  and  C_20
REMARK    8  A    between atoms: C_21  and  C_24
REMARK                            x       y       z     vdW  Elec       q    Type
REMARK                         _______ _______ _______ _____ _____    ______ ____
ROOT
ATOM      2  O   UNL     1      -7.997  -9.486  11.037  0.00  0.00    -0.369 OA
ATOM      9  C   UNL     1      -7.910 -10.416   9.955  0.00  0.00    +0.125 C 
ATOM     10  C   UNL     1      -9.228  -9.514  11.770  0.00  0.00    +0.164 C 
ATOM     11  C   UNL     1     -10.434  -9.311  10.844  0.00  0.00    +0.145 C 
ATOM     12  C   UNL     1      -9.029 -10.171   8.943  0.00  0.00    +0.034 C 
ATOM     13  C   UNL     1     -10.393 -10.230   9.626  0.00  0.00    +0.036 C 
ENDROOT
BRANCH  11   3
ATOM      3  O   UNL     1     -10.430  -7.961  10.372  0.00  0.00    -0.389 OA
ATOM     28  H   UNL     1     -11.345  -7.728  10.140  0.00  0.00    +0.210 HD
ENDBRANCH  11   3
BRANCH   9  14
ATOM     14  C   UNL     1      -6.543 -10.239   9.305  0.00  0.00    +0.090 C 
BRANCH  14  16
ATOM      4  O   UNL     1      -3.415 -10.604  11.057  0.00  0.00    -0.354 OA
ATOM      7  N   UNL     1      -4.173 -10.541   9.894  0.00  0.00    -0.083 NA
ATOM     16  C   UNL     1      -5.429 -10.355  10.310  0.00  0.00    +0.087 A 
ATOM     17  C   UNL     1      -5.524 -10.294  11.711  0.00  0.00    +0.076 A 
ATOM     19  C   UNL     1      -4.230 -10.455  12.132  0.00  0.00    +0.167 A 
BRANCH  19  20
ATOM      1  F   UNL     1      -1.734 -10.621  17.102  0.00  0.00    -0.205 F 
ATOM     20  C   UNL     1      -3.586 -10.497  13.413  0.00  0.00    +0.020 A 
ATOM     22  C   UNL     1      -2.194 -10.438  13.497  0.00  0.00    +0.014 A 
ATOM     23  C   UNL     1      -4.352 -10.598  14.575  0.00  0.00    +0.014 A 
ATOM     25  C   UNL     1      -1.569 -10.480  14.743  0.00  0.00    +0.039 A 
ATOM     26  C   UNL     1      -3.726 -10.640  15.821  0.00  0.00    +0.039 A 
ATOM     27  C   UNL     1      -2.335 -10.581  15.904  0.00  0.00    +0.123 A 
ENDBRANCH  19  20
ENDBRANCH  14  16
ENDBRANCH   9  14
BRANCH  10  15
ATOM     15  C   UNL     1      -9.335 -10.780  12.618  0.00  0.00    +0.140 C 
BRANCH  15   6
ATOM      5  O   UNL     1      -7.374  -9.688  14.433  0.00  0.00    -0.253 OA
ATOM      6  N   UNL     1      -9.524 -10.457  13.999  0.00  0.00    -0.297 N 
ATOM      8  N   UNL     1      -8.971  -9.709  16.116  0.00  0.00    -0.300 N 
ATOM     18  C   UNL     1      -8.518  -9.928  14.817  0.00  0.00    +0.300 C 
ATOM     29  H   UNL     1     -10.424 -10.663  14.422  0.00  0.00    +0.150 HD
ATOM     30  H   UNL     1      -9.933  -9.943  16.343  0.00  0.00    +0.150 HD
BRANCH   8  21
ATOM     21  C   UNL     1      -8.130  -9.169  17.157  0.00  0.00    +0.102 C 
ATOM     24  C   UNL     1      -7.190 -10.220  17.712  0.00  0.00    +0.024 C 
ENDBRANCH   8  21
ENDBRANCH  15   6
ENDBRANCH  10  15
TORSDOF 7
ENDMDL
MODEL 3
REMARK VINA RESULT:      -3.7      1.883      2.371
REMARK  Name = 75366944
REMARK  8 active torsions:
REMARK  status: ('A' for Active; 'I' for Inactive)
REMARK    1  A    between atoms: O_3  and  C_11
REMARK    2  A    between atoms: N_6  and  C_15
REMARK    3  A    between atoms: N_8  and  C_21
REMARK    4  A    between atoms: C_9  and  C_14
REMARK    5  A    between atoms: C_10  and  C_15
REMARK    6  A    between atoms: C_14  and  C_16
REMARK    7  A    between atoms: C_19  and  C_20
REMARK    8  A    between atoms: C_21  and  C_24
REMARK                            x       y       z     vdW  Elec       q    Type
REMARK                         _______ _______ _______ _____ _____    ______ ____
ROOT
ATOM      2  O   UNL     1      -8.011  -9.445  11.029  0.00  0.00    -0.369 OA
ATOM      9  C   UNL     1      -7.557 -10.359  10.028  0.00  0.00    +0.125 C 
ATOM     10  C   UNL     1      -9.430  -9.411  11.227  0.00  0.00    +0.164 C 
ATOM     11  C   UNL     1     -10.170  -9.116   9.916  0.00  0.00    +0.145 C 
ATOM     12  C   UNL     1      -8.182 -10.027   8.673  0.00  0.00    +0.034 C 
ATOM     13  C   UNL     1      -9.705 -10.013   8.772  0.00  0.00    +0.036 C 
ENDROOT
BRANCH  11   3
ATOM      3  O   UNL     1      -9.915  -7.761   9.538  0.00  0.00    -0.389 OA
ATOM     28  H   UNL     1      -9.828  -7.737   8.570  0.00  0.00    +0.210 HD
ENDBRANCH  11   3
BRANCH   9  14
ATOM     14  C   UNL     1      -6.039 -10.254   9.966  0.00  0.00    +0.090 C 
BRANCH  14  16
ATOM      4  O   UNL     1      -3.864 -10.743  12.798  0.00  0.00    -0.354 OA
ATOM      7  N   UNL     1      -4.103 -10.655  11.432  0.00  0.00    -0.083 NA
ATOM     16  C   UNL     1      -5.412 -10.412  11.324  0.00  0.00    +0.087 A 
ATOM     17  C   UNL     1      -6.045 -10.337  12.578  0.00  0.00    +0.076 A 
ATOM     19  C   UNL     1      -5.027 -10.551  13.470  0.00  0.00    +0.167 A 
BRANCH  19  20
ATOM      1  F   UNL     1      -4.678 -10.781  19.018  0.00  0.00    -0.205 F 
ATOM     20  C   UNL     1      -4.938 -10.612  14.900  0.00  0.00    +0.020 A 
ATOM     22  C   UNL     1      -6.100 -10.608  15.673  0.00  0.00    +0.014 A 
ATOM     23  C   UNL     1      -3.689 -10.673  15.518  0.00  0.00    +0.014 A 
ATOM     25  C   UNL     1      -6.012 -10.665  17.064  0.00  0.00    +0.039 A 
ATOM     26  C   UNL     1      -3.601 -10.730  16.909  0.00  0.00    +0.039 A 
ATOM     27  C   UNL     1      -4.763 -10.726  17.681  0.00  0.00    +0.123 A 
ENDBRANCH  19  20
ENDBRANCH  14  16
ENDBRANCH   9  14
BRANCH  10  15
ATOM     15  C   UNL     1      -9.921 -10.683  11.915  0.00  0.00    +0.140 C 
BRANCH  15   6
ATOM      5  O   UNL     1     -10.713  -8.813  13.966  0.00  0.00    -0.253 OA
ATOM      6  N   UNL     1      -9.537 -10.701  13.294  0.00  0.00    -0.297 N 
ATOM      8  N   UNL     1      -9.443 -10.006  15.497  0.00  0.00    -0.300 N 
ATOM     18  C   UNL     1      -9.966  -9.753  14.231  0.00  0.00    +0.300 C 
ATOM     29  H   UNL     1      -8.884 -11.414  13.601  0.00  0.00    +0.150 HD
ATOM     30  H   UNL     1      -8.829 -10.806  15.620  0.00  0.00    +0.150 HD
BRANCH   8  21
ATOM     21  C   UNL     1      -9.732  -9.176  16.642  0.00  0.00    +0.102 C 
ATOM     24  C   UNL     1      -9.827  -9.998  17.912  0.00  0.00    +0.024 C 
ENDBRANCH   8  21
ENDBRANCH  15   6
ENDBRANCH  10  15
TORSDOF 7
ENDMDL
MODEL 4
REMARK VINA RESULT:      -2.6      3.800      5.539
REMARK  Name = 75366944
REMARK  8 active torsions:
REMARK  status: ('A' for Active; 'I' for Inactive)
REMARK    1  A    between atoms: O_3  and  C_11
REMARK    2  A    between atoms: N_6  and  C_15
REMARK    3  A    between atoms: N_8  and  C_21
REMARK    4  A    between atoms: C_9  and  C_14
REMARK    5  A    between atoms: C_10  and  C_15
REMARK    6  A    between atoms: C_14  and  C_16
REMARK    7  A    between atoms: C_19  and  C_20
REMARK    8  A    between atoms: C_21  and  C_24
REMARK                            x       y       z     vdW  Elec       q    Type
REMARK                         _______ _______ _______ _____ _____    ______ ____
ROOT
ATOM      2  O   UNL     1      -6.314  -9.402  10.763  0.00  0.00    -0.369 OA
ATOM      9  C   UNL     1      -6.198 -10.603   9.997  0.00  0.00    +0.125 C 
ATOM     10  C   UNL     1      -7.473  -9.323  11.602  0.00  0.00    +0.164 C 
ATOM     11  C   UNL     1      -8.762  -9.522  10.795  0.00  0.00    +0.145 C 
ATOM     12  C   UNL     1      -7.412 -10.781   9.087  0.00  0.00    +0.034 C 
ATOM     13  C   UNL     1      -8.703 -10.758   9.901  0.00  0.00    +0.036 C 
ENDROOT
BRANCH  11   3
ATOM      3  O   UNL     1      -8.958  -8.384   9.952  0.00  0.00    -0.389 OA
ATOM     28  H   UNL     1      -9.435  -8.683   9.159  0.00  0.00    +0.210 HD
ENDBRANCH  11   3
BRANCH   9  14
ATOM     14  C   UNL     1      -4.916 -10.504   9.178  0.00  0.00    +0.090 C 
BRANCH  14  16
ATOM      4  O   UNL     1      -2.392 -10.245  11.738  0.00  0.00    -0.354 OA
ATOM      7  N   UNL     1      -3.563 -10.780  11.215  0.00  0.00    -0.083 NA
ATOM     16  C   UNL     1      -3.729 -10.168  10.039  0.00  0.00    +0.087 A 
ATOM     17  C   UNL     1      -2.704  -9.244   9.770  0.00  0.00    +0.076 A 
ATOM     19  C   UNL     1      -1.890  -9.332  10.869  0.00  0.00    +0.167 A 
BRANCH  19  20
ATOM      1  F   UNL     1       2.833  -6.842  12.431  0.00  0.00    -0.205 F 
ATOM     20  C   UNL     1      -0.673  -8.691  11.273  0.00  0.00    +0.020 A 
ATOM     22  C   UNL     1      -0.674  -7.807  12.353  0.00  0.00    +0.014 A 
ATOM     23  C   UNL     1       0.513  -8.950  10.584  0.00  0.00    +0.014 A 
ATOM     25  C   UNL     1       0.511  -7.183  12.744  0.00  0.00    +0.039 A 
ATOM     26  C   UNL     1       1.697  -8.324  10.976  0.00  0.00    +0.039 A 
ATOM     27  C   UNL     1       1.695  -7.442  12.056  0.00  0.00    +0.123 A 
ENDBRANCH  19  20
ENDBRANCH  14  16
ENDBRANCH   9  14
BRANCH  10  15
ATOM     15  C   UNL     1      -7.359 -10.277  12.789  0.00  0.00    +0.140 C 
BRANCH  15   6
ATOM      5  O   UNL     1      -9.441 -10.446  14.781  0.00  0.00    -0.253 OA
ATOM      6  N   UNL     1      -7.427  -9.565  14.029  0.00  0.00    -0.297 N 
ATOM      8  N   UNL     1      -8.289  -8.894  16.065  0.00  0.00    -0.300 N 
ATOM     18  C   UNL     1      -8.475  -9.702  14.946  0.00  0.00    +0.300 C 
ATOM     29  H   UNL     1      -6.696  -8.890  14.235  0.00  0.00    +0.150 HD
ATOM     30  H   UNL     1      -7.462  -8.308  16.112  0.00  0.00    +0.150 HD
BRANCH   8  21
ATOM     21  C   UNL     1      -9.228  -8.849  17.161  0.00  0.00    +0.102 C 
ATOM     24  C   UNL     1     -10.304  -7.807  16.928  0.00  0.00    +0.024 C 
ENDBRANCH   8  21
ENDBRANCH  15   6
ENDBRANCH  10  15
TORSDOF 7
ENDMDL
MODEL 5
REMARK VINA RESULT:      -2.3      3.762      5.966
REMARK  Name = 75366944
REMARK  8 active torsions:
REMARK  status: ('A' for Active; 'I' for Inactive)
REMARK    1  A    between atoms: O_3  and  C_11
REMARK    2  A    between atoms: N_6  and  C_15
REMARK    3  A    between atoms: N_8  and  C_21
REMARK    4  A    between atoms: C_9  and  C_14
REMARK    5  A    between atoms: C_10  and  C_15
REMARK    6  A    between atoms: C_14  and  C_16
REMARK    7  A    between atoms: C_19  and  C_20
REMARK    8  A    between atoms: C_21  and  C_24
REMARK                            x       y       z     vdW  Elec       q    Type
REMARK                         _______ _______ _______ _____ _____    ______ ____
ROOT
ATOM      2  O   UNL     1      -6.336  -9.492  10.663  0.00  0.00    -0.369 OA
ATOM      9  C   UNL     1      -6.306 -10.621   9.786  0.00  0.00    +0.125 C 
ATOM     10  C   UNL     1      -7.524  -9.365  11.454  0.00  0.00    +0.164 C 
ATOM     11  C   UNL     1      -8.781  -9.343  10.575  0.00  0.00    +0.145 C 
ATOM     12  C   UNL     1      -7.480 -10.577   8.810  0.00  0.00    +0.034 C 
ATOM     13  C   UNL     1      -8.804 -10.488   9.565  0.00  0.00    +0.036 C 
ENDROOT
BRANCH  11   3
ATOM      3  O   UNL     1      -8.810  -8.116   9.842  0.00  0.00    -0.389 OA
ATOM     28  H   UNL     1      -8.183  -8.199   9.103  0.00  0.00    +0.210 HD
ENDBRANCH  11   3
BRANCH   9  14
ATOM     14  C   UNL     1      -4.978 -10.586   9.040  0.00  0.00    +0.090 C 
BRANCH  14  16
ATOM      4  O   UNL     1      -2.600 -10.219  11.723  0.00  0.00    -0.354 OA
ATOM      7  N   UNL     1      -3.749 -10.766  11.164  0.00  0.00    -0.083 NA
ATOM     16  C   UNL     1      -3.836 -10.220   9.948  0.00  0.00    +0.087 A 
ATOM     17  C   UNL     1      -2.781  -9.328   9.688  0.00  0.00    +0.076 A 
ATOM     19  C   UNL     1      -2.033  -9.365  10.835  0.00  0.00    +0.167 A 
BRANCH  19  20
ATOM      1  F   UNL     1       2.637  -6.858  12.527  0.00  0.00    -0.205 F 
ATOM     20  C   UNL     1      -0.829  -8.719  11.272  0.00  0.00    +0.020 A 
ATOM     22  C   UNL     1      -0.841  -7.921  12.417  0.00  0.00    +0.014 A 
ATOM     23  C   UNL     1       0.354  -8.889  10.552  0.00  0.00    +0.014 A 
ATOM     25  C   UNL     1       0.330  -7.293  12.841  0.00  0.00    +0.039 A 
ATOM     26  C   UNL     1       1.524  -8.260  10.976  0.00  0.00    +0.039 A 
ATOM     27  C   UNL     1       1.512  -7.462  12.121  0.00  0.00    +0.123 A 
ENDBRANCH  19  20
ENDBRANCH  14  16
ENDBRANCH   9  14
BRANCH  10  15
ATOM     15  C   UNL     1      -7.578 -10.434  12.543  0.00  0.00    +0.140 C 
BRANCH  15   6
ATOM      5  O   UNL     1      -6.283  -9.538  14.962  0.00  0.00    -0.253 OA
ATOM      6  N   UNL     1      -6.262 -10.773  12.994  0.00  0.00    -0.297 N 
ATOM      8  N   UNL     1      -4.412 -10.780  14.380  0.00  0.00    -0.300 N 
ATOM     18  C   UNL     1      -5.703 -10.295  14.185  0.00  0.00    +0.300 C 
ATOM     29  H   UNL     1      -5.685 -11.358  12.397  0.00  0.00    +0.150 HD
ATOM     30  H   UNL     1      -4.012 -11.398  13.680  0.00  0.00    +0.150 HD
BRANCH   8  21
ATOM     21  C   UNL     1      -3.614 -10.438  15.533  0.00  0.00    +0.102 C 
ATOM     24  C   UNL     1      -2.173 -10.167  15.150  0.00  0.00    +0.024 C 
ENDBRANCH   8  21
ENDBRANCH  15   6
ENDBRANCH  10  15
TORSDOF 7
ENDMDL
MODEL 6
REMARK VINA RESULT:      -2.0     15.585     17.639
REMARK  Name = 75366944
REMARK  8 active torsions:
REMARK  status: ('A' for Active; 'I' for Inactive)
REMARK    1  A    between atoms: O_3  and  C_11
REMARK    2  A    between atoms: N_6  and  C_15
REMARK    3  A    between atoms: N_8  and  C_21
REMARK    4  A    between atoms: C_9  and  C_14
REMARK    5  A    between atoms: C_10  and  C_15
REMARK    6  A    between atoms: C_14  and  C_16
REMARK    7  A    between atoms: C_19  and  C_20
REMARK    8  A    between atoms: C_21  and  C_24
REMARK                            x       y       z     vdW  Elec       q    Type
REMARK                         _______ _______ _______ _____ _____    ______ ____
ROOT
ATOM      2  O   UNL     1      -4.067   1.810  23.819  0.00  0.00    -0.369 OA
ATOM      9  C   UNL     1      -3.562   0.797  24.692  0.00  0.00    +0.125 C 
ATOM     10  C   UNL     1      -4.835   2.838  24.458  0.00  0.00    +0.164 C 
ATOM     11  C   UNL     1      -6.002   2.248  25.259  0.00  0.00    +0.145 C 
ATOM     12  C   UNL     1      -4.706   0.099  25.426  0.00  0.00    +0.034 C 
ATOM     13  C   UNL     1      -5.559   1.114  26.181  0.00  0.00    +0.036 C 
ENDROOT
BRANCH  11   3
ATOM      3  O   UNL     1      -6.966   1.716  24.347  0.00  0.00    -0.389 OA
ATOM     28  H   UNL     1      -7.500   1.063  24.830  0.00  0.00    +0.210 HD
ENDBRANCH  11   3
BRANCH   9  14
ATOM     14  C   UNL     1      -2.780  -0.194  23.839  0.00  0.00    +0.090 C 
BRANCH  14  16
ATOM      4  O   UNL     1       0.361   1.532  23.459  0.00  0.00    -0.354 OA
ATOM      7  N   UNL     1      -1.022   1.510  23.588  0.00  0.00    -0.083 NA
ATOM     16  C   UNL     1      -1.340   0.216  23.686  0.00  0.00    +0.087 A 
ATOM     17  C   UNL     1      -0.209  -0.617  23.625  0.00  0.00    +0.076 A 
ATOM     19  C   UNL     1       0.834   0.260  23.483  0.00  0.00    +0.167 A 
BRANCH  19  20
ATOM      1  F   UNL     1       6.352  -0.274  23.014  0.00  0.00    -0.205 F 
ATOM     20  C   UNL     1       2.256   0.121  23.361  0.00  0.00    +0.020 A 
ATOM     22  C   UNL     1       2.876  -1.072  23.734  0.00  0.00    +0.014 A 
ATOM     23  C   UNL     1       3.020   1.181  22.870  0.00  0.00    +0.014 A 
ATOM     25  C   UNL     1       4.259  -1.205  23.617  0.00  0.00    +0.039 A 
ATOM     26  C   UNL     1       4.404   1.047  22.753  0.00  0.00    +0.039 A 
ATOM     27  C   UNL     1       5.022  -0.147  23.127  0.00  0.00    +0.123 A 
ENDBRANCH  19  20
ENDBRANCH  14  16
ENDBRANCH   9  14
BRANCH  10  15
ATOM     15  C   UNL     1      -3.942   3.755  25.293  0.00  0.00    +0.140 C 
BRANCH  15   6
ATOM      5  O   UNL     1      -1.157   4.508  25.336  0.00  0.00    -0.253 OA
ATOM      6  N   UNL     1      -2.859   3.023  25.876  0.00  0.00    -0.297 N 
ATOM      8  N   UNL     1      -0.682   2.555  26.494  0.00  0.00    -0.300 N 
ATOM     18  C   UNL     1      -1.529   3.457  25.856  0.00  0.00    +0.300 C 
ATOM     29  H   UNL     1      -3.060   2.118  26.291  0.00  0.00    +0.150 HD
ATOM     30  H   UNL     1      -1.079   1.709  26.891  0.00  0.00    +0.150 HD
BRANCH   8  21
ATOM     21  C   UNL     1       0.741   2.767  26.612  0.00  0.00    +0.102 C 
ATOM     24  C   UNL     1       1.206   2.630  28.048  0.00  0.00    +0.024 C 
ENDBRANCH   8  21
ENDBRANCH  15   6
ENDBRANCH  10  15
TORSDOF 7
ENDMDL
MODEL 7
REMARK VINA RESULT:      -1.9     14.797     16.969
REMARK  Name = 75366944
REMARK  8 active torsions:
REMARK  status: ('A' for Active; 'I' for Inactive)
REMARK    1  A    between atoms: O_3  and  C_11
REMARK    2  A    between atoms: N_6  and  C_15
REMARK    3  A    between atoms: N_8  and  C_21
REMARK    4  A    between atoms: C_9  and  C_14
REMARK    5  A    between atoms: C_10  and  C_15
REMARK    6  A    between atoms: C_14  and  C_16
REMARK    7  A    between atoms: C_19  and  C_20
REMARK    8  A    between atoms: C_21  and  C_24
REMARK                            x       y       z     vdW  Elec       q    Type
REMARK                         _______ _______ _______ _____ _____    ______ ____
ROOT
ATOM      2  O   UNL     1      -3.716   1.493  25.591  0.00  0.00    -0.369 OA
ATOM      9  C   UNL     1      -3.475   2.528  24.635  0.00  0.00    +0.125 C 
ATOM     10  C   UNL     1      -4.993   0.851  25.486  0.00  0.00    +0.164 C 
ATOM     11  C   UNL     1      -6.138   1.869  25.560  0.00  0.00    +0.145 C 
ATOM     12  C   UNL     1      -4.529   3.627  24.753  0.00  0.00    +0.034 C 
ATOM     13  C   UNL     1      -5.933   3.044  24.606  0.00  0.00    +0.036 C 
ENDROOT
BRANCH  11   3
ATOM      3  O   UNL     1      -6.204   2.393  26.888  0.00  0.00    -0.389 OA
ATOM     28  H   UNL     1      -6.548   3.301  26.830  0.00  0.00    +0.210 HD
ENDBRANCH  11   3
BRANCH   9  14
ATOM     14  C   UNL     1      -2.081   3.083  24.901  0.00  0.00    +0.090 C 
BRANCH  14  16
ATOM      4  O   UNL     1      -0.137   0.629  23.114  0.00  0.00    -0.354 OA
ATOM      7  N   UNL     1      -1.343   1.219  23.472  0.00  0.00    -0.083 NA
ATOM     16  C   UNL     1      -1.010   2.212  24.302  0.00  0.00    +0.087 A 
ATOM     17  C   UNL     1       0.380   2.295  24.503  0.00  0.00    +0.076 A 
ATOM     19  C   UNL     1       0.881   1.278  23.733  0.00  0.00    +0.167 A 
BRANCH  19  20
ATOM      1  F   UNL     1       5.990  -0.649  22.665  0.00  0.00    -0.205 F 
ATOM     20  C   UNL     1       2.197   0.780  23.457  0.00  0.00    +0.020 A 
ATOM     22  C   UNL     1       2.495  -0.566  23.673  0.00  0.00    +0.014 A 
ATOM     23  C   UNL     1       3.181   1.644  22.973  0.00  0.00    +0.014 A 
ATOM     25  C   UNL     1       3.776  -1.048  23.405  0.00  0.00    +0.039 A 
ATOM     26  C   UNL     1       4.462   1.161  22.706  0.00  0.00    +0.039 A 
ATOM     27  C   UNL     1       4.759  -0.185  22.922  0.00  0.00    +0.123 A 
ENDBRANCH  19  20
ENDBRANCH  14  16
ENDBRANCH   9  14
BRANCH  10  15
ATOM     15  C   UNL     1      -5.063  -0.037  24.246  0.00  0.00    +0.140 C 
BRANCH  15   6
ATOM      5  O   UNL     1      -3.525  -2.068  25.601  0.00  0.00    -0.253 OA
ATOM      6  N   UNL     1      -3.765  -0.519  23.886  0.00  0.00    -0.297 N 
ATOM      8  N   UNL     1      -1.839  -1.790  24.031  0.00  0.00    -0.300 N 
ATOM     18  C   UNL     1      -3.081  -1.512  24.598  0.00  0.00    +0.300 C 
ATOM     29  H   UNL     1      -3.294  -0.088  23.096  0.00  0.00    +0.150 HD
ATOM     30  H   UNL     1      -1.554  -1.275  23.204  0.00  0.00    +0.150 HD
BRANCH   8  21
ATOM     21  C   UNL     1      -0.935  -2.776  24.575  0.00  0.00    +0.102 C 
ATOM     24  C   UNL     1       0.012  -2.161  25.586  0.00  0.00    +0.024 C 
ENDBRANCH   8  21
ENDBRANCH  15   6
ENDBRANCH  10  15
TORSDOF 7
ENDMDL
