MODEL 1
REMARK VINA RESULT:      -1.9      0.000      0.000
REMARK  Name = 7144061
REMARK  4 active torsions:
REMARK  status: ('A' for Active; 'I' for Inactive)
REMARK    1  A    between atoms: N_2  and  C_14
REMARK    2  A    between atoms: C_14  and  C_19
REMARK    3  A    between atoms: C_17  and  C_20
REMARK    4  A    between atoms: C_23  and  C_28
REMARK                            x       y       z     vdW  Elec       q    Type
REMARK                         _______ _______ _______ _____ _____    ______ ____
ROOT
ATOM      1  O   UNL     1      -4.952  -7.403  10.764  0.00  0.00    -0.267 OA
ATOM      2  N   UNL     1      -9.614  -9.245  10.891  0.00  0.00    -0.297 NA
ATOM      3  N   UNL     1      -6.725  -8.525   9.747  0.00  0.00    -0.311 N 
ATOM      7  C   UNL     1      -8.990  -7.414   9.296  0.00  0.00    +0.024 C 
ATOM      8  C   UNL     1      -8.632  -9.749   8.650  0.00  0.00    +0.050 C 
ATOM      9  C   UNL     1      -9.065  -8.383   8.124  0.00  0.00    +0.017 C 
ATOM     10  C   UNL     1      -9.922  -7.885  10.432  0.00  0.00    +0.090 C 
ATOM     11  C   UNL     1      -9.595 -10.198   9.772  0.00  0.00    +0.094 C 
ATOM     12  C   UNL     1      -7.527  -7.294   9.745  0.00  0.00    +0.130 C 
ATOM     13  C   UNL     1      -7.205  -9.700   9.163  0.00  0.00    +0.026 A 
ATOM     15  C   UNL     1      -6.414 -10.781   9.075  0.00  0.00    +0.022 A 
ATOM     16  C   UNL     1      -5.421  -8.431  10.271  0.00  0.00    +0.259 A 
ATOM     17  C   UNL     1      -4.570  -9.669  10.190  0.00  0.00    +0.050 A 
ATOM     18  C   UNL     1      -5.079 -10.763   9.603  0.00  0.00    +0.015 A 
ENDROOT
BRANCH  17  20
ATOM      4  N   UNL     1      -0.941  -8.893  10.739  0.00  0.00    -0.243 NA
ATOM      5  N   UNL     1      -1.622 -10.574  12.326  0.00  0.00    -0.243 NA
ATOM     20  C   UNL     1      -3.205  -9.696  10.747  0.00  0.00    +0.024 A 
ATOM     25  C   UNL     1      -2.200  -8.895  10.254  0.00  0.00    +0.122 A 
ATOM     26  C   UNL     1      -2.859 -10.524  11.792  0.00  0.00    +0.122 A 
ATOM     29  C   UNL     1      -0.724  -9.745  11.761  0.00  0.00    +0.221 A 
ENDBRANCH  17  20
BRANCH   2  14
ATOM     14  C   UNL     1     -10.551  -9.674  11.927  0.00  0.00    +0.119 C 
BRANCH  14  19
ATOM     19  C   UNL     1      -9.901  -9.659  13.284  0.00  0.00    -0.032 A 
ATOM     21  C   UNL     1      -8.538  -9.899  13.394  0.00  0.00    +0.023 A 
ATOM     22  C   UNL     1     -10.674  -9.406  14.409  0.00  0.00    +0.005 A 
ATOM     23  C   UNL     1      -7.936  -9.885  14.652  0.00  0.00    +0.052 A 
ATOM     24  C   UNL     1     -10.072  -9.391  15.667  0.00  0.00    +0.002 A 
ATOM     27  C   UNL     1      -8.704  -9.632  15.789  0.00  0.00    +0.019 A 
BRANCH  23  28
ATOM      6  N   UNL     1      -5.395 -10.329  14.880  0.00  0.00    -0.191 NA
ATOM     28  C   UNL     1      -6.534 -10.131  14.778  0.00  0.00    +0.099 C 
ENDBRANCH  23  28
ENDBRANCH  14  19
ENDBRANCH   2  14
TORSDOF 4
ENDMDL
MODEL 2
REMARK VINA RESULT:       1.8     16.707     18.782
REMARK  Name = 7144061
REMARK  4 active torsions:
REMARK  status: ('A' for Active; 'I' for Inactive)
REMARK    1  A    between atoms: N_2  and  C_14
REMARK    2  A    between atoms: C_14  and  C_19
REMARK    3  A    between atoms: C_17  and  C_20
REMARK    4  A    between atoms: C_23  and  C_28
REMARK                            x       y       z     vdW  Elec       q    Type
REMARK                         _______ _______ _______ _____ _____    ______ ____
ROOT
ATOM      1  O   UNL     1      -1.818   3.714  27.860  0.00  0.00    -0.267 OA
ATOM      2  N   UNL     1      -4.439   1.198  24.404  0.00  0.00    -0.297 NA
ATOM      3  N   UNL     1      -2.310   3.230  25.633  0.00  0.00    -0.311 N 
ATOM      7  C   UNL     1      -4.606   3.693  24.590  0.00  0.00    +0.024 C 
ATOM      8  C   UNL     1      -2.829   2.702  23.227  0.00  0.00    +0.050 C 
ATOM      9  C   UNL     1      -3.820   3.861  23.297  0.00  0.00    +0.017 C 
ATOM     10  C   UNL     1      -5.346   2.339  24.587  0.00  0.00    +0.090 C 
ATOM     11  C   UNL     1      -3.603   1.363  23.207  0.00  0.00    +0.094 C 
ATOM     12  C   UNL     1      -3.642   3.835  25.776  0.00  0.00    +0.130 C 
ATOM     13  C   UNL     1      -1.869   2.743  24.401  0.00  0.00    +0.026 A 
ATOM     15  C   UNL     1      -0.610   2.297  24.264  0.00  0.00    +0.022 A 
ATOM     16  C   UNL     1      -1.474   3.262  26.766  0.00  0.00    +0.259 A 
ATOM     17  C   UNL     1      -0.080   2.723  26.591  0.00  0.00    +0.050 A 
ATOM     18  C   UNL     1       0.293   2.284  25.381  0.00  0.00    +0.015 A 
ENDROOT
BRANCH  17  20
ATOM      4  N   UNL     1       3.066   3.030  28.612  0.00  0.00    -0.243 NA
ATOM      5  N   UNL     1       1.323   2.147  30.022  0.00  0.00    -0.243 NA
ATOM     20  C   UNL     1       0.864   2.667  27.722  0.00  0.00    +0.024 A 
ATOM     25  C   UNL     1       2.175   3.068  27.599  0.00  0.00    +0.122 A 
ATOM     26  C   UNL     1       0.487   2.212  28.967  0.00  0.00    +0.122 A 
ATOM     29  C   UNL     1       2.580   2.566  29.779  0.00  0.00    +0.221 A 
ENDBRANCH  17  20
BRANCH   2  14
ATOM     14  C   UNL     1      -5.183  -0.059  24.353  0.00  0.00    +0.119 C 
BRANCH  14  19
ATOM     19  C   UNL     1      -4.250  -1.237  24.300  0.00  0.00    -0.032 A 
ATOM     21  C   UNL     1      -2.953  -1.107  24.777  0.00  0.00    +0.023 A 
ATOM     22  C   UNL     1      -4.699  -2.442  23.774  0.00  0.00    +0.005 A 
ATOM     23  C   UNL     1      -2.089  -2.201  24.727  0.00  0.00    +0.052 A 
ATOM     24  C   UNL     1      -3.835  -3.535  23.725  0.00  0.00    +0.002 A 
ATOM     27  C   UNL     1      -2.530  -3.415  24.201  0.00  0.00    +0.019 A 
BRANCH  23  28
ATOM      6  N   UNL     1       0.336  -1.980  25.613  0.00  0.00    -0.191 NA
ATOM     28  C   UNL     1      -0.751  -2.079  25.216  0.00  0.00    +0.099 C 
ENDBRANCH  23  28
ENDBRANCH  14  19
ENDBRANCH   2  14
TORSDOF 4
ENDMDL
