MODEL 1
REMARK VINA RESULT:       3.0      0.000      0.000
REMARK  Name = 25388964
REMARK  5 active torsions:
REMARK  status: ('A' for Active; 'I' for Inactive)
REMARK    1  A    between atoms: N_4  and  C_22
REMARK    2  A    between atoms: N_5  and  C_16
REMARK    3  A    between atoms: C_9  and  C_15
REMARK    4  A    between atoms: C_10  and  C_16
REMARK    5  A    between atoms: C_18  and  C_19
REMARK                            x       y       z     vdW  Elec       q    Type
REMARK                         _______ _______ _______ _____ _____    ______ ____
ROOT
ATOM      3  N   UNL     1      -5.836   3.079  24.436  0.00  0.00    -0.297 NA
ATOM      8  C   UNL     1      -4.016   3.835  26.139  0.00  0.00    +0.002 C 
ATOM      9  C   UNL     1      -3.454   3.870  24.690  0.00  0.00    +0.055 C 
ATOM     10  C   UNL     1      -5.738   2.095  25.546  0.00  0.00    +0.074 C 
ATOM     11  C   UNL     1      -4.530   2.414  26.453  0.00  0.00    +0.024 C 
ATOM     12  C   UNL     1      -4.520   3.218  23.764  0.00  0.00    +0.094 C 
ATOM     13  C   UNL     1      -5.240   4.775  26.165  0.00  0.00    +0.019 C 
ATOM     14  C   UNL     1      -6.198   4.391  25.023  0.00  0.00    +0.085 C 
ENDROOT
BRANCH   9  15
ATOM      4  N   UNL     1      -0.923   4.044  24.630  0.00  0.00    -0.271 N 
ATOM      6  N   UNL     1       0.208   3.368  24.362  0.00  0.00    -0.176 NA
ATOM     15  C   UNL     1      -2.059   3.312  24.448  0.00  0.00    +0.044 A 
ATOM     17  C   UNL     1      -1.643   2.071  24.032  0.00  0.00    +0.048 A 
ATOM     18  C   UNL     1      -0.238   2.164  23.997  0.00  0.00    +0.066 A 
ATOM     22  C   UNL     1      -0.837   5.420  25.064  0.00  0.00    +0.172 C 
BRANCH  18  19
ATOM     19  C   UNL     1       0.751   1.081  23.607  0.00  0.00    +0.040 C 
ATOM     20  C   UNL     1       2.172   1.643  23.426  0.00  0.00    +0.010 C 
ATOM     21  C   UNL     1       0.297   0.317  22.349  0.00  0.00    +0.010 C 
ATOM     23  C   UNL     1       3.162   0.544  23.041  0.00  0.00    +0.001 C 
ATOM     24  C   UNL     1       1.295  -0.777  21.971  0.00  0.00    +0.001 C 
ATOM     25  C   UNL     1       2.704  -0.218  21.801  0.00  0.00    +0.000 C 
ENDBRANCH  18  19
ENDBRANCH   9  15
BRANCH  10  16
ATOM     16  C   UNL     1      -5.708   0.650  25.044  0.00  0.00    +0.124 C 
BRANCH  16   5
ATOM      1  O   UNL     1      -4.689  -1.669  23.816  0.00  0.00    -0.253 OA
ATOM      2  O   UNL     1      -0.038  -2.340  25.362  0.00  0.00    -0.377 OA
ATOM      5  N   UNL     1      -4.440   0.024  25.345  0.00  0.00    -0.298 N 
ATOM      7  N   UNL     1      -2.757  -1.619  25.099  0.00  0.00    -0.281 N 
ATOM     26  C   UNL     1      -4.008  -1.124  24.691  0.00  0.00    +0.302 C 
ATOM     27  C   UNL     1      -2.228  -2.830  24.468  0.00  0.00    +0.137 C 
ATOM     28  C   UNL     1      -1.957  -1.126  26.229  0.00  0.00    +0.137 C 
ATOM     29  C   UNL     1      -0.745  -2.684  24.169  0.00  0.00    +0.179 C 
ATOM     30  C   UNL     1      -0.477  -1.078  25.864  0.00  0.00    +0.179 C 
ATOM     31  H   UNL     1      -3.884   0.469  26.060  0.00  0.00    +0.150 HD
ENDBRANCH  16   5
ENDBRANCH  10  16
TORSDOF 4
ENDMDL
MODEL 2
REMARK VINA RESULT:       3.2      1.325      1.819
REMARK  Name = 25388964
REMARK  5 active torsions:
REMARK  status: ('A' for Active; 'I' for Inactive)
REMARK    1  A    between atoms: N_4  and  C_22
REMARK    2  A    between atoms: N_5  and  C_16
REMARK    3  A    between atoms: C_9  and  C_15
REMARK    4  A    between atoms: C_10  and  C_16
REMARK    5  A    between atoms: C_18  and  C_19
REMARK                            x       y       z     vdW  Elec       q    Type
REMARK                         _______ _______ _______ _____ _____    ______ ____
ROOT
ATOM      3  N   UNL     1      -4.654   3.837  24.456  0.00  0.00    -0.297 NA
ATOM      8  C   UNL     1      -2.394   4.130  25.717  0.00  0.00    +0.002 C 
ATOM      9  C   UNL     1      -2.142   3.752  24.230  0.00  0.00    +0.055 C 
ATOM     10  C   UNL     1      -4.671   3.053  25.719  0.00  0.00    +0.074 C 
ATOM     11  C   UNL     1      -3.274   3.047  26.376  0.00  0.00    +0.024 C 
ATOM     12  C   UNL     1      -3.521   3.398  23.603  0.00  0.00    +0.094 C 
ATOM     13  C   UNL     1      -3.212   5.438  25.712  0.00  0.00    +0.019 C 
ATOM     14  C   UNL     1      -4.444   5.262  24.807  0.00  0.00    +0.085 C 
ENDROOT
BRANCH   9  15
ATOM      4  N   UNL     1      -1.328   1.594  23.172  0.00  0.00    -0.271 N 
ATOM      6  N   UNL     1      -0.260   0.792  23.020  0.00  0.00    -0.176 NA
ATOM     15  C   UNL     1      -1.082   2.704  23.926  0.00  0.00    +0.044 A 
ATOM     17  C   UNL     1       0.239   2.622  24.294  0.00  0.00    +0.048 A 
ATOM     18  C   UNL     1       0.694   1.426  23.708  0.00  0.00    +0.066 A 
ATOM     22  C   UNL     1      -2.581   1.225  22.553  0.00  0.00    +0.172 C 
BRANCH  18  19
ATOM     19  C   UNL     1       2.089   0.830  23.784  0.00  0.00    +0.040 C 
ATOM     20  C   UNL     1       3.106   1.652  22.974  0.00  0.00    +0.010 C 
ATOM     21  C   UNL     1       2.105  -0.647  23.351  0.00  0.00    +0.010 C 
ATOM     23  C   UNL     1       4.508   1.050  23.064  0.00  0.00    +0.001 C 
ATOM     24  C   UNL     1       3.510  -1.239  23.441  0.00  0.00    +0.001 C 
ATOM     25  C   UNL     1       4.519  -0.416  22.644  0.00  0.00    +0.000 C 
ENDBRANCH  18  19
ENDBRANCH   9  15
BRANCH  10  16
ATOM     16  C   UNL     1      -5.214   1.637  25.520  0.00  0.00    +0.124 C 
BRANCH  16   5
ATOM      1  O   UNL     1      -5.073  -0.793  24.108  0.00  0.00    -0.253 OA
ATOM      2  O   UNL     1      -0.667  -2.861  24.995  0.00  0.00    -0.377 OA
ATOM      5  N   UNL     1      -4.157   0.657  25.632  0.00  0.00    -0.298 N 
ATOM      7  N   UNL     1      -3.069  -1.378  25.119  0.00  0.00    -0.281 N 
ATOM     26  C   UNL     1      -4.162  -0.522  24.897  0.00  0.00    +0.302 C 
ATOM     27  C   UNL     1      -2.997  -2.647  24.392  0.00  0.00    +0.137 C 
ATOM     28  C   UNL     1      -2.028  -1.207  26.143  0.00  0.00    +0.137 C 
ATOM     29  C   UNL     1      -1.583  -2.913  23.900  0.00  0.00    +0.179 C 
ATOM     30  C   UNL     1      -0.654  -1.561  25.584  0.00  0.00    +0.179 C 
ATOM     31  H   UNL     1      -3.413   0.879  26.276  0.00  0.00    +0.150 HD
ENDBRANCH  16   5
ENDBRANCH  10  16
TORSDOF 4
ENDMDL
MODEL 3
REMARK VINA RESULT:       5.0      2.635      3.603
REMARK  Name = 25388964
REMARK  5 active torsions:
REMARK  status: ('A' for Active; 'I' for Inactive)
REMARK    1  A    between atoms: N_4  and  C_22
REMARK    2  A    between atoms: N_5  and  C_16
REMARK    3  A    between atoms: C_9  and  C_15
REMARK    4  A    between atoms: C_10  and  C_16
REMARK    5  A    between atoms: C_18  and  C_19
REMARK                            x       y       z     vdW  Elec       q    Type
REMARK                         _______ _______ _______ _____ _____    ______ ____
ROOT
ATOM      3  N   UNL     1      -4.421   2.231  23.318  0.00  0.00    -0.297 NA
ATOM      8  C   UNL     1      -3.247   4.340  24.298  0.00  0.00    +0.002 C 
ATOM      9  C   UNL     1      -2.201   3.240  23.964  0.00  0.00    +0.055 C 
ATOM     10  C   UNL     1      -5.096   2.650  24.574  0.00  0.00    +0.074 C 
ATOM     11  C   UNL     1      -4.294   3.767  25.277  0.00  0.00    +0.024 C 
ATOM     12  C   UNL     1      -2.986   1.953  23.581  0.00  0.00    +0.094 C 
ATOM     13  C   UNL     1      -3.987   4.664  22.983  0.00  0.00    +0.019 C 
ATOM     14  C   UNL     1      -4.506   3.357  22.358  0.00  0.00    +0.085 C 
ENDROOT
BRANCH   9  15
ATOM      4  N   UNL     1      -0.044   2.141  24.726  0.00  0.00    -0.271 N 
ATOM      6  N   UNL     1       0.817   2.030  25.753  0.00  0.00    -0.176 NA
ATOM     15  C   UNL     1      -1.101   2.964  24.980  0.00  0.00    +0.044 A 
ATOM     17  C   UNL     1      -0.920   3.423  26.262  0.00  0.00    +0.048 A 
ATOM     18  C   UNL     1       0.277   2.815  26.688  0.00  0.00    +0.066 A 
ATOM     22  C   UNL     1       0.216   1.412  23.506  0.00  0.00    +0.172 C 
BRANCH  18  19
ATOM     19  C   UNL     1       0.963   2.967  28.033  0.00  0.00    +0.040 C 
ATOM     20  C   UNL     1       2.468   2.658  27.945  0.00  0.00    +0.010 C 
ATOM     21  C   UNL     1       0.288   2.110  29.120  0.00  0.00    +0.010 C 
ATOM     23  C   UNL     1       3.151   2.822  29.302  0.00  0.00    +0.001 C 
ATOM     24  C   UNL     1       0.980   2.277  30.471  0.00  0.00    +0.001 C 
ATOM     25  C   UNL     1       2.474   1.979  30.379  0.00  0.00    +0.000 C 
ENDBRANCH  18  19
ENDBRANCH   9  15
BRANCH  10  16
ATOM     16  C   UNL     1      -5.373   1.471  25.509  0.00  0.00    +0.124 C 
BRANCH  16   5
ATOM      1  O   UNL     1      -5.059  -1.040  24.278  0.00  0.00    -0.253 OA
ATOM      2  O   UNL     1      -0.412  -2.570  25.012  0.00  0.00    -0.377 OA
ATOM      5  N   UNL     1      -4.212   0.616  25.621  0.00  0.00    -0.298 N 
ATOM      7  N   UNL     1      -2.947  -1.334  25.189  0.00  0.00    -0.281 N 
ATOM     26  C   UNL     1      -4.136  -0.614  24.979  0.00  0.00    +0.302 C 
ATOM     27  C   UNL     1      -2.784  -2.644  24.557  0.00  0.00    +0.137 C 
ATOM     28  C   UNL     1      -1.870  -0.974  26.123  0.00  0.00    +0.137 C 
ATOM     29  C   UNL     1      -1.382  -2.804  23.990  0.00  0.00    +0.179 C 
ATOM     30  C   UNL     1      -0.503  -1.231  25.498  0.00  0.00    +0.179 C 
ATOM     31  H   UNL     1      -3.458   0.964  26.194  0.00  0.00    +0.150 HD
ENDBRANCH  16   5
ENDBRANCH  10  16
TORSDOF 4
ENDMDL
MODEL 4
REMARK VINA RESULT:       5.3      1.901      5.202
REMARK  Name = 25388964
REMARK  5 active torsions:
REMARK  status: ('A' for Active; 'I' for Inactive)
REMARK    1  A    between atoms: N_4  and  C_22
REMARK    2  A    between atoms: N_5  and  C_16
REMARK    3  A    between atoms: C_9  and  C_15
REMARK    4  A    between atoms: C_10  and  C_16
REMARK    5  A    between atoms: C_18  and  C_19
REMARK                            x       y       z     vdW  Elec       q    Type
REMARK                         _______ _______ _______ _____ _____    ______ ____
ROOT
ATOM      3  N   UNL     1      -1.606   5.127  25.863  0.00  0.00    -0.297 NA
ATOM      8  C   UNL     1      -2.768   4.267  23.696  0.00  0.00    +0.002 C 
ATOM      9  C   UNL     1      -3.592   3.865  24.952  0.00  0.00    +0.055 C 
ATOM     10  C   UNL     1      -0.624   4.404  25.012  0.00  0.00    +0.074 C 
ATOM     11  C   UNL     1      -1.334   3.712  23.829  0.00  0.00    +0.024 C 
ATOM     12  C   UNL     1      -2.740   4.230  26.201  0.00  0.00    +0.094 C 
ATOM     13  C   UNL     1      -2.661   5.806  23.708  0.00  0.00    +0.019 C 
ATOM     14  C   UNL     1      -2.135   6.268  25.079  0.00  0.00    +0.085 C 
ENDROOT
BRANCH   9  15
ATOM      4  N   UNL     1      -5.424   2.169  25.409  0.00  0.00    -0.271 N 
ATOM      6  N   UNL     1      -5.717   0.857  25.406  0.00  0.00    -0.176 NA
ATOM     15  C   UNL     1      -4.146   2.449  25.024  0.00  0.00    +0.044 A 
ATOM     17  C   UNL     1      -3.561   1.236  24.753  0.00  0.00    +0.048 A 
ATOM     18  C   UNL     1      -4.575   0.292  25.005  0.00  0.00    +0.066 A 
ATOM     22  C   UNL     1      -6.440   3.118  25.801  0.00  0.00    +0.172 C 
BRANCH  18  19
ATOM     19  C   UNL     1      -4.489  -1.217  24.867  0.00  0.00    +0.040 C 
ATOM     20  C   UNL     1      -3.311  -1.797  25.670  0.00  0.00    +0.010 C 
ATOM     21  C   UNL     1      -4.420  -1.655  23.393  0.00  0.00    +0.010 C 
ATOM     23  C   UNL     1      -3.238  -3.317  25.532  0.00  0.00    +0.001 C 
ATOM     24  C   UNL     1      -4.344  -3.175  23.266  0.00  0.00    +0.001 C 
ATOM     25  C   UNL     1      -3.180  -3.749  24.070  0.00  0.00    +0.000 C 
ENDBRANCH  18  19
ENDBRANCH   9  15
BRANCH  10  16
ATOM     16  C   UNL     1       0.234   3.424  25.815  0.00  0.00    +0.124 C 
BRANCH  16   5
ATOM      1  O   UNL     1      -0.688   1.089  24.544  0.00  0.00    -0.253 OA
ATOM      2  O   UNL     1       2.797  -0.453  21.389  0.00  0.00    -0.377 OA
ATOM      5  N   UNL     1       1.012   2.579  24.937  0.00  0.00    -0.298 N 
ATOM      7  N   UNL     1       1.362   0.716  23.524  0.00  0.00    -0.281 N 
ATOM     26  C   UNL     1       0.481   1.439  24.347  0.00  0.00    +0.302 C 
ATOM     27  C   UNL     1       0.887  -0.504  22.868  0.00  0.00    +0.137 C 
ATOM     28  C   UNL     1       2.800   0.973  23.358  0.00  0.00    +0.137 C 
ATOM     29  C   UNL     1       1.375  -0.573  21.429  0.00  0.00    +0.179 C 
ATOM     30  C   UNL     1       3.213   0.814  21.898  0.00  0.00    +0.179 C 
ATOM     31  H   UNL     1       1.967   2.864  24.776  0.00  0.00    +0.150 HD
ENDBRANCH  16   5
ENDBRANCH  10  16
TORSDOF 4
ENDMDL
MODEL 5
REMARK VINA RESULT:       5.4      2.929      4.706
REMARK  Name = 25388964
REMARK  5 active torsions:
REMARK  status: ('A' for Active; 'I' for Inactive)
REMARK    1  A    between atoms: N_4  and  C_22
REMARK    2  A    between atoms: N_5  and  C_16
REMARK    3  A    between atoms: C_9  and  C_15
REMARK    4  A    between atoms: C_10  and  C_16
REMARK    5  A    between atoms: C_18  and  C_19
REMARK                            x       y       z     vdW  Elec       q    Type
REMARK                         _______ _______ _______ _____ _____    ______ ____
ROOT
ATOM      3  N   UNL     1      -3.672   2.554  25.759  0.00  0.00    -0.297 NA
ATOM      8  C   UNL     1      -3.532   1.352  23.453  0.00  0.00    +0.002 C 
ATOM      9  C   UNL     1      -2.748   0.553  24.531  0.00  0.00    +0.055 C 
ATOM     10  C   UNL     1      -3.264   3.520  24.706  0.00  0.00    +0.074 C 
ATOM     11  C   UNL     1      -2.976   2.789  23.378  0.00  0.00    +0.024 C 
ATOM     12  C   UNL     1      -2.706   1.428  25.817  0.00  0.00    +0.094 C 
ATOM     13  C   UNL     1      -4.990   1.456  23.949  0.00  0.00    +0.019 C 
ATOM     14  C   UNL     1      -4.999   2.007  25.385  0.00  0.00    +0.085 C 
ENDROOT
BRANCH   9  15
ATOM      4  N   UNL     1      -1.059  -1.320  24.249  0.00  0.00    -0.271 N 
ATOM      6  N   UNL     1       0.202  -1.601  23.876  0.00  0.00    -0.176 NA
ATOM     15  C   UNL     1      -1.378   0.003  24.162  0.00  0.00    +0.044 A 
ATOM     17  C   UNL     1      -0.247   0.632  23.702  0.00  0.00    +0.048 A 
ATOM     18  C   UNL     1       0.693  -0.404  23.544  0.00  0.00    +0.066 A 
ATOM     22  C   UNL     1      -1.921  -2.394  24.687  0.00  0.00    +0.172 C 
BRANCH  18  19
ATOM     19  C   UNL     1       2.126  -0.287  23.058  0.00  0.00    +0.040 C 
ATOM     20  C   UNL     1       3.077  -1.194  23.858  0.00  0.00    +0.010 C 
ATOM     21  C   UNL     1       2.618   1.172  23.069  0.00  0.00    +0.010 C 
ATOM     23  C   UNL     1       4.515  -1.076  23.355  0.00  0.00    +0.001 C 
ATOM     24  C   UNL     1       4.057   1.279  22.569  0.00  0.00    +0.001 C 
ATOM     25  C   UNL     1       4.996   0.372  23.358  0.00  0.00    +0.000 C 
ENDBRANCH  18  19
ENDBRANCH   9  15
BRANCH  10  16
ATOM     16  C   UNL     1      -2.087   4.396  25.143  0.00  0.00    +0.124 C 
BRANCH  16   5
ATOM      1  O   UNL     1       0.595   3.544  25.143  0.00  0.00    -0.253 OA
ATOM      2  O   UNL     1       1.836   2.292  29.766  0.00  0.00    -0.377 OA
ATOM      5  N   UNL     1      -1.390   3.804  26.263  0.00  0.00    -0.298 N 
ATOM      7  N   UNL     1       0.476   2.843  27.351  0.00  0.00    -0.281 N 
ATOM     26  C   UNL     1      -0.060   3.409  26.181  0.00  0.00    +0.302 C 
ATOM     27  C   UNL     1       1.869   2.392  27.352  0.00  0.00    +0.137 C 
ATOM     28  C   UNL     1      -0.270   2.508  28.572  0.00  0.00    +0.137 C 
ATOM     29  C   UNL     1       2.568   2.786  28.643  0.00  0.00    +0.179 C 
ATOM     30  C   UNL     1       0.533   2.873  29.816  0.00  0.00    +0.179 C 
ATOM     31  H   UNL     1      -1.926   3.693  27.111  0.00  0.00    +0.150 HD
ENDBRANCH  16   5
ENDBRANCH  10  16
TORSDOF 4
ENDMDL
MODEL 6
REMARK VINA RESULT:       6.3      2.371      5.037
REMARK  Name = 25388964
REMARK  5 active torsions:
REMARK  status: ('A' for Active; 'I' for Inactive)
REMARK    1  A    between atoms: N_4  and  C_22
REMARK    2  A    between atoms: N_5  and  C_16
REMARK    3  A    between atoms: C_9  and  C_15
REMARK    4  A    between atoms: C_10  and  C_16
REMARK    5  A    between atoms: C_18  and  C_19
REMARK                            x       y       z     vdW  Elec       q    Type
REMARK                         _______ _______ _______ _____ _____    ______ ____
ROOT
ATOM      3  N   UNL     1      -3.814  -0.661  25.577  0.00  0.00    -0.297 NA
ATOM      8  C   UNL     1      -2.169  -2.546  24.852  0.00  0.00    +0.002 C 
ATOM      9  C   UNL     1      -1.384  -1.290  25.325  0.00  0.00    +0.055 C 
ATOM     10  C   UNL     1      -4.196  -1.182  24.239  0.00  0.00    +0.074 C 
ATOM     11  C   UNL     1      -3.120  -2.150  23.703  0.00  0.00    +0.024 C 
ATOM     12  C   UNL     1      -2.420  -0.151  25.545  0.00  0.00    +0.094 C 
ATOM     13  C   UNL     1      -3.053  -2.991  26.037  0.00  0.00    +0.019 C 
ATOM     14  C   UNL     1      -3.872  -1.789  26.538  0.00  0.00    +0.085 C 
ENDROOT
BRANCH   9  15
ATOM      4  N   UNL     1      -0.264   0.175  23.582  0.00  0.00    -0.271 N 
ATOM      6  N   UNL     1       0.899   0.424  22.954  0.00  0.00    -0.176 NA
ATOM     15  C   UNL     1      -0.192  -0.835  24.496  0.00  0.00    +0.044 A 
ATOM     17  C   UNL     1       1.107  -1.279  24.463  0.00  0.00    +0.048 A 
ATOM     18  C   UNL     1       1.733  -0.467  23.497  0.00  0.00    +0.066 A 
ATOM     22  C   UNL     1      -1.429   0.962  23.247  0.00  0.00    +0.172 C 
BRANCH  18  19
ATOM     19  C   UNL     1       3.182  -0.514  23.047  0.00  0.00    +0.040 C 
ATOM     20  C   UNL     1       4.031  -1.424  23.951  0.00  0.00    +0.010 C 
ATOM     21  C   UNL     1       3.796   0.894  22.948  0.00  0.00    +0.010 C 
ATOM     23  C   UNL     1       5.486  -1.471  23.485  0.00  0.00    +0.001 C 
ATOM     24  C   UNL     1       5.251   0.836  22.485  0.00  0.00    +0.001 C 
ATOM     25  C   UNL     1       6.090  -0.074  23.378  0.00  0.00    +0.000 C 
ENDBRANCH  18  19
ENDBRANCH   9  15
BRANCH  10  16
ATOM     16  C   UNL     1      -4.504  -0.062  23.243  0.00  0.00    +0.124 C 
BRANCH  16   5
ATOM      1  O   UNL     1      -5.752   1.861  24.876  0.00  0.00    -0.253 OA
ATOM      2  O   UNL     1      -2.415   5.321  26.044  0.00  0.00    -0.377 OA
ATOM      5  N   UNL     1      -3.918   1.188  23.673  0.00  0.00    -0.298 N 
ATOM      7  N   UNL     1      -3.904   3.261  24.810  0.00  0.00    -0.281 N 
ATOM     26  C   UNL     1      -4.603   2.086  24.482  0.00  0.00    +0.302 C 
ATOM     27  C   UNL     1      -4.553   4.266  25.653  0.00  0.00    +0.137 C 
ATOM     28  C   UNL     1      -2.603   3.676  24.265  0.00  0.00    +0.137 C 
ATOM     29  C   UNL     1      -3.586   4.816  26.689  0.00  0.00    +0.179 C 
ATOM     30  C   UNL     1      -1.725   4.278  25.357  0.00  0.00    +0.179 C 
ATOM     31  H   UNL     1      -2.979   1.372  23.351  0.00  0.00    +0.150 HD
ENDBRANCH  16   5
ENDBRANCH  10  16
TORSDOF 4
ENDMDL
