MODEL 1
REMARK VINA RESULT:      18.6      0.000      0.000
REMARK  Name = 45783528
REMARK  5 active torsions:
REMARK  status: ('A' for Active; 'I' for Inactive)
REMARK    1  A    between atoms: N_4  and  C_11
REMARK    2  A    between atoms: C_12  and  C_20
REMARK    3  A    between atoms: C_21  and  C_28
REMARK    4  A    between atoms: C_22  and  C_31
REMARK    5  A    between atoms: C_27  and  C_30
REMARK                            x       y       z     vdW  Elec       q    Type
REMARK                         _______ _______ _______ _____ _____    ______ ____
ROOT
ATOM      1  O   UNL     1      -2.548   3.528  23.775  0.00  0.00    -0.336 OA
ATOM      6  N   UNL     1      -2.009   1.360  23.943  0.00  0.00    -0.190 NA
ATOM      8  N   UNL     1      -1.161   3.455  23.590  0.00  0.00    -0.056 NA
ATOM     20  C   UNL     1      -2.967   2.251  23.977  0.00  0.00    +0.245 A 
ATOM     27  C   UNL     1      -0.920   2.146  23.703  0.00  0.00    +0.204 A 
ENDROOT
BRANCH  27  30
ATOM      7  N   UNL     1       4.217   0.046  23.310  0.00  0.00    -0.315 N 
ATOM      9  N   UNL     1       2.675   1.485  24.387  0.00  0.00    -0.240 NA
ATOM     22  C   UNL     1       6.900  -1.054  23.158  0.00  0.00    +0.078 C 
ATOM     23  C   UNL     1       6.041  -1.182  24.415  0.00  0.00    +0.031 C 
ATOM     24  C   UNL     1       6.034  -0.861  21.914  0.00  0.00    +0.031 C 
ATOM     25  C   UNL     1       5.005  -0.067  24.543  0.00  0.00    +0.107 C 
ATOM     26  C   UNL     1       4.976   0.234  22.070  0.00  0.00    +0.107 C 
ATOM     29  C   UNL     1       2.926   0.580  23.414  0.00  0.00    +0.121 A 
ATOM     30  C   UNL     1       0.398   1.592  23.582  0.00  0.00    +0.041 A 
ATOM     32  C   UNL     1       1.981   0.138  22.503  0.00  0.00    +0.044 A 
ATOM     33  C   UNL     1       0.695   0.658  22.596  0.00  0.00    +0.016 A 
ATOM     34  C   UNL     1       1.414   1.968  24.446  0.00  0.00    +0.124 A 
BRANCH  22  31
ATOM      3  O   UNL     1       7.604   1.129  23.836  0.00  0.00    -0.276 OA
ATOM     10  N   UNL     1       9.137  -0.236  22.795  0.00  0.00    -0.329 N 
ATOM     31  C   UNL     1       7.896   0.058  23.311  0.00  0.00    +0.214 C 
ATOM     35  H   UNL     1       9.891   0.442  22.844  0.00  0.00    +0.145 HD
ATOM     36  H   UNL     1       9.343  -1.102  22.308  0.00  0.00    +0.145 HD
ENDBRANCH  22  31
ENDBRANCH  27  30
BRANCH  20  12
ATOM      4  N   UNL     1      -4.750   1.428  25.507  0.00  0.00    -0.288 NA
ATOM     12  C   UNL     1      -4.452   2.057  24.205  0.00  0.00    +0.146 C 
ATOM     13  C   UNL     1      -6.067   1.917  25.911  0.00  0.00    +0.085 C 
ATOM     14  C   UNL     1      -5.229   3.386  24.225  0.00  0.00    +0.030 C 
ATOM     17  C   UNL     1      -5.980   3.387  25.550  0.00  0.00    +0.017 C 
BRANCH   4  11
ATOM      2  O   UNL     1      -1.317  -3.664  25.191  0.00  0.00    -0.276 OA
ATOM      5  N   UNL     1      -3.282  -2.477  24.830  0.00  0.00    -0.302 N 
ATOM     11  C   UNL     1      -4.694  -0.032  25.467  0.00  0.00    +0.060 C 
ATOM     15  C   UNL     1      -4.534  -0.513  24.019  0.00  0.00    +0.038 C 
ATOM     16  C   UNL     1      -3.533  -0.538  26.332  0.00  0.00    +0.038 C 
ATOM     18  C   UNL     1      -4.378  -2.033  23.961  0.00  0.00    +0.109 C 
ATOM     19  C   UNL     1      -3.398  -2.057  26.228  0.00  0.00    +0.109 C 
ATOM     21  C   UNL     1      -2.208  -3.273  24.433  0.00  0.00    +0.212 C 
ATOM     28  C   UNL     1      -2.159  -3.662  22.977  0.00  0.00    +0.109 C 
ENDBRANCH   4  11
ENDBRANCH  20  12
TORSDOF 4
ENDMDL
MODEL 2
REMARK VINA RESULT:      18.6      2.155      4.550
REMARK  Name = 45783528
REMARK  5 active torsions:
REMARK  status: ('A' for Active; 'I' for Inactive)
REMARK    1  A    between atoms: N_4  and  C_11
REMARK    2  A    between atoms: C_12  and  C_20
REMARK    3  A    between atoms: C_21  and  C_28
REMARK    4  A    between atoms: C_22  and  C_31
REMARK    5  A    between atoms: C_27  and  C_30
REMARK                            x       y       z     vdW  Elec       q    Type
REMARK                         _______ _______ _______ _____ _____    ______ ____
ROOT
ATOM      1  O   UNL     1      -0.633  -0.513  22.513  0.00  0.00    -0.336 OA
ATOM      6  N   UNL     1       0.635  -0.693  24.350  0.00  0.00    -0.190 NA
ATOM      8  N   UNL     1       0.686  -0.287  22.100  0.00  0.00    -0.056 NA
ATOM     20  C   UNL     1      -0.574  -0.743  23.850  0.00  0.00    +0.245 A 
ATOM     27  C   UNL     1       1.373  -0.411  23.239  0.00  0.00    +0.204 A 
ENDROOT
BRANCH  27  30
ATOM      7  N   UNL     1       6.890   0.278  23.456  0.00  0.00    -0.315 N 
ATOM      9  N   UNL     1       4.733   1.177  23.075  0.00  0.00    -0.240 NA
ATOM     22  C   UNL     1       9.761   0.685  23.593  0.00  0.00    +0.078 C 
ATOM     23  C   UNL     1       8.787   1.486  24.456  0.00  0.00    +0.031 C 
ATOM     24  C   UNL     1       9.154  -0.650  23.167  0.00  0.00    +0.031 C 
ATOM     25  C   UNL     1       7.398   1.603  23.830  0.00  0.00    +0.107 C 
ATOM     26  C   UNL     1       7.748  -0.521  22.577  0.00  0.00    +0.107 C 
ATOM     29  C   UNL     1       5.500   0.112  23.399  0.00  0.00    +0.121 A 
ATOM     30  C   UNL     1       2.798  -0.256  23.300  0.00  0.00    +0.041 A 
ATOM     32  C   UNL     1       5.000  -1.148  23.681  0.00  0.00    +0.044 A 
ATOM     33  C   UNL     1       3.622  -1.327  23.630  0.00  0.00    +0.016 A 
ATOM     34  C   UNL     1       3.398   0.964  23.035  0.00  0.00    +0.124 A 
BRANCH  22  31
ATOM      3  O   UNL     1      10.673   0.968  21.401  0.00  0.00    -0.276 OA
ATOM     10  N   UNL     1      10.042   2.848  22.569  0.00  0.00    -0.329 N 
ATOM     31  C   UNL     1      10.201   1.491  22.407  0.00  0.00    +0.214 C 
ATOM     35  H   UNL     1      10.304   3.491  21.829  0.00  0.00    +0.145 HD
ATOM     36  H   UNL     1       9.708   3.266  23.431  0.00  0.00    +0.145 HD
ENDBRANCH  22  31
ENDBRANCH  27  30
BRANCH  20  12
ATOM      4  N   UNL     1      -3.058  -0.732  23.690  0.00  0.00    -0.288 NA
ATOM     12  C   UNL     1      -1.891  -1.020  24.546  0.00  0.00    +0.146 C 
ATOM     13  C   UNL     1      -4.123  -1.637  24.122  0.00  0.00    +0.085 C 
ATOM     14  C   UNL     1      -2.053  -2.499  24.944  0.00  0.00    +0.030 C 
ATOM     17  C   UNL     1      -3.368  -2.938  24.315  0.00  0.00    +0.017 C 
BRANCH   4  11
ATOM      2  O   UNL     1      -1.775   5.048  25.351  0.00  0.00    -0.276 OA
ATOM      5  N   UNL     1      -3.254   3.319  24.880  0.00  0.00    -0.302 N 
ATOM     11  C   UNL     1      -3.475   0.669  23.737  0.00  0.00    +0.060 C 
ATOM     15  C   UNL     1      -4.055   0.998  25.119  0.00  0.00    +0.038 C 
ATOM     16  C   UNL     1      -2.283   1.582  23.424  0.00  0.00    +0.038 C 
ATOM     18  C   UNL     1      -4.409   2.482  25.224  0.00  0.00    +0.109 C 
ATOM     19  C   UNL     1      -2.674   3.053  23.562  0.00  0.00    +0.109 C 
ATOM     21  C   UNL     1      -2.726   4.333  25.678  0.00  0.00    +0.212 C 
ATOM     28  C   UNL     1      -3.376   4.543  27.022  0.00  0.00    +0.109 C 
ENDBRANCH   4  11
ENDBRANCH  20  12
TORSDOF 4
ENDMDL
MODEL 3
REMARK VINA RESULT:      19.4      2.113      4.529
REMARK  Name = 45783528
REMARK  5 active torsions:
REMARK  status: ('A' for Active; 'I' for Inactive)
REMARK    1  A    between atoms: N_4  and  C_11
REMARK    2  A    between atoms: C_12  and  C_20
REMARK    3  A    between atoms: C_21  and  C_28
REMARK    4  A    between atoms: C_22  and  C_31
REMARK    5  A    between atoms: C_27  and  C_30
REMARK                            x       y       z     vdW  Elec       q    Type
REMARK                         _______ _______ _______ _____ _____    ______ ____
ROOT
ATOM      1  O   UNL     1      -0.803  -0.584  22.486  0.00  0.00    -0.336 OA
ATOM      6  N   UNL     1       0.493  -0.661  24.311  0.00  0.00    -0.190 NA
ATOM      8  N   UNL     1       0.504  -0.335  22.047  0.00  0.00    -0.056 NA
ATOM     20  C   UNL     1      -0.720  -0.764  23.829  0.00  0.00    +0.245 A 
ATOM     27  C   UNL     1       1.209  -0.397  23.180  0.00  0.00    +0.204 A 
ENDROOT
BRANCH  27  30
ATOM      7  N   UNL     1       6.727   0.289  23.359  0.00  0.00    -0.315 N 
ATOM      9  N   UNL     1       4.819  -1.042  23.799  0.00  0.00    -0.240 NA
ATOM     22  C   UNL     1       9.613   0.597  23.437  0.00  0.00    +0.078 C 
ATOM     23  C   UNL     1       8.941  -0.558  22.696  0.00  0.00    +0.031 C 
ATOM     24  C   UNL     1       8.670   1.790  23.574  0.00  0.00    +0.031 C 
ATOM     25  C   UNL     1       7.567  -0.910  23.266  0.00  0.00    +0.107 C 
ATOM     26  C   UNL     1       7.286   1.416  24.111  0.00  0.00    +0.107 C 
ATOM     29  C   UNL     1       5.339   0.110  23.318  0.00  0.00    +0.121 A 
ATOM     30  C   UNL     1       2.629  -0.198  23.217  0.00  0.00    +0.041 A 
ATOM     32  C   UNL     1       4.582   1.137  22.779  0.00  0.00    +0.044 A 
ATOM     33  C   UNL     1       3.202   0.972  22.731  0.00  0.00    +0.016 A 
ATOM     34  C   UNL     1       3.474  -1.166  23.735  0.00  0.00    +0.124 A 
BRANCH  22  31
ATOM      3  O   UNL     1       9.957  -1.007  25.177  0.00  0.00    -0.276 OA
ATOM     10  N   UNL     1      10.755   1.128  25.491  0.00  0.00    -0.329 N 
ATOM     31  C   UNL     1      10.120   0.141  24.773  0.00  0.00    +0.214 C 
ATOM     35  H   UNL     1      11.141   0.933  26.409  0.00  0.00    +0.145 HD
ATOM     36  H   UNL     1      10.826   2.088  25.168  0.00  0.00    +0.145 HD
ENDBRANCH  22  31
ENDBRANCH  27  30
BRANCH  20  12
ATOM      4  N   UNL     1      -3.207  -0.778  23.722  0.00  0.00    -0.288 NA
ATOM     12  C   UNL     1      -2.019  -1.055  24.553  0.00  0.00    +0.146 C 
ATOM     13  C   UNL     1      -4.253  -1.694  24.176  0.00  0.00    +0.085 C 
ATOM     14  C   UNL     1      -2.158  -2.536  24.952  0.00  0.00    +0.030 C 
ATOM     17  C   UNL     1      -3.482  -2.987  24.351  0.00  0.00    +0.017 C 
BRANCH   4  11
ATOM      2  O   UNL     1      -1.863   5.046  25.166  0.00  0.00    -0.276 OA
ATOM      5  N   UNL     1      -3.354   3.292  24.852  0.00  0.00    -0.302 N 
ATOM     11  C   UNL     1      -3.636   0.618  23.779  0.00  0.00    +0.060 C 
ATOM     15  C   UNL     1      -4.102   0.967  25.199  0.00  0.00    +0.038 C 
ATOM     16  C   UNL     1      -2.487   1.540  23.350  0.00  0.00    +0.038 C 
ATOM     18  C   UNL     1      -4.466   2.449  25.307  0.00  0.00    +0.109 C 
ATOM     19  C   UNL     1      -2.884   3.008  23.494  0.00  0.00    +0.109 C 
ATOM     21  C   UNL     1      -2.774   4.327  25.585  0.00  0.00    +0.212 C 
ATOM     28  C   UNL     1      -3.312   4.555  26.975  0.00  0.00    +0.109 C 
ENDBRANCH   4  11
ENDBRANCH  20  12
TORSDOF 4
ENDMDL
MODEL 4
REMARK VINA RESULT:      21.3      2.045      4.219
REMARK  Name = 45783528
REMARK  5 active torsions:
REMARK  status: ('A' for Active; 'I' for Inactive)
REMARK    1  A    between atoms: N_4  and  C_11
REMARK    2  A    between atoms: C_12  and  C_20
REMARK    3  A    between atoms: C_21  and  C_28
REMARK    4  A    between atoms: C_22  and  C_31
REMARK    5  A    between atoms: C_27  and  C_30
REMARK                            x       y       z     vdW  Elec       q    Type
REMARK                         _______ _______ _______ _____ _____    ______ ____
ROOT
ATOM      1  O   UNL     1      -4.260  -0.950  24.352  0.00  0.00    -0.336 OA
ATOM      6  N   UNL     1      -2.789   0.717  24.626  0.00  0.00    -0.190 NA
ATOM      8  N   UNL     1      -3.019  -1.454  23.942  0.00  0.00    -0.056 NA
ATOM     20  C   UNL     1      -4.036   0.333  24.738  0.00  0.00    +0.245 A 
ATOM     27  C   UNL     1      -2.204  -0.413  24.134  0.00  0.00    +0.204 A 
ENDROOT
BRANCH  27  30
ATOM      7  N   UNL     1       3.256  -0.649  23.093  0.00  0.00    -0.315 N 
ATOM      9  N   UNL     1       1.463  -0.788  24.633  0.00  0.00    -0.240 NA
ATOM     22  C   UNL     1       6.110  -0.815  22.582  0.00  0.00    +0.078 C 
ATOM     23  C   UNL     1       5.325  -1.980  23.182  0.00  0.00    +0.031 C 
ATOM     24  C   UNL     1       5.198   0.112  21.780  0.00  0.00    +0.031 C 
ATOM     25  C   UNL     1       4.075  -1.529  23.936  0.00  0.00    +0.107 C 
ATOM     26  C   UNL     1       3.932   0.525  22.534  0.00  0.00    +0.107 C 
ATOM     29  C   UNL     1       1.883  -0.591  23.363  0.00  0.00    +0.121 A 
ATOM     30  C   UNL     1      -0.800  -0.469  23.843  0.00  0.00    +0.041 A 
ATOM     32  C   UNL     1       1.038  -0.331  22.297  0.00  0.00    +0.044 A 
ATOM     33  C   UNL     1      -0.328  -0.272  22.550  0.00  0.00    +0.016 A 
ATOM     34  C   UNL     1       0.128  -0.723  24.839  0.00  0.00    +0.124 A 
BRANCH  22  31
ATOM      3  O   UNL     1       6.262   0.483  24.585  0.00  0.00    -0.276 OA
ATOM     10  N   UNL     1       8.210  -0.046  23.480  0.00  0.00    -0.329 N 
ATOM     31  C   UNL     1       6.845  -0.067  23.655  0.00  0.00    +0.214 C 
ATOM     35  H   UNL     1       8.809   0.430  24.146  0.00  0.00    +0.145 HD
ATOM     36  H   UNL     1       8.670  -0.452  22.672  0.00  0.00    +0.145 HD
ENDBRANCH  22  31
ENDBRANCH  27  30
BRANCH  20  12
ATOM      4  N   UNL     1      -5.482   2.338  24.450  0.00  0.00    -0.288 NA
ATOM     12  C   UNL     1      -5.239   1.110  25.232  0.00  0.00    +0.146 C 
ATOM     13  C   UNL     1      -6.923   2.586  24.507  0.00  0.00    +0.085 C 
ATOM     14  C   UNL     1      -6.550   0.309  25.121  0.00  0.00    +0.030 C 
ATOM     17  C   UNL     1      -7.488   1.193  24.311  0.00  0.00    +0.017 C 
BRANCH   4  11
ATOM      2  O   UNL     1      -0.363   5.719  24.031  0.00  0.00    -0.276 OA
ATOM      5  N   UNL     1      -2.182   4.869  25.201  0.00  0.00    -0.302 N 
ATOM     11  C   UNL     1      -4.709   3.484  24.924  0.00  0.00    +0.060 C 
ATOM     15  C   UNL     1      -3.646   3.022  25.930  0.00  0.00    +0.038 C 
ATOM     16  C   UNL     1      -4.050   4.200  23.738  0.00  0.00    +0.038 C 
ATOM     18  C   UNL     1      -2.761   4.190  26.366  0.00  0.00    +0.109 C 
ATOM     19  C   UNL     1      -3.159   5.344  24.219  0.00  0.00    +0.109 C 
ATOM     21  C   UNL     1      -0.824   5.114  25.002  0.00  0.00    +0.212 C 
ATOM     28  C   UNL     1       0.118   4.591  26.057  0.00  0.00    +0.109 C 
ENDBRANCH   4  11
ENDBRANCH  20  12
TORSDOF 4
ENDMDL
