MODEL 1
REMARK VINA RESULT:      -4.1      0.000      0.000
REMARK  Name = 75536896
REMARK  5 active torsions:
REMARK  status: ('A' for Active; 'I' for Inactive)
REMARK    1  A    between atoms: O_2  and  C_8
REMARK    2  A    between atoms: O_2  and  C_15
REMARK    3  A    between atoms: O_4  and  C_20
REMARK    4  A    between atoms: O_4  and  C_24
REMARK    5  A    between atoms: C_13  and  C_14
REMARK                            x       y       z     vdW  Elec       q    Type
REMARK                         _______ _______ _______ _____ _____    ______ ____
ROOT
ATOM      1  O   UNL     1       1.514  -0.595  22.950  0.00  0.00    -0.375 OA
ATOM      3  O   UNL     1      -0.044   3.928  23.592  0.00  0.00    -0.270 OA
ATOM      5  N   UNL     1       0.103   1.757  24.464  0.00  0.00    -0.292 N 
ATOM      8  C   UNL     1       0.041  -0.759  24.888  0.00  0.00    +0.218 C 
ATOM      9  C   UNL     1      -0.555   0.630  25.134  0.00  0.00    +0.155 C 
ATOM     10  C   UNL     1       1.494   1.598  24.038  0.00  0.00    +0.136 C 
ATOM     11  C   UNL     1       0.252  -1.069  23.408  0.00  0.00    +0.206 C 
ATOM     12  C   UNL     1       1.582   0.810  22.737  0.00  0.00    +0.179 C 
ATOM     13  C   UNL     1      -0.546   2.970  24.178  0.00  0.00    +0.247 C 
ENDROOT
BRANCH  13  14
ATOM     14  C   UNL     1      -1.944   3.132  24.607  0.00  0.00    +0.037 A 
ATOM     16  C   UNL     1      -2.232   3.708  25.845  0.00  0.00    +0.016 A 
ATOM     17  C   UNL     1      -2.982   2.707  23.778  0.00  0.00    +0.016 A 
ATOM     18  C   UNL     1      -3.557   3.859  26.252  0.00  0.00    +0.046 A 
ATOM     19  C   UNL     1      -4.308   2.859  24.185  0.00  0.00    +0.046 A 
ATOM     20  C   UNL     1      -4.595   3.435  25.422  0.00  0.00    +0.120 A 
BRANCH  20   4
ATOM      4  O   UNL     1      -5.888   3.583  25.821  0.00  0.00    -0.495 OA
ATOM     24  C   UNL     1      -6.563   2.414  26.283  0.00  0.00    +0.277 C 
ENDBRANCH  20   4
ENDBRANCH  13  14
BRANCH   8   2
ATOM      2  O   UNL     1      -0.878  -1.704  25.437  0.00  0.00    -0.468 OA
BRANCH   2  15
ATOM      6  N   UNL     1      -2.634  -2.600  24.204  0.00  0.00    -0.219 NA
ATOM      7  N   UNL     1      -4.242  -0.437  24.979  0.00  0.00    -0.256 NA
ATOM     15  C   UNL     1      -2.173  -1.618  25.005  0.00  0.00    +0.234 A 
ATOM     21  C   UNL     1      -2.963  -0.556  25.386  0.00  0.00    +0.177 A 
ATOM     22  C   UNL     1      -3.914  -2.481  23.798  0.00  0.00    +0.134 A 
ATOM     23  C   UNL     1      -4.704  -1.418  24.179  0.00  0.00    +0.130 A 
ENDBRANCH   2  15
ENDBRANCH   8   2
TORSDOF 4
ENDMDL
MODEL 2
REMARK VINA RESULT:      -4.1      1.881      4.644
REMARK  Name = 75536896
REMARK  5 active torsions:
REMARK  status: ('A' for Active; 'I' for Inactive)
REMARK    1  A    between atoms: O_2  and  C_8
REMARK    2  A    between atoms: O_2  and  C_15
REMARK    3  A    between atoms: O_4  and  C_20
REMARK    4  A    between atoms: O_4  and  C_24
REMARK    5  A    between atoms: C_13  and  C_14
REMARK                            x       y       z     vdW  Elec       q    Type
REMARK                         _______ _______ _______ _____ _____    ______ ____
ROOT
ATOM      1  O   UNL     1      -4.042  -3.071  23.787  0.00  0.00    -0.375 OA
ATOM      3  O   UNL     1       0.192  -1.194  25.148  0.00  0.00    -0.270 OA
ATOM      5  N   UNL     1      -2.146  -1.057  25.259  0.00  0.00    -0.292 N 
ATOM      8  C   UNL     1      -4.652  -0.933  24.791  0.00  0.00    +0.218 C 
ATOM      9  C   UNL     1      -3.356  -0.229  25.203  0.00  0.00    +0.155 C 
ATOM     10  C   UNL     1      -2.300  -2.504  25.410  0.00  0.00    +0.136 C 
ATOM     11  C   UNL     1      -4.510  -1.755  23.512  0.00  0.00    +0.206 C 
ATOM     12  C   UNL     1      -2.653  -3.161  24.082  0.00  0.00    +0.179 C 
ATOM     13  C   UNL     1      -0.847  -0.535  25.137  0.00  0.00    +0.247 C 
ENDROOT
BRANCH  13  14
ATOM     14  C   UNL     1      -0.691   0.920  24.986  0.00  0.00    +0.037 A 
ATOM     16  C   UNL     1      -0.577   1.732  26.116  0.00  0.00    +0.016 A 
ATOM     17  C   UNL     1      -0.661   1.490  23.713  0.00  0.00    +0.016 A 
ATOM     18  C   UNL     1      -0.431   3.111  25.972  0.00  0.00    +0.046 A 
ATOM     19  C   UNL     1      -0.515   2.870  23.569  0.00  0.00    +0.046 A 
ATOM     20  C   UNL     1      -0.400   3.680  24.699  0.00  0.00    +0.120 A 
BRANCH  20   4
ATOM      4  O   UNL     1      -0.257   5.027  24.560  0.00  0.00    -0.495 OA
ATOM     24  C   UNL     1      -1.368   5.840  24.936  0.00  0.00    +0.277 C 
ENDBRANCH  20   4
ENDBRANCH  13  14
BRANCH   8   2
ATOM      2  O   UNL     1      -5.627   0.090  24.583  0.00  0.00    -0.468 OA
BRANCH   2  15
ATOM      6  N   UNL     1      -4.336   1.945  24.036  0.00  0.00    -0.219 NA
ATOM      7  N   UNL     1      -5.398   3.299  26.250  0.00  0.00    -0.256 NA
ATOM     15  C   UNL     1      -5.237   1.371  24.859  0.00  0.00    +0.234 A 
ATOM     21  C   UNL     1      -5.759   2.036  25.946  0.00  0.00    +0.177 A 
ATOM     22  C   UNL     1      -3.975   3.207  24.341  0.00  0.00    +0.134 A 
ATOM     23  C   UNL     1      -4.497   3.873  25.428  0.00  0.00    +0.130 A 
ENDBRANCH   2  15
ENDBRANCH   8   2
TORSDOF 4
ENDMDL
MODEL 3
REMARK VINA RESULT:      -3.4      2.131      4.809
REMARK  Name = 75536896
REMARK  5 active torsions:
REMARK  status: ('A' for Active; 'I' for Inactive)
REMARK    1  A    between atoms: O_2  and  C_8
REMARK    2  A    between atoms: O_2  and  C_15
REMARK    3  A    between atoms: O_4  and  C_20
REMARK    4  A    between atoms: O_4  and  C_24
REMARK    5  A    between atoms: C_13  and  C_14
REMARK                            x       y       z     vdW  Elec       q    Type
REMARK                         _______ _______ _______ _____ _____    ______ ____
ROOT
ATOM      1  O   UNL     1      -0.944   5.793  24.974  0.00  0.00    -0.375 OA
ATOM      3  O   UNL     1      -5.250   3.612  24.966  0.00  0.00    -0.270 OA
ATOM      5  N   UNL     1      -3.003   3.524  25.627  0.00  0.00    -0.292 N 
ATOM      8  C   UNL     1      -0.455   3.542  25.779  0.00  0.00    +0.218 C 
ATOM      9  C   UNL     1      -1.764   2.748  25.752  0.00  0.00    +0.155 C 
ATOM     10  C   UNL     1      -2.984   4.933  26.020  0.00  0.00    +0.136 C 
ATOM     11  C   UNL     1      -0.340   4.549  24.636  0.00  0.00    +0.206 C 
ATOM     12  C   UNL     1      -2.366   5.798  24.928  0.00  0.00    +0.179 C 
ATOM     13  C   UNL     1      -4.199   2.991  25.116  0.00  0.00    +0.247 C 
ENDROOT
BRANCH  13  14
ATOM     14  C   UNL     1      -4.219   1.574  24.723  0.00  0.00    +0.037 A 
ATOM     16  C   UNL     1      -4.853   0.633  25.536  0.00  0.00    +0.016 A 
ATOM     17  C   UNL     1      -3.603   1.169  23.539  0.00  0.00    +0.016 A 
ATOM     18  C   UNL     1      -4.871  -0.710  25.163  0.00  0.00    +0.046 A 
ATOM     19  C   UNL     1      -3.621  -0.175  23.166  0.00  0.00    +0.046 A 
ATOM     20  C   UNL     1      -4.255  -1.115  23.979  0.00  0.00    +0.120 A 
BRANCH  20   4
ATOM      4  O   UNL     1      -4.273  -2.427  23.616  0.00  0.00    -0.495 OA
ATOM     24  C   UNL     1      -3.384  -3.303  24.307  0.00  0.00    +0.277 C 
ENDBRANCH  20   4
ENDBRANCH  13  14
BRANCH   8   2
ATOM      2  O   UNL     1       0.606   2.592  25.671  0.00  0.00    -0.468 OA
BRANCH   2  15
ATOM      6  N   UNL     1      -0.465   0.531  25.790  0.00  0.00    -0.219 NA
ATOM      7  N   UNL     1       0.471  -0.070  23.216  0.00  0.00    -0.256 NA
ATOM     15  C   UNL     1       0.296   1.395  25.087  0.00  0.00    +0.234 A 
ATOM     21  C   UNL     1       0.755   1.100  23.822  0.00  0.00    +0.177 A 
ATOM     22  C   UNL     1      -0.749  -0.638  25.182  0.00  0.00    +0.134 A 
ATOM     23  C   UNL     1      -0.290  -0.933  23.917  0.00  0.00    +0.130 A 
ENDBRANCH   2  15
ENDBRANCH   8   2
TORSDOF 4
ENDMDL
MODEL 4
REMARK VINA RESULT:      -3.0      1.609      5.364
REMARK  Name = 75536896
REMARK  5 active torsions:
REMARK  status: ('A' for Active; 'I' for Inactive)
REMARK    1  A    between atoms: O_2  and  C_8
REMARK    2  A    between atoms: O_2  and  C_15
REMARK    3  A    between atoms: O_4  and  C_20
REMARK    4  A    between atoms: O_4  and  C_24
REMARK    5  A    between atoms: C_13  and  C_14
REMARK                            x       y       z     vdW  Elec       q    Type
REMARK                         _______ _______ _______ _____ _____    ______ ____
ROOT
ATOM      1  O   UNL     1      -6.002   2.913  26.380  0.00  0.00    -0.375 OA
ATOM      3  O   UNL     1      -1.761   4.610  24.820  0.00  0.00    -0.270 OA
ATOM      5  N   UNL     1      -3.533   3.118  24.461  0.00  0.00    -0.292 N 
ATOM      8  C   UNL     1      -5.357   1.340  24.630  0.00  0.00    +0.218 C 
ATOM      9  C   UNL     1      -3.980   1.765  24.111  0.00  0.00    +0.155 C 
ATOM     10  C   UNL     1      -4.544   4.113  24.822  0.00  0.00    +0.136 C 
ATOM     11  C   UNL     1      -5.539   1.591  26.125  0.00  0.00    +0.206 C 
ATOM     12  C   UNL     1      -5.009   3.926  26.260  0.00  0.00    +0.179 C 
ATOM     13  C   UNL     1      -2.181   3.498  24.503  0.00  0.00    +0.247 C 
ENDROOT
BRANCH  13  14
ATOM     14  C   UNL     1      -1.164   2.499  24.139  0.00  0.00    +0.037 A 
ATOM     16  C   UNL     1      -1.496   1.441  23.291  0.00  0.00    +0.016 A 
ATOM     17  C   UNL     1       0.132   2.607  24.643  0.00  0.00    +0.016 A 
ATOM     18  C   UNL     1      -0.533   0.494  22.948  0.00  0.00    +0.046 A 
ATOM     19  C   UNL     1       1.096   1.658  24.300  0.00  0.00    +0.046 A 
ATOM     20  C   UNL     1       0.763   0.602  23.452  0.00  0.00    +0.120 A 
BRANCH  20   4
ATOM      4  O   UNL     1       1.704  -0.324  23.117  0.00  0.00    -0.495 OA
ATOM     24  C   UNL     1       2.878   0.153  22.461  0.00  0.00    +0.277 C 
ENDBRANCH  20   4
ENDBRANCH  13  14
BRANCH   8   2
ATOM      2  O   UNL     1      -5.478  -0.060  24.374  0.00  0.00    -0.468 OA
BRANCH   2  15
ATOM      6  N   UNL     1      -3.506  -0.427  25.549  0.00  0.00    -0.219 NA
ATOM      7  N   UNL     1      -3.039  -2.712  23.991  0.00  0.00    -0.256 NA
ATOM     15  C   UNL     1      -4.360  -0.818  24.581  0.00  0.00    +0.234 A 
ATOM     21  C   UNL     1      -4.131  -1.941  23.816  0.00  0.00    +0.177 A 
ATOM     22  C   UNL     1      -2.415  -1.199  25.723  0.00  0.00    +0.134 A 
ATOM     23  C   UNL     1      -2.186  -2.322  24.958  0.00  0.00    +0.130 A 
ENDBRANCH   2  15
ENDBRANCH   8   2
TORSDOF 4
ENDMDL
MODEL 5
REMARK VINA RESULT:      -2.5      1.930      5.027
REMARK  Name = 75536896
REMARK  5 active torsions:
REMARK  status: ('A' for Active; 'I' for Inactive)
REMARK    1  A    between atoms: O_2  and  C_8
REMARK    2  A    between atoms: O_2  and  C_15
REMARK    3  A    between atoms: O_4  and  C_20
REMARK    4  A    between atoms: O_4  and  C_24
REMARK    5  A    between atoms: C_13  and  C_14
REMARK                            x       y       z     vdW  Elec       q    Type
REMARK                         _______ _______ _______ _____ _____    ______ ____
ROOT
ATOM      1  O   UNL     1      -1.634   5.628  25.058  0.00  0.00    -0.375 OA
ATOM      3  O   UNL     1       1.073   1.633  24.940  0.00  0.00    -0.270 OA
ATOM      5  N   UNL     1      -0.807   2.759  24.107  0.00  0.00    -0.292 N 
ATOM      8  C   UNL     1      -2.982   4.052  23.772  0.00  0.00    +0.218 C 
ATOM      9  C   UNL     1      -2.224   2.722  23.732  0.00  0.00    +0.155 C 
ATOM     10  C   UNL     1      -0.096   4.035  24.014  0.00  0.00    +0.136 C 
ATOM     11  C   UNL     1      -2.799   4.809  25.086  0.00  0.00    +0.206 C 
ATOM     12  C   UNL     1      -0.407   4.925  25.211  0.00  0.00    +0.179 C 
ATOM     13  C   UNL     1      -0.105   1.640  24.586  0.00  0.00    +0.247 C 
ENDROOT
BRANCH  13  14
ATOM     14  C   UNL     1      -0.818   0.357  24.678  0.00  0.00    +0.037 A 
ATOM     16  C   UNL     1      -0.477  -0.695  23.826  0.00  0.00    +0.016 A 
ATOM     17  C   UNL     1      -1.837   0.191  25.616  0.00  0.00    +0.016 A 
ATOM     18  C   UNL     1      -1.154  -1.910  23.913  0.00  0.00    +0.046 A 
ATOM     19  C   UNL     1      -2.515  -1.025  25.703  0.00  0.00    +0.046 A 
ATOM     20  C   UNL     1      -2.173  -2.076  24.851  0.00  0.00    +0.120 A 
BRANCH  20   4
ATOM      4  O   UNL     1      -2.834  -3.263  24.936  0.00  0.00    -0.495 OA
ATOM     24  C   UNL     1      -4.011  -3.409  24.141  0.00  0.00    +0.277 C 
ENDBRANCH  20   4
ENDBRANCH  13  14
BRANCH   8   2
ATOM      2  O   UNL     1      -4.366   3.743  23.601  0.00  0.00    -0.468 OA
BRANCH   2  15
ATOM      6  N   UNL     1      -4.886   1.603  24.346  0.00  0.00    -0.219 NA
ATOM      7  N   UNL     1      -6.096   2.719  26.616  0.00  0.00    -0.256 NA
ATOM     15  C   UNL     1      -4.932   2.935  24.547  0.00  0.00    +0.234 A 
ATOM     21  C   UNL     1      -5.526   3.484  25.663  0.00  0.00    +0.177 A 
ATOM     22  C   UNL     1      -5.455   0.839  25.300  0.00  0.00    +0.134 A 
ATOM     23  C   UNL     1      -6.049   1.387  26.415  0.00  0.00    +0.130 A 
ENDBRANCH   2  15
ENDBRANCH   8   2
TORSDOF 4
ENDMDL
MODEL 6
REMARK VINA RESULT:      -2.4      1.921      6.440
REMARK  Name = 75536896
REMARK  5 active torsions:
REMARK  status: ('A' for Active; 'I' for Inactive)
REMARK    1  A    between atoms: O_2  and  C_8
REMARK    2  A    between atoms: O_2  and  C_15
REMARK    3  A    between atoms: O_4  and  C_20
REMARK    4  A    between atoms: O_4  and  C_24
REMARK    5  A    between atoms: C_13  and  C_14
REMARK                            x       y       z     vdW  Elec       q    Type
REMARK                         _______ _______ _______ _____ _____    ______ ____
ROOT
ATOM      1  O   UNL     1      -6.365   3.353  25.140  0.00  0.00    -0.375 OA
ATOM      3  O   UNL     1      -4.726  -1.084  24.176  0.00  0.00    -0.270 OA
ATOM      5  N   UNL     1      -4.431   0.901  25.389  0.00  0.00    -0.292 N 
ATOM      8  C   UNL     1      -4.157   3.312  26.179  0.00  0.00    +0.218 C 
ATOM      9  C   UNL     1      -3.527   1.951  25.871  0.00  0.00    +0.155 C 
ATOM     10  C   UNL     1      -5.859   1.021  25.686  0.00  0.00    +0.136 C 
ATOM     11  C   UNL     1      -5.031   3.841  25.043  0.00  0.00    +0.206 C 
ATOM     12  C   UNL     1      -6.536   2.000  24.736  0.00  0.00    +0.179 C 
ATOM     13  C   UNL     1      -4.000  -0.198  24.625  0.00  0.00    +0.247 C 
ENDROOT
BRANCH  13  14
ATOM     14  C   UNL     1      -2.565  -0.320  24.327  0.00  0.00    +0.037 A 
ATOM     16  C   UNL     1      -1.822  -1.361  24.886  0.00  0.00    +0.016 A 
ATOM     17  C   UNL     1      -1.945   0.605  23.489  0.00  0.00    +0.016 A 
ATOM     18  C   UNL     1      -0.462  -1.476  24.604  0.00  0.00    +0.046 A 
ATOM     19  C   UNL     1      -0.583   0.491  23.207  0.00  0.00    +0.046 A 
ATOM     20  C   UNL     1       0.158  -0.551  23.765  0.00  0.00    +0.120 A 
BRANCH  20   4
ATOM      4  O   UNL     1       1.487  -0.664  23.491  0.00  0.00    -0.495 OA
ATOM     24  C   UNL     1       1.989   0.094  22.391  0.00  0.00    +0.277 C 
ENDBRANCH  20   4
ENDBRANCH  13  14
BRANCH   8   2
ATOM      2  O   UNL     1      -3.080   4.224  26.401  0.00  0.00    -0.468 OA
BRANCH   2  15
ATOM      6  N   UNL     1      -1.128   2.962  26.463  0.00  0.00    -0.219 NA
ATOM      7  N   UNL     1      -0.281   4.212  24.099  0.00  0.00    -0.256 NA
ATOM     15  C   UNL     1      -1.877   3.895  25.841  0.00  0.00    +0.234 A 
ATOM     21  C   UNL     1      -1.461   4.509  24.680  0.00  0.00    +0.177 A 
ATOM     22  C   UNL     1       0.051   2.665  25.882  0.00  0.00    +0.134 A 
ATOM     23  C   UNL     1       0.467   3.279  24.720  0.00  0.00    +0.130 A 
ENDBRANCH   2  15
ENDBRANCH   8   2
TORSDOF 4
ENDMDL
MODEL 7
REMARK VINA RESULT:      -1.3      1.932      4.183
REMARK  Name = 75536896
REMARK  5 active torsions:
REMARK  status: ('A' for Active; 'I' for Inactive)
REMARK    1  A    between atoms: O_2  and  C_8
REMARK    2  A    between atoms: O_2  and  C_15
REMARK    3  A    between atoms: O_4  and  C_20
REMARK    4  A    between atoms: O_4  and  C_24
REMARK    5  A    between atoms: C_13  and  C_14
REMARK                            x       y       z     vdW  Elec       q    Type
REMARK                         _______ _______ _______ _____ _____    ______ ____
ROOT
ATOM      1  O   UNL     1      -2.929  -3.197  23.899  0.00  0.00    -0.375 OA
ATOM      3  O   UNL     1       1.001  -0.399  24.075  0.00  0.00    -0.270 OA
ATOM      5  N   UNL     1      -1.076  -0.933  25.022  0.00  0.00    -0.292 N 
ATOM      8  C   UNL     1      -3.529  -1.454  25.498  0.00  0.00    +0.218 C 
ATOM      9  C   UNL     1      -2.355  -0.474  25.576  0.00  0.00    +0.155 C 
ATOM     10  C   UNL     1      -0.849  -2.373  24.895  0.00  0.00    +0.136 C 
ATOM     11  C   UNL     1      -3.732  -2.039  24.102  0.00  0.00    +0.206 C 
ATOM     12  C   UNL     1      -1.550  -2.932  23.663  0.00  0.00    +0.179 C 
ATOM     13  C   UNL     1      -0.071  -0.059  24.573  0.00  0.00    +0.247 C 
ENDROOT
BRANCH  13  14
ATOM     14  C   UNL     1      -0.297   1.389  24.702  0.00  0.00    +0.037 A 
ATOM     16  C   UNL     1      -0.356   2.191  23.562  0.00  0.00    +0.016 A 
ATOM     17  C   UNL     1      -0.451   1.961  25.965  0.00  0.00    +0.016 A 
ATOM     18  C   UNL     1      -0.569   3.563  23.685  0.00  0.00    +0.046 A 
ATOM     19  C   UNL     1      -0.664   3.334  26.088  0.00  0.00    +0.046 A 
ATOM     20  C   UNL     1      -0.723   4.135  24.947  0.00  0.00    +0.120 A 
BRANCH  20   4
ATOM      4  O   UNL     1      -0.931   5.475  25.066  0.00  0.00    -0.495 OA
ATOM     24  C   UNL     1      -1.751   6.095  24.076  0.00  0.00    +0.277 C 
ENDBRANCH  20   4
ENDBRANCH  13  14
BRANCH   8   2
ATOM      2  O   UNL     1      -4.698  -0.726  25.874  0.00  0.00    -0.468 OA
BRANCH   2  15
ATOM      6  N   UNL     1      -5.563   1.405  26.219  0.00  0.00    -0.219 NA
ATOM      7  N   UNL     1      -3.930   2.369  24.153  0.00  0.00    -0.256 NA
ATOM     15  C   UNL     1      -4.729   0.598  25.532  0.00  0.00    +0.234 A 
ATOM     21  C   UNL     1      -3.927   1.072  24.518  0.00  0.00    +0.177 A 
ATOM     22  C   UNL     1      -5.566   2.702  25.854  0.00  0.00    +0.134 A 
ATOM     23  C   UNL     1      -4.763   3.176  24.839  0.00  0.00    +0.130 A 
ENDBRANCH   2  15
ENDBRANCH   8   2
TORSDOF 4
ENDMDL
MODEL 8
REMARK VINA RESULT:      -0.2      1.996      6.171
REMARK  Name = 75536896
REMARK  5 active torsions:
REMARK  status: ('A' for Active; 'I' for Inactive)
REMARK    1  A    between atoms: O_2  and  C_8
REMARK    2  A    between atoms: O_2  and  C_15
REMARK    3  A    between atoms: O_4  and  C_20
REMARK    4  A    between atoms: O_4  and  C_24
REMARK    5  A    between atoms: C_13  and  C_14
REMARK                            x       y       z     vdW  Elec       q    Type
REMARK                         _______ _______ _______ _____ _____    ______ ____
ROOT
ATOM      1  O   UNL     1      -5.114  -1.662  24.084  0.00  0.00    -0.375 OA
ATOM      3  O   UNL     1      -0.535  -2.766  25.138  0.00  0.00    -0.270 OA
ATOM      5  N   UNL     1      -2.189  -1.107  25.061  0.00  0.00    -0.292 N 
ATOM      8  C   UNL     1      -4.057   0.511  24.423  0.00  0.00    +0.218 C 
ATOM      9  C   UNL     1      -2.573   0.263  24.705  0.00  0.00    +0.155 C 
ATOM     10  C   UNL     1      -3.218  -2.001  25.595  0.00  0.00    +0.136 C 
ATOM     11  C   UNL     1      -4.654  -0.484  23.430  0.00  0.00    +0.206 C 
ATOM     12  C   UNL     1      -4.087  -2.565  24.478  0.00  0.00    +0.179 C 
ATOM     13  C   UNL     1      -0.892  -1.617  24.882  0.00  0.00    +0.247 C 
ENDROOT
BRANCH  13  14
ATOM     14  C   UNL     1       0.143  -0.719  24.348  0.00  0.00    +0.037 A 
ATOM     16  C   UNL     1       0.144   0.632  24.698  0.00  0.00    +0.016 A 
ATOM     17  C   UNL     1       1.122  -1.217  23.488  0.00  0.00    +0.016 A 
ATOM     18  C   UNL     1       1.125   1.483  24.190  0.00  0.00    +0.046 A 
ATOM     19  C   UNL     1       2.102  -0.365  22.979  0.00  0.00    +0.046 A 
ATOM     20  C   UNL     1       2.104   0.985  23.330  0.00  0.00    +0.120 A 
BRANCH  20   4
ATOM      4  O   UNL     1       3.061   1.817  22.835  0.00  0.00    -0.495 OA
ATOM     24  C   UNL     1       4.330   1.238  22.533  0.00  0.00    +0.277 C 
ENDBRANCH  20   4
ENDBRANCH  13  14
BRANCH   8   2
ATOM      2  O   UNL     1      -4.159   1.828  23.881  0.00  0.00    -0.468 OA
BRANCH   2  15
ATOM      6  N   UNL     1      -2.206   3.088  23.950  0.00  0.00    -0.219 NA
ATOM      7  N   UNL     1      -3.172   4.403  26.232  0.00  0.00    -0.256 NA
ATOM     15  C   UNL     1      -3.409   2.797  24.487  0.00  0.00    +0.234 A 
ATOM     21  C   UNL     1      -3.883   3.443  25.607  0.00  0.00    +0.177 A 
ATOM     22  C   UNL     1      -1.495   4.048  24.576  0.00  0.00    +0.134 A 
ATOM     23  C   UNL     1      -1.970   4.694  25.696  0.00  0.00    +0.130 A 
ENDBRANCH   2  15
ENDBRANCH   8   2
TORSDOF 4
ENDMDL
