MODEL 1
REMARK VINA RESULT:       9.2      0.000      0.000
REMARK  Name = 11913055
REMARK  11 active torsions:
REMARK  status: ('A' for Active; 'I' for Inactive)
REMARK    1  A    between atoms: O_3  and  C_13
REMARK    2  A    between atoms: O_3  and  C_17
REMARK    3  A    between atoms: O_5  and  C_36
REMARK    4  A    between atoms: O_5  and  C_37
REMARK    5  A    between atoms: N_6  and  C_12
REMARK    6  A    between atoms: N_8  and  C_19
REMARK    7  A    between atoms: C_18  and  C_21
REMARK    8  A    between atoms: C_18  and  C_26
REMARK    9  A    between atoms: C_18  and  C_27
REMARK   10  A    between atoms: C_18  and  C_28
REMARK   11  A    between atoms: C_20  and  C_31
REMARK                            x       y       z     vdW  Elec       q    Type
REMARK                         _______ _______ _______ _____ _____    ______ ____
ROOT
ATOM      1  O   UNL     1      -2.100   2.221  25.397  0.00  0.00    -0.368 OA
ATOM      2  O   UNL     1      -0.951   4.661  23.933  0.00  0.00    -0.368 OA
ATOM     10  C   UNL     1      -2.307   4.296  24.266  0.00  0.00    +0.173 C 
ATOM     11  C   UNL     1      -2.406   2.790  24.114  0.00  0.00    +0.192 C 
ATOM     12  C   UNL     1      -2.560   4.531  25.737  0.00  0.00    +0.130 C 
ATOM     13  C   UNL     1      -1.327   2.494  23.099  0.00  0.00    +0.235 C 
ATOM     14  C   UNL     1      -1.993   3.273  26.370  0.00  0.00    +0.185 C 
ATOM     15  C   UNL     1      -0.256   3.495  23.470  0.00  0.00    +0.207 C 
ENDROOT
BRANCH  12   6
ATOM      6  N   UNL     1      -3.982   4.624  25.993  0.00  0.00    -0.306 N 
ATOM      7  N   UNL     1      -4.297   2.357  25.601  0.00  0.00    -0.214 NA
ATOM      9  N   UNL     1      -6.140   3.790  26.194  0.00  0.00    -0.223 NA
ATOM     16  C   UNL     1      -4.844   3.543  25.927  0.00  0.00    +0.216 A 
ATOM     20  C   UNL     1      -5.165   1.326  25.544  0.00  0.00    +0.076 A 
ATOM     22  C   UNL     1      -6.952   2.715  26.120  0.00  0.00    +0.116 A 
ATOM     23  C   UNL     1      -6.516   1.446  25.797  0.00  0.00    +0.048 A 
ATOM     38  H   UNL     1      -4.378   5.509  26.288  0.00  0.00    +0.149 HD
BRANCH  20  31
ATOM     31  C   UNL     1      -4.582   0.051  25.197  0.00  0.00    +0.001 A 
ATOM     32  C   UNL     1      -4.827  -0.507  23.942  0.00  0.00    +0.013 A 
ATOM     33  C   UNL     1      -3.776  -0.622  26.114  0.00  0.00    +0.013 A 
ATOM     34  C   UNL     1      -4.265  -1.739  23.605  0.00  0.00    +0.046 A 
ATOM     35  C   UNL     1      -3.214  -1.853  25.777  0.00  0.00    +0.046 A 
ATOM     36  C   UNL     1      -3.459  -2.411  24.523  0.00  0.00    +0.120 A 
BRANCH  36   5
ATOM      5  O   UNL     1      -2.909  -3.612  24.193  0.00  0.00    -0.495 OA
ATOM     37  C   UNL     1      -1.655  -3.587  23.513  0.00  0.00    +0.277 C 
ENDBRANCH  36   5
ENDBRANCH  20  31
ENDBRANCH  12   6
BRANCH  13   3
ATOM      3  O   UNL     1      -0.855   1.166  23.153  0.00  0.00    -0.442 OA
BRANCH   3  17
ATOM      4  O   UNL     1       0.533   1.096  24.969  0.00  0.00    -0.226 OA
ATOM      8  N   UNL     1       1.301   0.598  22.814  0.00  0.00    -0.251 N 
ATOM     17  C   UNL     1       0.365   0.961  23.763  0.00  0.00    +0.405 C 
ATOM     39  H   UNL     1       0.969   0.539  21.854  0.00  0.00    +0.158 HD
BRANCH   8  19
ATOM     19  C   UNL     1       2.669   0.299  23.010  0.00  0.00    +0.036 A 
ATOM     21  C   UNL     1       5.369  -0.290  23.395  0.00  0.00    -0.042 A 
ATOM     24  C   UNL     1       3.638   1.265  22.742  0.00  0.00    +0.024 A 
ATOM     25  C   UNL     1       3.048  -0.961  23.471  0.00  0.00    +0.024 A 
ATOM     29  C   UNL     1       4.988   0.971  22.935  0.00  0.00    +0.006 A 
ATOM     30  C   UNL     1       4.398  -1.256  23.664  0.00  0.00    +0.006 A 
BRANCH  21  18
ATOM     18  C   UNL     1       6.811  -0.603  23.603  0.00  0.00    -0.013 C 
ATOM     26  C   UNL     1       7.750   0.636  23.780  0.00  0.00    +0.015 C 
ATOM     27  C   UNL     1       7.023  -1.471  24.883  0.00  0.00    +0.015 C 
ATOM     28  C   UNL     1       7.397  -1.398  22.394  0.00  0.00    +0.015 C 
ENDBRANCH  21  18
ENDBRANCH   8  19
ENDBRANCH   3  17
ENDBRANCH  13   3
TORSDOF 7
ENDMDL
MODEL 2
REMARK VINA RESULT:      10.2      2.079      4.902
REMARK  Name = 11913055
REMARK  11 active torsions:
REMARK  status: ('A' for Active; 'I' for Inactive)
REMARK    1  A    between atoms: O_3  and  C_13
REMARK    2  A    between atoms: O_3  and  C_17
REMARK    3  A    between atoms: O_5  and  C_36
REMARK    4  A    between atoms: O_5  and  C_37
REMARK    5  A    between atoms: N_6  and  C_12
REMARK    6  A    between atoms: N_8  and  C_19
REMARK    7  A    between atoms: C_18  and  C_21
REMARK    8  A    between atoms: C_18  and  C_26
REMARK    9  A    between atoms: C_18  and  C_27
REMARK   10  A    between atoms: C_18  and  C_28
REMARK   11  A    between atoms: C_20  and  C_31
REMARK                            x       y       z     vdW  Elec       q    Type
REMARK                         _______ _______ _______ _____ _____    ______ ____
ROOT
ATOM      1  O   UNL     1      -2.744   0.157  25.032  0.00  0.00    -0.368 OA
ATOM      2  O   UNL     1      -4.425  -1.767  23.334  0.00  0.00    -0.368 OA
ATOM     10  C   UNL     1      -4.784  -0.584  24.078  0.00  0.00    +0.173 C 
ATOM     11  C   UNL     1      -3.936  -0.582  25.336  0.00  0.00    +0.192 C 
ATOM     12  C   UNL     1      -4.335   0.652  23.334  0.00  0.00    +0.130 C 
ATOM     13  C   UNL     1      -3.648  -2.051  25.537  0.00  0.00    +0.235 C 
ATOM     14  C   UNL     1      -2.875   0.759  23.734  0.00  0.00    +0.185 C 
ATOM     15  C   UNL     1      -3.508  -2.546  24.115  0.00  0.00    +0.207 C 
ENDROOT
BRANCH  12   6
ATOM      6  N   UNL     1      -5.069   1.811  23.797  0.00  0.00    -0.306 N 
ATOM      7  N   UNL     1      -3.311   2.503  25.146  0.00  0.00    -0.214 NA
ATOM      9  N   UNL     1      -5.364   3.757  25.027  0.00  0.00    -0.223 NA
ATOM     16  C   UNL     1      -4.559   2.731  24.695  0.00  0.00    +0.216 A 
ATOM     20  C   UNL     1      -2.846   3.418  26.022  0.00  0.00    +0.076 A 
ATOM     22  C   UNL     1      -4.836   4.635  25.906  0.00  0.00    +0.116 A 
ATOM     23  C   UNL     1      -3.570   4.515  26.441  0.00  0.00    +0.048 A 
ATOM     38  H   UNL     1      -5.987   2.004  23.413  0.00  0.00    +0.149 HD
BRANCH  20  31
ATOM     31  C   UNL     1      -1.507   3.179  26.506  0.00  0.00    +0.001 A 
ATOM     32  C   UNL     1      -1.273   3.065  27.877  0.00  0.00    +0.013 A 
ATOM     33  C   UNL     1      -0.449   3.062  25.606  0.00  0.00    +0.013 A 
ATOM     34  C   UNL     1       0.020   2.835  28.347  0.00  0.00    +0.046 A 
ATOM     35  C   UNL     1       0.844   2.831  26.076  0.00  0.00    +0.046 A 
ATOM     36  C   UNL     1       1.078   2.718  27.446  0.00  0.00    +0.120 A 
BRANCH  36   5
ATOM      5  O   UNL     1       2.340   2.491  27.905  0.00  0.00    -0.495 OA
ATOM     37  C   UNL     1       2.564   2.672  29.302  0.00  0.00    +0.277 C 
ENDBRANCH  36   5
ENDBRANCH  20  31
ENDBRANCH  12   6
BRANCH  13   3
ATOM      3  O   UNL     1      -2.490  -2.296  26.302  0.00  0.00    -0.442 OA
BRANCH   3  17
ATOM      4  O   UNL     1      -1.117  -0.557  26.866  0.00  0.00    -0.226 OA
ATOM      8  N   UNL     1      -0.777  -1.811  24.918  0.00  0.00    -0.251 N 
ATOM     17  C   UNL     1      -1.414  -1.459  26.093  0.00  0.00    +0.405 C 
ATOM     39  H   UNL     1      -1.175  -2.596  24.408  0.00  0.00    +0.158 HD
BRANCH   8  19
ATOM     19  C   UNL     1       0.364  -1.213  24.335  0.00  0.00    +0.036 A 
ATOM     21  C   UNL     1       2.616  -0.034  23.186  0.00  0.00    -0.042 A 
ATOM     24  C   UNL     1       1.609  -1.831  24.448  0.00  0.00    +0.024 A 
ATOM     25  C   UNL     1       0.244  -0.006  23.647  0.00  0.00    +0.024 A 
ATOM     29  C   UNL     1       2.735  -1.242  23.873  0.00  0.00    +0.006 A 
ATOM     30  C   UNL     1       1.370   0.584  23.072  0.00  0.00    +0.006 A 
BRANCH  21  18
ATOM     18  C   UNL     1       3.819   0.595  22.570  0.00  0.00    -0.013 C 
ATOM     26  C   UNL     1       5.192   0.164  23.185  0.00  0.00    +0.015 C 
ATOM     27  C   UNL     1       3.921   0.254  21.051  0.00  0.00    +0.015 C 
ATOM     28  C   UNL     1       3.775   2.149  22.702  0.00  0.00    +0.015 C 
ENDBRANCH  21  18
ENDBRANCH   8  19
ENDBRANCH   3  17
ENDBRANCH  13   3
TORSDOF 7
ENDMDL
MODEL 3
REMARK VINA RESULT:      10.7      2.123      3.617
REMARK  Name = 11913055
REMARK  11 active torsions:
REMARK  status: ('A' for Active; 'I' for Inactive)
REMARK    1  A    between atoms: O_3  and  C_13
REMARK    2  A    between atoms: O_3  and  C_17
REMARK    3  A    between atoms: O_5  and  C_36
REMARK    4  A    between atoms: O_5  and  C_37
REMARK    5  A    between atoms: N_6  and  C_12
REMARK    6  A    between atoms: N_8  and  C_19
REMARK    7  A    between atoms: C_18  and  C_21
REMARK    8  A    between atoms: C_18  and  C_26
REMARK    9  A    between atoms: C_18  and  C_27
REMARK   10  A    between atoms: C_18  and  C_28
REMARK   11  A    between atoms: C_20  and  C_31
REMARK                            x       y       z     vdW  Elec       q    Type
REMARK                         _______ _______ _______ _____ _____    ______ ____
ROOT
ATOM      1  O   UNL     1      -2.410   3.810  23.787  0.00  0.00    -0.368 OA
ATOM      2  O   UNL     1      -4.966   3.376  25.427  0.00  0.00    -0.368 OA
ATOM     10  C   UNL     1      -3.574   3.190  25.758  0.00  0.00    +0.173 C 
ATOM     11  C   UNL     1      -2.892   2.666  24.508  0.00  0.00    +0.192 C 
ATOM     12  C   UNL     1      -2.916   4.529  25.998  0.00  0.00    +0.130 C 
ATOM     13  C   UNL     1      -4.026   1.983  23.781  0.00  0.00    +0.235 C 
ATOM     14  C   UNL     1      -2.591   4.989  24.588  0.00  0.00    +0.185 C 
ATOM     15  C   UNL     1      -5.199   2.883  24.100  0.00  0.00    +0.207 C 
ENDROOT
BRANCH  12   6
ATOM      6  N   UNL     1      -1.699   4.359  26.764  0.00  0.00    -0.306 N 
ATOM      7  N   UNL     1      -1.651   2.073  26.361  0.00  0.00    -0.214 NA
ATOM      9  N   UNL     1       0.057   3.146  27.679  0.00  0.00    -0.223 NA
ATOM     16  C   UNL     1      -1.070   3.140  26.942  0.00  0.00    +0.216 A 
ATOM     20  C   UNL     1      -1.013   0.901  26.556  0.00  0.00    +0.076 A 
ATOM     22  C   UNL     1       0.643   1.941  27.834  0.00  0.00    +0.116 A 
ATOM     23  C   UNL     1       0.149   0.773  27.290  0.00  0.00    +0.048 A 
ATOM     38  H   UNL     1      -1.239   5.174  27.154  0.00  0.00    +0.149 HD
BRANCH  20  31
ATOM     31  C   UNL     1      -1.631  -0.245  25.933  0.00  0.00    +0.001 A 
ATOM     32  C   UNL     1      -3.023  -0.348  25.890  0.00  0.00    +0.013 A 
ATOM     33  C   UNL     1      -0.841  -1.250  25.376  0.00  0.00    +0.013 A 
ATOM     34  C   UNL     1      -3.622  -1.455  25.290  0.00  0.00    +0.046 A 
ATOM     35  C   UNL     1      -1.441  -2.357  24.775  0.00  0.00    +0.046 A 
ATOM     36  C   UNL     1      -2.830  -2.459  24.732  0.00  0.00    +0.120 A 
BRANCH  36   5
ATOM      5  O   UNL     1      -3.417  -3.538  24.144  0.00  0.00    -0.495 OA
ATOM     37  C   UNL     1      -4.596  -3.299  23.378  0.00  0.00    +0.277 C 
ENDBRANCH  36   5
ENDBRANCH  20  31
ENDBRANCH  12   6
BRANCH  13   3
ATOM      3  O   UNL     1      -3.811   1.863  22.392  0.00  0.00    -0.442 OA
BRANCH   3  17
ATOM      4  O   UNL     1      -2.138   2.031  20.843  0.00  0.00    -0.226 OA
ATOM      8  N   UNL     1      -1.735   1.231  23.006  0.00  0.00    -0.251 N 
ATOM     17  C   UNL     1      -2.504   1.732  21.973  0.00  0.00    +0.405 C 
ATOM     39  H   UNL     1      -2.222   1.043  23.879  0.00  0.00    +0.158 HD
BRANCH   8  19
ATOM     19  C   UNL     1      -0.350   0.945  23.001  0.00  0.00    +0.036 A 
ATOM     21  C   UNL     1       2.382   0.379  22.991  0.00  0.00    -0.042 A 
ATOM     24  C   UNL     1       0.128  -0.171  22.315  0.00  0.00    +0.024 A 
ATOM     25  C   UNL     1       0.537   1.779  23.682  0.00  0.00    +0.024 A 
ATOM     29  C   UNL     1       1.494  -0.454  22.310  0.00  0.00    +0.006 A 
ATOM     30  C   UNL     1       1.903   1.496  23.677  0.00  0.00    +0.006 A 
BRANCH  21  18
ATOM     18  C   UNL     1       3.841   0.077  22.984  0.00  0.00    -0.013 C 
ATOM     26  C   UNL     1       4.730   1.032  23.848  0.00  0.00    +0.015 C 
ATOM     27  C   UNL     1       4.125  -1.357  23.530  0.00  0.00    +0.015 C 
ATOM     28  C   UNL     1       4.429   0.156  21.541  0.00  0.00    +0.015 C 
ENDBRANCH  21  18
ENDBRANCH   8  19
ENDBRANCH   3  17
ENDBRANCH  13   3
TORSDOF 7
ENDMDL
MODEL 4
REMARK VINA RESULT:      10.8      2.842      5.908
REMARK  Name = 11913055
REMARK  11 active torsions:
REMARK  status: ('A' for Active; 'I' for Inactive)
REMARK    1  A    between atoms: O_3  and  C_13
REMARK    2  A    between atoms: O_3  and  C_17
REMARK    3  A    between atoms: O_5  and  C_36
REMARK    4  A    between atoms: O_5  and  C_37
REMARK    5  A    between atoms: N_6  and  C_12
REMARK    6  A    between atoms: N_8  and  C_19
REMARK    7  A    between atoms: C_18  and  C_21
REMARK    8  A    between atoms: C_18  and  C_26
REMARK    9  A    between atoms: C_18  and  C_27
REMARK   10  A    between atoms: C_18  and  C_28
REMARK   11  A    between atoms: C_20  and  C_31
REMARK                            x       y       z     vdW  Elec       q    Type
REMARK                         _______ _______ _______ _____ _____    ______ ____
ROOT
ATOM      1  O   UNL     1      -2.885   1.242  24.712  0.00  0.00    -0.368 OA
ATOM      2  O   UNL     1      -5.530   2.215  25.925  0.00  0.00    -0.368 OA
ATOM     10  C   UNL     1      -5.208   1.045  25.145  0.00  0.00    +0.173 C 
ATOM     11  C   UNL     1      -4.173   1.470  24.121  0.00  0.00    +0.192 C 
ATOM     12  C   UNL     1      -4.479   0.036  26.002  0.00  0.00    +0.130 C 
ATOM     13  C   UNL     1      -4.462   2.944  23.960  0.00  0.00    +0.235 C 
ATOM     14  C   UNL     1      -3.049   0.544  25.957  0.00  0.00    +0.185 C 
ATOM     15  C   UNL     1      -4.854   3.348  25.363  0.00  0.00    +0.207 C 
ENDROOT
BRANCH  12   6
ATOM      6  N   UNL     1      -4.562  -1.282  25.407  0.00  0.00    -0.306 N 
ATOM      7  N   UNL     1      -2.439  -1.103  24.484  0.00  0.00    -0.214 NA
ATOM      9  N   UNL     1      -3.776  -3.082  24.171  0.00  0.00    -0.223 NA
ATOM     16  C   UNL     1      -3.548  -1.847  24.655  0.00  0.00    +0.216 A 
ATOM     20  C   UNL     1      -1.471  -1.683  23.745  0.00  0.00    +0.076 A 
ATOM     22  C   UNL     1      -2.767  -3.603  23.441  0.00  0.00    +0.116 A 
ATOM     23  C   UNL     1      -1.580  -2.944  23.193  0.00  0.00    +0.048 A 
ATOM     38  H   UNL     1      -5.378  -1.856  25.583  0.00  0.00    +0.149 HD
BRANCH  20  31
ATOM     31  C   UNL     1      -0.280  -0.889  23.561  0.00  0.00    +0.001 A 
ATOM     32  C   UNL     1       0.119   0.007  24.554  0.00  0.00    +0.013 A 
ATOM     33  C   UNL     1       0.472  -1.016  22.393  0.00  0.00    +0.013 A 
ATOM     34  C   UNL     1       1.269   0.776  24.377  0.00  0.00    +0.046 A 
ATOM     35  C   UNL     1       1.623  -0.248  22.218  0.00  0.00    +0.046 A 
ATOM     36  C   UNL     1       2.020   0.649  23.209  0.00  0.00    +0.120 A 
BRANCH  36   5
ATOM      5  O   UNL     1       3.145   1.398  23.039  0.00  0.00    -0.495 OA
ATOM     37  C   UNL     1       4.386   0.698  22.967  0.00  0.00    +0.277 C 
ENDBRANCH  36   5
ENDBRANCH  20  31
ENDBRANCH  12   6
BRANCH  13   3
ATOM      3  O   UNL     1      -3.361   3.683  23.481  0.00  0.00    -0.442 OA
BRANCH   3  17
ATOM      4  O   UNL     1      -2.258   5.268  24.705  0.00  0.00    -0.226 OA
ATOM      8  N   UNL     1      -1.773   2.988  24.922  0.00  0.00    -0.251 N 
ATOM     17  C   UNL     1      -2.430   4.091  24.413  0.00  0.00    +0.405 C 
ATOM     39  H   UNL     1      -2.058   2.084  24.553  0.00  0.00    +0.158 HD
BRANCH   8  19
ATOM     19  C   UNL     1      -0.748   2.959  25.896  0.00  0.00    +0.036 A 
ATOM     21  C   UNL     1       1.276   2.900  27.815  0.00  0.00    -0.042 A 
ATOM     24  C   UNL     1       0.480   3.565  25.633  0.00  0.00    +0.024 A 
ATOM     25  C   UNL     1      -0.964   2.323  27.118  0.00  0.00    +0.024 A 
ATOM     29  C   UNL     1       1.492   3.536  26.593  0.00  0.00    +0.006 A 
ATOM     30  C   UNL     1       0.048   2.294  28.078  0.00  0.00    +0.006 A 
BRANCH  21  18
ATOM     18  C   UNL     1       2.358   2.870  28.841  0.00  0.00    -0.013 C 
ATOM     26  C   UNL     1       3.699   2.206  28.385  0.00  0.00    +0.015 C 
ATOM     27  C   UNL     1       2.743   4.312  29.298  0.00  0.00    +0.015 C 
ATOM     28  C   UNL     1       1.913   2.078  30.110  0.00  0.00    +0.015 C 
ENDBRANCH  21  18
ENDBRANCH   8  19
ENDBRANCH   3  17
ENDBRANCH  13   3
TORSDOF 7
ENDMDL
