MODEL 1
REMARK VINA RESULT:      17.5      0.000      0.000
REMARK  Name = 40777710
REMARK  14 active torsions:
REMARK  status: ('A' for Active; 'I' for Inactive)
REMARK    1  A    between atoms: O_2  and  C_16
REMARK    2  A    between atoms: N_4  and  C_15
REMARK    3  A    between atoms: N_5  and  C_26
REMARK    4  A    between atoms: C_7  and  C_12
REMARK    5  A    between atoms: C_7  and  C_13
REMARK    6  A    between atoms: C_12  and  C_14
REMARK    7  A    between atoms: C_13  and  C_16
REMARK    8  A    between atoms: C_18  and  C_21
REMARK    9  A    between atoms: C_22  and  C_24
REMARK   10  A    between atoms: C_23  and  C_25
REMARK   11  A    between atoms: C_27  and  C_28
REMARK   12  A    between atoms: C_27  and  C_33
REMARK   13  A    between atoms: C_27  and  C_34
REMARK   14  A    between atoms: C_27  and  C_35
REMARK                            x       y       z     vdW  Elec       q    Type
REMARK                         _______ _______ _______ _____ _____    ______ ____
ROOT
ATOM     15  C   UNL     1      -1.360   0.300  25.431  0.00  0.00    +0.097 C 
ATOM     17  C   UNL     1      -0.564  -0.324  24.279  0.00  0.00    +0.039 C 
ATOM     18  C   UNL     1       0.214   0.837  23.625  0.00  0.00    +0.047 C 
ATOM     19  C   UNL     1      -0.613   1.564  25.703  0.00  0.00    -0.009 C 
ATOM     20  C   UNL     1       0.249   1.859  24.724  0.00  0.00    -0.021 C 
ENDROOT
BRANCH  18  21
ATOM      5  N   UNL     1       3.714   0.111  22.824  0.00  0.00    -0.236 N 
ATOM      6  N   UNL     1       3.169  -0.498  21.757  0.00  0.00    -0.171 NA
ATOM     21  C   UNL     1       1.570   0.426  23.101  0.00  0.00    +0.003 A 
ATOM     22  C   UNL     1       2.798   0.680  23.660  0.00  0.00    +0.046 A 
ATOM     23  C   UNL     1       1.860  -0.302  21.931  0.00  0.00    +0.064 A 
ATOM     24  C   UNL     1       3.167   1.401  24.896  0.00  0.00    +0.066 C 
ATOM     25  C   UNL     1       0.909  -0.837  20.940  0.00  0.00    +0.068 C 
BRANCH   5  26
ATOM     26  C   UNL     1       5.100   0.115  22.987  0.00  0.00    +0.066 A 
ATOM     28  C   UNL     1       7.871   0.126  23.305  0.00  0.00    -0.042 A 
ATOM     29  C   UNL     1       5.695   1.006  23.879  0.00  0.00    +0.028 A 
ATOM     30  C   UNL     1       5.889  -0.772  22.253  0.00  0.00    +0.028 A 
ATOM     31  C   UNL     1       7.082   1.012  24.037  0.00  0.00    +0.006 A 
ATOM     32  C   UNL     1       7.275  -0.766  22.413  0.00  0.00    +0.006 A 
BRANCH  28  27
ATOM     27  C   UNL     1       9.353   0.132  23.475  0.00  0.00    -0.013 C 
ATOM     33  C   UNL     1       9.951   1.541  23.169  0.00  0.00    +0.015 C 
ATOM     34  C   UNL     1      10.037  -0.889  22.514  0.00  0.00    +0.015 C 
ATOM     35  C   UNL     1       9.866  -0.235  24.907  0.00  0.00    +0.015 C 
ENDBRANCH  28  27
ENDBRANCH   5  26
ENDBRANCH  18  21
BRANCH  15   4
ATOM      1  O   UNL     1      -3.711  -1.332  25.833  0.00  0.00    -0.276 OA
ATOM      4  N   UNL     1      -2.713   0.620  25.064  0.00  0.00    -0.309 N 
ATOM     14  C   UNL     1      -3.784  -0.229  25.297  0.00  0.00    +0.214 C 
ATOM     36  H   UNL     1      -2.874   1.494  24.569  0.00  0.00    +0.149 HD
BRANCH  14  12
ATOM     12  C   UNL     1      -5.079   0.377  24.804  0.00  0.00    +0.103 C 
BRANCH  12   7
ATOM      7  C   UNL     1      -5.036   1.907  24.800  0.00  0.00    -0.011 C 
ATOM      8  C   UNL     1      -6.347   2.510  25.321  0.00  0.00    +0.008 C 
ATOM      9  C   UNL     1      -4.020   2.446  25.817  0.00  0.00    +0.008 C 
ATOM     10  C   UNL     1      -5.975   3.911  25.803  0.00  0.00    +0.001 C 
ATOM     11  C   UNL     1      -4.480   3.871  26.120  0.00  0.00    +0.001 C 
BRANCH   7  13
ATOM     13  C   UNL     1      -4.720   2.399  23.379  0.00  0.00    +0.127 C 
BRANCH  13  16
ATOM      3  O   UNL     1      -2.551   3.476  23.657  0.00  0.00    -0.251 OA
ATOM     16  C   UNL     1      -3.245   2.590  23.182  0.00  0.00    +0.305 C 
BRANCH  16   2
ATOM      2  O   UNL     1      -2.767   1.608  22.375  0.00  0.00    -0.481 OA
ATOM     37  H   UNL     1      -2.392   1.966  21.543  0.00  0.00    +0.295 HD
ENDBRANCH  16   2
ENDBRANCH  13  16
ENDBRANCH   7  13
ENDBRANCH  12   7
ENDBRANCH  14  12
ENDBRANCH  15   4
TORSDOF 9
ENDMDL
MODEL 2
REMARK VINA RESULT:      17.5      1.197      1.770
REMARK  Name = 40777710
REMARK  14 active torsions:
REMARK  status: ('A' for Active; 'I' for Inactive)
REMARK    1  A    between atoms: O_2  and  C_16
REMARK    2  A    between atoms: N_4  and  C_15
REMARK    3  A    between atoms: N_5  and  C_26
REMARK    4  A    between atoms: C_7  and  C_12
REMARK    5  A    between atoms: C_7  and  C_13
REMARK    6  A    between atoms: C_12  and  C_14
REMARK    7  A    between atoms: C_13  and  C_16
REMARK    8  A    between atoms: C_18  and  C_21
REMARK    9  A    between atoms: C_22  and  C_24
REMARK   10  A    between atoms: C_23  and  C_25
REMARK   11  A    between atoms: C_27  and  C_28
REMARK   12  A    between atoms: C_27  and  C_33
REMARK   13  A    between atoms: C_27  and  C_34
REMARK   14  A    between atoms: C_27  and  C_35
REMARK                            x       y       z     vdW  Elec       q    Type
REMARK                         _______ _______ _______ _____ _____    ______ ____
ROOT
ATOM     15  C   UNL     1      -1.162   0.300  25.714  0.00  0.00    +0.097 C 
ATOM     17  C   UNL     1      -0.410  -0.349  24.546  0.00  0.00    +0.039 C 
ATOM     18  C   UNL     1       0.276   0.808  23.791  0.00  0.00    +0.047 C 
ATOM     19  C   UNL     1      -0.457   1.605  25.878  0.00  0.00    -0.009 C 
ATOM     20  C   UNL     1       0.331   1.886  24.835  0.00  0.00    -0.021 C 
ENDROOT
BRANCH  18  21
ATOM      5  N   UNL     1       3.749   0.120  22.851  0.00  0.00    -0.236 N 
ATOM      6  N   UNL     1       3.173  -0.407  21.757  0.00  0.00    -0.171 NA
ATOM     21  C   UNL     1       1.615   0.428  23.204  0.00  0.00    +0.003 A 
ATOM     22  C   UNL     1       2.858   0.634  23.749  0.00  0.00    +0.046 A 
ATOM     23  C   UNL     1       1.870  -0.217  21.979  0.00  0.00    +0.064 A 
ATOM     24  C   UNL     1       3.264   1.262  25.023  0.00  0.00    +0.066 C 
ATOM     25  C   UNL     1       0.890  -0.673  20.976  0.00  0.00    +0.068 C 
BRANCH   5  26
ATOM     26  C   UNL     1       5.138   0.103  22.979  0.00  0.00    +0.066 A 
ATOM     28  C   UNL     1       7.917   0.072  23.225  0.00  0.00    -0.042 A 
ATOM     29  C   UNL     1       5.777   1.052  23.776  0.00  0.00    +0.028 A 
ATOM     30  C   UNL     1       5.888  -0.861  22.304  0.00  0.00    +0.028 A 
ATOM     31  C   UNL     1       7.167   1.037  23.899  0.00  0.00    +0.006 A 
ATOM     32  C   UNL     1       7.277  -0.877  22.428  0.00  0.00    +0.006 A 
BRANCH  28  27
ATOM     27  C   UNL     1       9.402   0.057  23.357  0.00  0.00    -0.013 C 
ATOM     33  C   UNL     1      10.025   1.409  22.891  0.00  0.00    +0.015 C 
ATOM     34  C   UNL     1      10.035  -1.077  22.492  0.00  0.00    +0.015 C 
ATOM     35  C   UNL     1       9.945  -0.172  24.807  0.00  0.00    +0.015 C 
ENDBRANCH  28  27
ENDBRANCH   5  26
ENDBRANCH  18  21
BRANCH  15   4
ATOM      1  O   UNL     1      -3.290  -1.651  25.573  0.00  0.00    -0.276 OA
ATOM      4  N   UNL     1      -2.548   0.545  25.415  0.00  0.00    -0.309 N 
ATOM     14  C   UNL     1      -3.504  -0.459  25.370  0.00  0.00    +0.214 C 
ATOM     36  H   UNL     1      -2.821   1.497  25.183  0.00  0.00    +0.149 HD
BRANCH  14  12
ATOM     12  C   UNL     1      -4.868   0.102  25.034  0.00  0.00    +0.103 C 
BRANCH  12   7
ATOM      7  C   UNL     1      -4.805   1.577  24.633  0.00  0.00    -0.011 C 
ATOM      8  C   UNL     1      -3.824   2.361  25.516  0.00  0.00    +0.008 C 
ATOM      9  C   UNL     1      -4.183   1.758  23.241  0.00  0.00    +0.008 C 
ATOM     10  C   UNL     1      -3.429   3.579  24.684  0.00  0.00    +0.001 C 
ATOM     11  C   UNL     1      -3.661   3.193  23.224  0.00  0.00    +0.001 C 
BRANCH   7  13
ATOM     13  C   UNL     1      -6.218   2.179  24.696  0.00  0.00    +0.127 C 
BRANCH  13  16
ATOM      3  O   UNL     1      -6.336   4.343  25.813  0.00  0.00    -0.251 OA
ATOM     16  C   UNL     1      -6.358   3.122  25.855  0.00  0.00    +0.305 C 
BRANCH  16   2
ATOM      2  O   UNL     1      -6.521   2.409  26.999  0.00  0.00    -0.481 OA
ATOM     37  H   UNL     1      -5.982   2.768  27.735  0.00  0.00    +0.295 HD
ENDBRANCH  16   2
ENDBRANCH  13  16
ENDBRANCH   7  13
ENDBRANCH  12   7
ENDBRANCH  14  12
ENDBRANCH  15   4
TORSDOF 9
ENDMDL
MODEL 3
REMARK VINA RESULT:      17.8      1.443      2.338
REMARK  Name = 40777710
REMARK  14 active torsions:
REMARK  status: ('A' for Active; 'I' for Inactive)
REMARK    1  A    between atoms: O_2  and  C_16
REMARK    2  A    between atoms: N_4  and  C_15
REMARK    3  A    between atoms: N_5  and  C_26
REMARK    4  A    between atoms: C_7  and  C_12
REMARK    5  A    between atoms: C_7  and  C_13
REMARK    6  A    between atoms: C_12  and  C_14
REMARK    7  A    between atoms: C_13  and  C_16
REMARK    8  A    between atoms: C_18  and  C_21
REMARK    9  A    between atoms: C_22  and  C_24
REMARK   10  A    between atoms: C_23  and  C_25
REMARK   11  A    between atoms: C_27  and  C_28
REMARK   12  A    between atoms: C_27  and  C_33
REMARK   13  A    between atoms: C_27  and  C_34
REMARK   14  A    between atoms: C_27  and  C_35
REMARK                            x       y       z     vdW  Elec       q    Type
REMARK                         _______ _______ _______ _____ _____    ______ ____
ROOT
ATOM     15  C   UNL     1      -2.308  -0.134  23.485  0.00  0.00    +0.097 C 
ATOM     17  C   UNL     1      -1.111   0.288  22.624  0.00  0.00    +0.039 C 
ATOM     18  C   UNL     1       0.008   0.669  23.615  0.00  0.00    +0.047 C 
ATOM     19  C   UNL     1      -1.671  -0.487  24.788  0.00  0.00    -0.009 C 
ATOM     20  C   UNL     1      -0.408  -0.055  24.863  0.00  0.00    -0.021 C 
ENDROOT
BRANCH  18  21
ATOM      5  N   UNL     1       3.552   0.098  22.885  0.00  0.00    -0.236 N 
ATOM      6  N   UNL     1       3.058  -0.505  21.791  0.00  0.00    -0.171 NA
ATOM     21  C   UNL     1       1.391   0.324  23.115  0.00  0.00    +0.003 A 
ATOM     22  C   UNL     1       2.595   0.611  23.711  0.00  0.00    +0.046 A 
ATOM     23  C   UNL     1       1.738  -0.365  21.937  0.00  0.00    +0.064 A 
ATOM     24  C   UNL     1       2.905   1.316  24.972  0.00  0.00    +0.066 C 
ATOM     25  C   UNL     1       0.832  -0.912  20.911  0.00  0.00    +0.068 C 
BRANCH   5  26
ATOM     26  C   UNL     1       4.932   0.151  23.083  0.00  0.00    +0.066 A 
ATOM     28  C   UNL     1       7.693   0.259  23.471  0.00  0.00    -0.042 A 
ATOM     29  C   UNL     1       5.483   1.138  23.900  0.00  0.00    +0.028 A 
ATOM     30  C   UNL     1       5.761  -0.782  22.460  0.00  0.00    +0.028 A 
ATOM     31  C   UNL     1       6.864   1.193  24.093  0.00  0.00    +0.006 A 
ATOM     32  C   UNL     1       7.142  -0.728  22.654  0.00  0.00    +0.006 A 
BRANCH  28  27
ATOM     27  C   UNL     1       9.169   0.319  23.678  0.00  0.00    -0.013 C 
ATOM     33  C   UNL     1       9.664   1.793  23.799  0.00  0.00    +0.015 C 
ATOM     34  C   UNL     1       9.933  -0.339  22.487  0.00  0.00    +0.015 C 
ATOM     35  C   UNL     1       9.696  -0.403  24.962  0.00  0.00    +0.015 C 
ENDBRANCH  28  27
ENDBRANCH   5  26
ENDBRANCH  18  21
BRANCH  15   4
ATOM      1  O   UNL     1      -2.672   2.215  21.840  0.00  0.00    -0.276 OA
ATOM      4  N   UNL     1      -3.248   0.934  23.692  0.00  0.00    -0.309 N 
ATOM     14  C   UNL     1      -3.353   2.028  22.846  0.00  0.00    +0.214 C 
ATOM     36  H   UNL     1      -3.828   0.899  24.527  0.00  0.00    +0.149 HD
BRANCH  14  12
ATOM     12  C   UNL     1      -4.428   2.982  23.317  0.00  0.00    +0.103 C 
BRANCH  12   7
ATOM      7  C   UNL     1      -4.065   3.653  24.643  0.00  0.00    -0.011 C 
ATOM      8  C   UNL     1      -2.996   2.858  25.405  0.00  0.00    +0.008 C 
ATOM      9  C   UNL     1      -3.354   4.996  24.421  0.00  0.00    +0.008 C 
ATOM     10  C   UNL     1      -2.336   3.871  26.337  0.00  0.00    +0.001 C 
ATOM     11  C   UNL     1      -2.567   5.245  25.706  0.00  0.00    +0.001 C 
BRANCH   7  13
ATOM     13  C   UNL     1      -5.338   3.828  25.486  0.00  0.00    +0.127 C 
BRANCH  13  16
ATOM      3  O   UNL     1      -6.232   1.635  24.907  0.00  0.00    -0.251 OA
ATOM     16  C   UNL     1      -6.018   2.513  25.730  0.00  0.00    +0.305 C 
BRANCH  16   2
ATOM      2  O   UNL     1      -6.375   2.425  27.037  0.00  0.00    -0.481 OA
ATOM     37  H   UNL     1      -6.723   3.274  27.380  0.00  0.00    +0.295 HD
ENDBRANCH  16   2
ENDBRANCH  13  16
ENDBRANCH   7  13
ENDBRANCH  12   7
ENDBRANCH  14  12
ENDBRANCH  15   4
TORSDOF 9
ENDMDL
MODEL 4
REMARK VINA RESULT:      17.9      1.926      3.333
REMARK  Name = 40777710
REMARK  14 active torsions:
REMARK  status: ('A' for Active; 'I' for Inactive)
REMARK    1  A    between atoms: O_2  and  C_16
REMARK    2  A    between atoms: N_4  and  C_15
REMARK    3  A    between atoms: N_5  and  C_26
REMARK    4  A    between atoms: C_7  and  C_12
REMARK    5  A    between atoms: C_7  and  C_13
REMARK    6  A    between atoms: C_12  and  C_14
REMARK    7  A    between atoms: C_13  and  C_16
REMARK    8  A    between atoms: C_18  and  C_21
REMARK    9  A    between atoms: C_22  and  C_24
REMARK   10  A    between atoms: C_23  and  C_25
REMARK   11  A    between atoms: C_27  and  C_28
REMARK   12  A    between atoms: C_27  and  C_33
REMARK   13  A    between atoms: C_27  and  C_34
REMARK   14  A    between atoms: C_27  and  C_35
REMARK                            x       y       z     vdW  Elec       q    Type
REMARK                         _______ _______ _______ _____ _____    ______ ____
ROOT
ATOM     15  C   UNL     1      -4.678   0.149  24.151  0.00  0.00    +0.097 C 
ATOM     17  C   UNL     1      -3.274   0.361  23.572  0.00  0.00    +0.039 C 
ATOM     18  C   UNL     1      -2.300   0.196  24.756  0.00  0.00    +0.047 C 
ATOM     19  C   UNL     1      -4.409  -0.622  25.400  0.00  0.00    -0.009 C 
ATOM     20  C   UNL     1      -3.114  -0.603  25.733  0.00  0.00    -0.021 C 
ENDROOT
BRANCH  18  21
ATOM      5  N   UNL     1       1.123  -0.818  23.938  0.00  0.00    -0.236 N 
ATOM      6  N   UNL     1       0.530  -1.989  23.652  0.00  0.00    -0.171 NA
ATOM     21  C   UNL     1      -0.985  -0.435  24.365  0.00  0.00    +0.003 A 
ATOM     22  C   UNL     1       0.259   0.146  24.370  0.00  0.00    +0.046 A 
ATOM     23  C   UNL     1      -0.757  -1.750  23.914  0.00  0.00    +0.064 A 
ATOM     24  C   UNL     1       0.688   1.509  24.743  0.00  0.00    +0.066 C 
ATOM     25  C   UNL     1      -1.749  -2.822  23.717  0.00  0.00    +0.068 C 
BRANCH   5  26
ATOM     26  C   UNL     1       2.503  -0.684  23.781  0.00  0.00    +0.066 A 
ATOM     28  C   UNL     1       5.262  -0.410  23.473  0.00  0.00    -0.042 A 
ATOM     29  C   UNL     1       3.355  -1.712  24.184  0.00  0.00    +0.028 A 
ATOM     30  C   UNL     1       3.031   0.482  23.224  0.00  0.00    +0.028 A 
ATOM     31  C   UNL     1       4.735  -1.575  24.031  0.00  0.00    +0.006 A 
ATOM     32  C   UNL     1       4.411   0.618  23.070  0.00  0.00    +0.006 A 
BRANCH  28  27
ATOM     27  C   UNL     1       6.738  -0.264  23.310  0.00  0.00    -0.013 C 
ATOM     33  C   UNL     1       7.510  -1.065  24.404  0.00  0.00    +0.015 C 
ATOM     34  C   UNL     1       7.174   1.230  23.424  0.00  0.00    +0.015 C 
ATOM     35  C   UNL     1       7.314  -0.764  21.944  0.00  0.00    +0.015 C 
ENDBRANCH  28  27
ENDBRANCH   5  26
ENDBRANCH  18  21
BRANCH  15   4
ATOM      1  O   UNL     1      -5.861   0.860  26.690  0.00  0.00    -0.276 OA
ATOM      4  N   UNL     1      -5.332   1.385  24.489  0.00  0.00    -0.309 N 
ATOM     14  C   UNL     1      -5.874   1.639  25.740  0.00  0.00    +0.214 C 
ATOM     36  H   UNL     1      -5.438   2.081  23.755  0.00  0.00    +0.149 HD
BRANCH  14  12
ATOM     12  C   UNL     1      -6.492   3.019  25.797  0.00  0.00    +0.103 C 
BRANCH  12   7
ATOM      7  C   UNL     1      -5.507   4.111  25.377  0.00  0.00    -0.011 C 
ATOM      8  C   UNL     1      -4.807   3.765  24.056  0.00  0.00    +0.008 C 
ATOM      9  C   UNL     1      -6.232   5.415  25.013  0.00  0.00    +0.008 C 
ATOM     10  C   UNL     1      -4.349   5.105  23.486  0.00  0.00    +0.001 C 
ATOM     11  C   UNL     1      -5.262   6.166  24.101  0.00  0.00    +0.001 C 
BRANCH   7  13
ATOM     13  C   UNL     1      -4.489   4.335  26.507  0.00  0.00    +0.127 C 
BRANCH  13  16
ATOM      3  O   UNL     1      -2.657   2.862  25.862  0.00  0.00    -0.251 OA
ATOM     16  C   UNL     1      -3.098   3.982  26.067  0.00  0.00    +0.305 C 
BRANCH  16   2
ATOM      2  O   UNL     1      -2.370   5.119  25.921  0.00  0.00    -0.481 OA
ATOM     37  H   UNL     1      -2.939   5.908  25.806  0.00  0.00    +0.295 HD
ENDBRANCH  16   2
ENDBRANCH  13  16
ENDBRANCH   7  13
ENDBRANCH  12   7
ENDBRANCH  14  12
ENDBRANCH  15   4
TORSDOF 9
ENDMDL
MODEL 5
REMARK VINA RESULT:      18.6      1.564      2.769
REMARK  Name = 40777710
REMARK  14 active torsions:
REMARK  status: ('A' for Active; 'I' for Inactive)
REMARK    1  A    between atoms: O_2  and  C_16
REMARK    2  A    between atoms: N_4  and  C_15
REMARK    3  A    between atoms: N_5  and  C_26
REMARK    4  A    between atoms: C_7  and  C_12
REMARK    5  A    between atoms: C_7  and  C_13
REMARK    6  A    between atoms: C_12  and  C_14
REMARK    7  A    between atoms: C_13  and  C_16
REMARK    8  A    between atoms: C_18  and  C_21
REMARK    9  A    between atoms: C_22  and  C_24
REMARK   10  A    between atoms: C_23  and  C_25
REMARK   11  A    between atoms: C_27  and  C_28
REMARK   12  A    between atoms: C_27  and  C_33
REMARK   13  A    between atoms: C_27  and  C_34
REMARK   14  A    between atoms: C_27  and  C_35
REMARK                            x       y       z     vdW  Elec       q    Type
REMARK                         _______ _______ _______ _____ _____    ______ ____
ROOT
ATOM     15  C   UNL     1      -1.789   3.118  23.189  0.00  0.00    +0.097 C 
ATOM     17  C   UNL     1      -0.791   2.349  24.062  0.00  0.00    +0.039 C 
ATOM     18  C   UNL     1      -0.911   0.870  23.639  0.00  0.00    +0.047 C 
ATOM     19  C   UNL     1      -1.987   2.202  22.027  0.00  0.00    -0.009 C 
ATOM     20  C   UNL     1      -1.508   0.977  22.265  0.00  0.00    -0.021 C 
ENDROOT
BRANCH  18  21
ATOM      5  N   UNL     1       2.514  -0.427  23.691  0.00  0.00    -0.236 N 
ATOM      6  N   UNL     1       1.891  -1.594  23.928  0.00  0.00    -0.171 NA
ATOM     21  C   UNL     1       0.399   0.122  23.703  0.00  0.00    +0.003 A 
ATOM     22  C   UNL     1       1.665   0.631  23.548  0.00  0.00    +0.046 A 
ATOM     23  C   UNL     1       0.600  -1.252  23.935  0.00  0.00    +0.064 A 
ATOM     24  C   UNL     1       2.126   2.010  23.283  0.00  0.00    +0.066 C 
ATOM     25  C   UNL     1      -0.423  -2.288  24.171  0.00  0.00    +0.068 C 
BRANCH   5  26
ATOM     26  C   UNL     1       3.906  -0.389  23.612  0.00  0.00    +0.066 A 
ATOM     28  C   UNL     1       6.690  -0.319  23.447  0.00  0.00    -0.042 A 
ATOM     29  C   UNL     1       4.549   0.762  23.157  0.00  0.00    +0.028 A 
ATOM     30  C   UNL     1       4.656  -1.506  23.984  0.00  0.00    +0.028 A 
ATOM     31  C   UNL     1       5.941   0.797  23.074  0.00  0.00    +0.006 A 
ATOM     32  C   UNL     1       6.048  -1.471  23.902  0.00  0.00    +0.006 A 
BRANCH  28  27
ATOM     27  C   UNL     1       8.179  -0.281  23.359  0.00  0.00    -0.013 C 
ATOM     33  C   UNL     1       8.688   1.153  23.014  0.00  0.00    +0.015 C 
ATOM     34  C   UNL     1       8.704  -1.246  22.251  0.00  0.00    +0.015 C 
ATOM     35  C   UNL     1       8.940  -0.690  24.663  0.00  0.00    +0.015 C 
ENDBRANCH  28  27
ENDBRANCH   5  26
ENDBRANCH  18  21
BRANCH  15   4
ATOM      1  O   UNL     1      -2.289   4.733  25.533  0.00  0.00    -0.276 OA
ATOM      4  N   UNL     1      -3.052   3.331  23.844  0.00  0.00    -0.309 N 
ATOM     14  C   UNL     1      -3.197   4.128  24.970  0.00  0.00    +0.214 C 
ATOM     36  H   UNL     1      -3.862   2.834  23.483  0.00  0.00    +0.149 HD
BRANCH  14  12
ATOM     12  C   UNL     1      -4.638   4.163  25.430  0.00  0.00    +0.103 C 
BRANCH  12   7
ATOM      7  C   UNL     1      -5.180   2.767  25.742  0.00  0.00    -0.011 C 
ATOM      8  C   UNL     1      -6.089   2.776  26.978  0.00  0.00    +0.008 C 
ATOM      9  C   UNL     1      -6.144   2.279  24.650  0.00  0.00    +0.008 C 
ATOM     10  C   UNL     1      -6.978   1.544  26.826  0.00  0.00    +0.001 C 
ATOM     11  C   UNL     1      -7.012   1.223  25.332  0.00  0.00    +0.001 C 
BRANCH   7  13
ATOM     13  C   UNL     1      -4.002   1.796  25.922  0.00  0.00    +0.127 C 
BRANCH  13  16
ATOM      3  O   UNL     1      -4.318   0.590  23.827  0.00  0.00    -0.251 OA
ATOM     16  C   UNL     1      -4.145   0.593  25.036  0.00  0.00    +0.305 C 
BRANCH  16   2
ATOM      2  O   UNL     1      -4.052  -0.534  25.788  0.00  0.00    -0.481 OA
ATOM     37  H   UNL     1      -3.133  -0.699  26.090  0.00  0.00    +0.295 HD
ENDBRANCH  16   2
ENDBRANCH  13  16
ENDBRANCH   7  13
ENDBRANCH  12   7
ENDBRANCH  14  12
ENDBRANCH  15   4
TORSDOF 9
ENDMDL
