MODEL 1
REMARK VINA RESULT:      12.1      0.000      0.000
REMARK  Name = 7672478
REMARK  5 active torsions:
REMARK  status: ('A' for Active; 'I' for Inactive)
REMARK    1  A    between atoms: S_1  and  N_7
REMARK    2  A    between atoms: S_1  and  C_21
REMARK    3  A    between atoms: N_9  and  C_28
REMARK    4  A    between atoms: C_19  and  C_22
REMARK    5  A    between atoms: C_35  and  C_36
REMARK                            x       y       z     vdW  Elec       q    Type
REMARK                         _______ _______ _______ _____ _____    ______ ____
ROOT
ATOM      5  O   UNL     1       0.016   2.713  25.695  0.00  0.00    -0.267 OA
ATOM      7  N   UNL     1      -4.925   2.597  25.072  0.00  0.00    -0.176 NA
ATOM      8  N   UNL     1      -1.911   3.393  24.568  0.00  0.00    -0.311 N 
ATOM     10  C   UNL     1      -3.779   4.722  25.709  0.00  0.00    +0.025 C 
ATOM     11  C   UNL     1      -3.988   4.114  23.339  0.00  0.00    +0.052 C 
ATOM     12  C   UNL     1      -4.037   5.284  24.318  0.00  0.00    +0.017 C 
ATOM     13  C   UNL     1      -4.856   3.690  26.083  0.00  0.00    +0.114 C 
ATOM     14  C   UNL     1      -5.104   3.110  23.680  0.00  0.00    +0.119 C 
ATOM     15  C   UNL     1      -2.363   4.133  25.754  0.00  0.00    +0.130 C 
ATOM     16  C   UNL     1      -2.634   3.430  23.373  0.00  0.00    +0.026 A 
ATOM     17  C   UNL     1      -2.144   2.844  22.270  0.00  0.00    +0.022 A 
ATOM     18  C   UNL     1      -0.666   2.739  24.669  0.00  0.00    +0.260 A 
ATOM     19  C   UNL     1      -0.163   2.063  23.423  0.00  0.00    +0.053 A 
ATOM     20  C   UNL     1      -0.888   2.147  22.299  0.00  0.00    +0.016 A 
ENDROOT
BRANCH  19  22
ATOM      2  S   UNL     1       1.064  -0.351  23.629  0.00  0.00    -0.088 S 
ATOM     22  C   UNL     1       1.072   1.345  23.432  0.00  0.00    +0.026 A 
ATOM     25  C   UNL     1       2.356   1.833  23.298  0.00  0.00    +0.024 A 
ATOM     29  C   UNL     1       3.359   0.808  23.357  0.00  0.00    -0.010 A 
ATOM     30  C   UNL     1       2.783  -0.453  23.537  0.00  0.00    +0.020 A 
ATOM     31  C   UNL     1       4.769   0.893  23.262  0.00  0.00    +0.009 A 
ATOM     32  C   UNL     1       3.572  -1.617  23.625  0.00  0.00    +0.015 A 
ATOM     33  C   UNL     1       5.555  -0.260  23.347  0.00  0.00    +0.001 A 
ATOM     34  C   UNL     1       4.960  -1.500  23.528  0.00  0.00    +0.001 A 
ENDBRANCH  19  22
BRANCH   7   1
ATOM      1  S   UNL     1      -5.898   1.255  25.496  0.00  0.00    +0.061 S 
ATOM      3  O   UNL     1      -6.893   1.047  24.464  0.00  0.00    -0.153 OA
ATOM      4  O   UNL     1      -6.282   1.372  26.887  0.00  0.00    -0.153 OA
BRANCH   1  21
ATOM     21  C   UNL     1      -4.710  -0.044  25.367  0.00  0.00    +0.106 A 
ATOM     23  C   UNL     1      -3.940  -0.369  26.472  0.00  0.00    +0.030 A 
ATOM     24  C   UNL     1      -4.567  -0.715  24.165  0.00  0.00    +0.030 A 
ATOM     26  C   UNL     1      -3.001  -1.395  26.371  0.00  0.00    +0.025 A 
ATOM     27  C   UNL     1      -3.628  -1.741  24.063  0.00  0.00    +0.025 A 
ATOM     28  C   UNL     1      -2.845  -2.081  25.167  0.00  0.00    +0.033 A 
BRANCH  28   9
ATOM      6  O   UNL     1       0.114  -2.085  25.726  0.00  0.00    -0.276 OA
ATOM      9  N   UNL     1      -1.905  -3.108  25.066  0.00  0.00    -0.286 N 
ATOM     35  C   UNL     1      -0.533  -3.055  25.339  0.00  0.00    +0.214 C 
ATOM     36  C   UNL     1       0.137  -4.386  25.106  0.00  0.00    +0.109 C 
ATOM     37  H   UNL     1      -2.273  -4.005  24.755  0.00  0.00    +0.155 HD
ENDBRANCH  28   9
ENDBRANCH   1  21
ENDBRANCH   7   1
TORSDOF 4
ENDMDL
