MODEL 1
REMARK VINA RESULT:       5.3      0.000      0.000
REMARK  Name = 11884452
REMARK  6 active torsions:
REMARK  status: ('A' for Active; 'I' for Inactive)
REMARK    1  A    between atoms: S_1  and  N_8
REMARK    2  A    between atoms: S_1  and  C_22
REMARK    3  A    between atoms: O_7  and  C_32
REMARK    4  A    between atoms: O_7  and  C_33
REMARK    5  A    between atoms: N_10  and  C_20
REMARK    6  A    between atoms: C_26  and  C_27
REMARK                            x       y       z     vdW  Elec       q    Type
REMARK                         _______ _______ _______ _____ _____    ______ ____
ROOT
ATOM      5  O   UNL     1       0.161   2.571  26.165  0.00  0.00    -0.266 OA
ATOM      8  N   UNL     1      -4.718   2.155  25.252  0.00  0.00    -0.175 NA
ATOM      9  N   UNL     1      -1.762   3.250  25.024  0.00  0.00    -0.310 N 
ATOM     11  C   UNL     1      -3.791   4.265  26.210  0.00  0.00    +0.025 C 
ATOM     12  C   UNL     1      -3.834   3.949  23.775  0.00  0.00    +0.052 C 
ATOM     13  C   UNL     1      -4.030   4.978  24.885  0.00  0.00    +0.017 C 
ATOM     14  C   UNL     1      -4.792   3.112  26.392  0.00  0.00    +0.114 C 
ATOM     15  C   UNL     1      -4.874   2.824  23.925  0.00  0.00    +0.119 C 
ATOM     16  C   UNL     1      -2.334   3.790  26.265  0.00  0.00    +0.130 C 
ATOM     17  C   UNL     1      -2.429   3.379  23.802  0.00  0.00    +0.026 A 
ATOM     18  C   UNL     1      -1.838   2.978  22.664  0.00  0.00    +0.024 A 
ATOM     19  C   UNL     1      -0.470   2.690  25.114  0.00  0.00    +0.273 A 
ATOM     20  C   UNL     1       0.144   2.235  23.827  0.00  0.00    +0.099 A 
ATOM     21  C   UNL     1      -0.525   2.395  22.681  0.00  0.00    +0.030 A 
ENDROOT
BRANCH  20  10
ATOM      6  O   UNL     1       0.983  -0.124  22.458  0.00  0.00    -0.270 OA
ATOM     10  N   UNL     1       1.388   1.677  23.873  0.00  0.00    -0.277 N 
ATOM     26  C   UNL     1       1.734   0.524  23.183  0.00  0.00    +0.248 C 
ATOM     34  H   UNL     1       2.013   2.074  24.566  0.00  0.00    +0.155 HD
BRANCH  26  27
ATOM     27  C   UNL     1       3.143   0.079  23.337  0.00  0.00    +0.037 A 
ATOM     28  C   UNL     1       3.393  -1.228  23.696  0.00  0.00    +0.016 A 
ATOM     29  C   UNL     1       4.157   0.989  23.116  0.00  0.00    +0.016 A 
ATOM     30  C   UNL     1       4.717  -1.646  23.841  0.00  0.00    +0.046 A 
ATOM     31  C   UNL     1       5.480   0.571  23.260  0.00  0.00    +0.046 A 
ATOM     32  C   UNL     1       5.760  -0.746  23.623  0.00  0.00    +0.120 A 
BRANCH  32   7
ATOM      7  O   UNL     1       7.051  -1.155  23.762  0.00  0.00    -0.495 OA
ATOM     33  C   UNL     1       8.030  -0.500  22.957  0.00  0.00    +0.277 C 
ENDBRANCH  32   7
ENDBRANCH  26  27
ENDBRANCH  20  10
BRANCH   8   1
ATOM      1  S   UNL     1      -5.593   0.698  25.453  0.00  0.00    +0.067 S 
ATOM      3  O   UNL     1      -6.646   0.637  24.460  0.00  0.00    -0.152 OA
ATOM      4  O   UNL     1      -5.884   0.511  26.859  0.00  0.00    -0.152 OA
BRANCH   1  22
ATOM      2  S   UNL     1      -2.797  -0.142  25.621  0.00  0.00    -0.077 S 
ATOM     22  C   UNL     1      -4.353  -0.473  24.995  0.00  0.00    +0.143 A 
ATOM     23  C   UNL     1      -4.379  -1.611  24.229  0.00  0.00    +0.036 A 
ATOM     24  C   UNL     1      -3.097  -2.227  24.151  0.00  0.00    +0.010 A 
ATOM     25  C   UNL     1      -2.145  -1.531  24.863  0.00  0.00    +0.047 A 
ENDBRANCH   1  22
ENDBRANCH   8   1
TORSDOF 5
ENDMDL
MODEL 2
REMARK VINA RESULT:       8.4      2.046      3.855
REMARK  Name = 11884452
REMARK  6 active torsions:
REMARK  status: ('A' for Active; 'I' for Inactive)
REMARK    1  A    between atoms: S_1  and  N_8
REMARK    2  A    between atoms: S_1  and  C_22
REMARK    3  A    between atoms: O_7  and  C_32
REMARK    4  A    between atoms: O_7  and  C_33
REMARK    5  A    between atoms: N_10  and  C_20
REMARK    6  A    between atoms: C_26  and  C_27
REMARK                            x       y       z     vdW  Elec       q    Type
REMARK                         _______ _______ _______ _____ _____    ______ ____
ROOT
ATOM      5  O   UNL     1      -0.691   0.402  22.406  0.00  0.00    -0.266 OA
ATOM      8  N   UNL     1      -4.236   2.290  25.353  0.00  0.00    -0.175 NA
ATOM      9  N   UNL     1      -2.471   0.113  23.892  0.00  0.00    -0.310 N 
ATOM     11  C   UNL     1      -4.852   0.900  23.374  0.00  0.00    +0.025 C 
ATOM     12  C   UNL     1      -4.367  -0.187  25.522  0.00  0.00    +0.052 C 
ATOM     13  C   UNL     1      -5.276  -0.235  24.297  0.00  0.00    +0.017 C 
ATOM     14  C   UNL     1      -5.008   2.257  24.079  0.00  0.00    +0.114 C 
ATOM     15  C   UNL     1      -4.567   1.150  26.260  0.00  0.00    +0.119 C 
ATOM     16  C   UNL     1      -3.414   0.647  22.901  0.00  0.00    +0.130 C 
ATOM     17  C   UNL     1      -2.913  -0.363  25.130  0.00  0.00    +0.026 A 
ATOM     18  C   UNL     1      -2.049  -0.951  25.975  0.00  0.00    +0.024 A 
ATOM     19  C   UNL     1      -1.122   0.012  23.492  0.00  0.00    +0.273 A 
ATOM     20  C   UNL     1      -0.189  -0.629  24.471  0.00  0.00    +0.099 A 
ATOM     21  C   UNL     1      -0.660  -1.084  25.636  0.00  0.00    +0.030 A 
ENDROOT
BRANCH  20  10
ATOM      6  O   UNL     1       1.542   1.523  23.751  0.00  0.00    -0.270 OA
ATOM     10  N   UNL     1       1.127  -0.734  24.126  0.00  0.00    -0.277 N 
ATOM     26  C   UNL     1       1.918   0.353  23.785  0.00  0.00    +0.248 C 
ATOM     34  H   UNL     1       1.462  -1.682  23.990  0.00  0.00    +0.155 HD
BRANCH  26  27
ATOM     27  C   UNL     1       3.334   0.045  23.462  0.00  0.00    +0.037 A 
ATOM     28  C   UNL     1       3.871  -1.151  23.892  0.00  0.00    +0.016 A 
ATOM     29  C   UNL     1       4.069   0.964  22.741  0.00  0.00    +0.016 A 
ATOM     30  C   UNL     1       5.201  -1.441  23.588  0.00  0.00    +0.046 A 
ATOM     31  C   UNL     1       5.399   0.673  22.437  0.00  0.00    +0.046 A 
ATOM     32  C   UNL     1       5.965  -0.529  22.860  0.00  0.00    +0.120 A 
BRANCH  32   7
ATOM      7  O   UNL     1       7.263  -0.813  22.562  0.00  0.00    -0.495 OA
ATOM     33  C   UNL     1       8.265  -0.070  23.253  0.00  0.00    +0.277 C 
ENDBRANCH  32   7
ENDBRANCH  26  27
ENDBRANCH  20  10
BRANCH   8   1
ATOM      1  S   UNL     1      -4.117   3.823  26.106  0.00  0.00    +0.067 S 
ATOM      3  O   UNL     1      -4.051   3.642  27.541  0.00  0.00    -0.152 OA
ATOM      4  O   UNL     1      -5.088   4.717  25.512  0.00  0.00    -0.152 OA
BRANCH   1  22
ATOM      2  S   UNL     1      -1.338   3.077  25.586  0.00  0.00    -0.077 S 
ATOM     22  C   UNL     1      -2.515   4.316  25.552  0.00  0.00    +0.143 A 
ATOM     23  C   UNL     1      -2.010   5.507  25.091  0.00  0.00    +0.036 A 
ATOM     24  C   UNL     1      -0.628   5.403  24.759  0.00  0.00    +0.010 A 
ATOM     25  C   UNL     1      -0.136   4.135  24.980  0.00  0.00    +0.047 A 
ENDBRANCH   1  22
ENDBRANCH   8   1
TORSDOF 5
ENDMDL
