MODEL 1
REMARK VINA RESULT:       7.7      0.000      0.000
REMARK  Name = 11883039
REMARK  9 active torsions:
REMARK  status: ('A' for Active; 'I' for Inactive)
REMARK    1  A    between atoms: O_4  and  C_16
REMARK    2  A    between atoms: O_5  and  C_21
REMARK    3  A    between atoms: N_9  and  C_27
REMARK    4  A    between atoms: C_11  and  C_19
REMARK    5  A    between atoms: C_13  and  C_21
REMARK    6  A    between atoms: C_13  and  C_22
REMARK    7  A    between atoms: C_14  and  C_24
REMARK    8  A    between atoms: C_24  and  C_25
REMARK    9  A    between atoms: C_30  and  C_31
REMARK                            x       y       z     vdW  Elec       q    Type
REMARK                         _______ _______ _______ _____ _____    ______ ____
ROOT
ATOM      1  S   UNL     1       0.320   2.088  25.911  0.00  0.00    -0.057 S 
ATOM      7  O   UNL     1       1.843  -0.172  22.137  0.00  0.00    -0.270 OA
ATOM      8  N   UNL     1      -0.360   1.160  23.594  0.00  0.00    -0.229 NA
ATOM     10  N   UNL     1       1.932   0.831  24.268  0.00  0.00    -0.261 N 
ATOM     11  C   UNL     1      -3.998   2.137  24.414  0.00  0.00    -0.019 C 
ATOM     12  C   UNL     1      -3.547   3.370  25.315  0.00  0.00    +0.011 C 
ATOM     13  C   UNL     1      -4.684   4.152  26.078  0.00  0.00    +0.021 C 
ATOM     14  C   UNL     1      -2.797   1.787  23.421  0.00  0.00    +0.054 C 
ATOM     15  C   UNL     1      -5.233   2.541  23.567  0.00  0.00    +0.010 C 
ATOM     16  C   UNL     1      -5.857   4.436  25.099  0.00  0.00    +0.123 C 
ATOM     17  C   UNL     1      -2.328   3.004  26.211  0.00  0.00    +0.049 C 
ATOM     18  C   UNL     1      -6.349   3.189  24.372  0.00  0.00    +0.032 C 
ATOM     19  C   UNL     1      -4.358   0.882  25.249  0.00  0.00    +0.012 C 
ATOM     20  C   UNL     1      -1.482   1.741  24.155  0.00  0.00    +0.058 A 
ATOM     22  C   UNL     1      -4.128   5.528  26.545  0.00  0.00    +0.016 C 
ATOM     23  C   UNL     1      -1.289   2.310  25.398  0.00  0.00    +0.015 A 
ATOM     26  C   UNL     1       0.646   1.277  24.433  0.00  0.00    +0.165 A 
ATOM     30  C   UNL     1       2.447   0.147  23.155  0.00  0.00    +0.255 C 
ATOM     40  H   UNL     1       2.551   1.050  25.042  0.00  0.00    +0.157 HD
ENDROOT
BRANCH  30  31
ATOM      2  F   UNL     1       3.385  -2.288  24.230  0.00  0.00    -0.205 F 
ATOM      3  F   UNL     1       4.472   1.884  22.237  0.00  0.00    -0.205 F 
ATOM     31  C   UNL     1       3.892  -0.194  23.232  0.00  0.00    +0.107 A 
ATOM     32  C   UNL     1       4.294  -1.414  23.775  0.00  0.00    +0.138 A 
ATOM     33  C   UNL     1       4.847   0.708  22.760  0.00  0.00    +0.138 A 
ATOM     34  C   UNL     1       5.650  -1.732  23.846  0.00  0.00    +0.039 A 
ATOM     35  C   UNL     1       6.203   0.389  22.832  0.00  0.00    +0.039 A 
ATOM     36  C   UNL     1       6.604  -0.831  23.376  0.00  0.00    +0.006 A 
ENDBRANCH  30  31
BRANCH  16   4
ATOM      4  O   UNL     1      -6.958   5.029  25.789  0.00  0.00    -0.391 OA
ATOM     37  H   UNL     1      -7.297   5.753  25.237  0.00  0.00    +0.210 HD
ENDBRANCH  16   4
BRANCH  13  21
ATOM     21  C   UNL     1      -5.193   3.455  27.360  0.00  0.00    +0.165 C 
BRANCH  21   5
ATOM      5  O   UNL     1      -6.245   2.590  26.993  0.00  0.00    -0.394 OA
ATOM     38  H   UNL     1      -6.927   2.654  27.682  0.00  0.00    +0.209 HD
ENDBRANCH  21   5
ENDBRANCH  13  21
BRANCH  14  24
ATOM     24  C   UNL     1      -3.014   0.522  22.578  0.00  0.00    +0.106 C 
BRANCH  24  25
ATOM      6  O   UNL     1      -4.383  -1.230  23.537  0.00  0.00    -0.276 OA
ATOM      9  N   UNL     1      -2.133  -1.103  24.094  0.00  0.00    -0.312 N 
ATOM     25  C   UNL     1      -3.285  -0.690  23.438  0.00  0.00    +0.214 C 
ATOM     39  H   UNL     1      -1.264  -0.593  23.960  0.00  0.00    +0.149 HD
BRANCH   9  27
ATOM     27  C   UNL     1      -2.112  -2.235  24.976  0.00  0.00    +0.073 C 
ATOM     28  C   UNL     1      -3.100  -2.364  26.097  0.00  0.00    +0.024 C 
ATOM     29  C   UNL     1      -3.182  -3.285  24.915  0.00  0.00    +0.024 C 
ENDBRANCH   9  27
ENDBRANCH  24  25
ENDBRANCH  14  24
TORSDOF 7
ENDMDL
MODEL 2
REMARK VINA RESULT:       7.7      0.019      1.379
REMARK  Name = 11883039
REMARK  9 active torsions:
REMARK  status: ('A' for Active; 'I' for Inactive)
REMARK    1  A    between atoms: O_4  and  C_16
REMARK    2  A    between atoms: O_5  and  C_21
REMARK    3  A    between atoms: N_9  and  C_27
REMARK    4  A    between atoms: C_11  and  C_19
REMARK    5  A    between atoms: C_13  and  C_21
REMARK    6  A    between atoms: C_13  and  C_22
REMARK    7  A    between atoms: C_14  and  C_24
REMARK    8  A    between atoms: C_24  and  C_25
REMARK    9  A    between atoms: C_30  and  C_31
REMARK                            x       y       z     vdW  Elec       q    Type
REMARK                         _______ _______ _______ _____ _____    ______ ____
ROOT
ATOM      1  S   UNL     1       0.322   2.095  25.902  0.00  0.00    -0.057 S 
ATOM      7  O   UNL     1       1.843  -0.170  22.129  0.00  0.00    -0.270 OA
ATOM      8  N   UNL     1      -0.358   1.168  23.584  0.00  0.00    -0.229 NA
ATOM     10  N   UNL     1       1.932   0.834  24.260  0.00  0.00    -0.261 N 
ATOM     11  C   UNL     1      -3.995   2.153  24.402  0.00  0.00    -0.019 C 
ATOM     12  C   UNL     1      -3.541   3.385  25.302  0.00  0.00    +0.011 C 
ATOM     13  C   UNL     1      -4.677   4.170  26.065  0.00  0.00    +0.021 C 
ATOM     14  C   UNL     1      -2.794   1.800  23.409  0.00  0.00    +0.054 C 
ATOM     15  C   UNL     1      -5.228   2.560  23.553  0.00  0.00    +0.010 C 
ATOM     16  C   UNL     1      -5.849   4.457  25.084  0.00  0.00    +0.123 C 
ATOM     17  C   UNL     1      -2.324   3.017  26.199  0.00  0.00    +0.049 C 
ATOM     18  C   UNL     1      -6.343   3.210  24.358  0.00  0.00    +0.032 C 
ATOM     19  C   UNL     1      -4.358   0.899  25.237  0.00  0.00    +0.012 C 
ATOM     20  C   UNL     1      -1.479   1.752  24.145  0.00  0.00    +0.058 A 
ATOM     22  C   UNL     1      -4.119   5.545  26.531  0.00  0.00    +0.016 C 
ATOM     23  C   UNL     1      -1.286   2.320  25.388  0.00  0.00    +0.015 A 
ATOM     26  C   UNL     1       0.648   1.283  24.424  0.00  0.00    +0.165 A 
ATOM     30  C   UNL     1       2.446   0.149  23.148  0.00  0.00    +0.255 C 
ATOM     40  H   UNL     1       2.552   1.052  25.035  0.00  0.00    +0.157 HD
ENDROOT
BRANCH  30  31
ATOM      2  F   UNL     1       4.478   1.879  22.229  0.00  0.00    -0.205 F 
ATOM      3  F   UNL     1       3.377  -2.288  24.227  0.00  0.00    -0.205 F 
ATOM     31  C   UNL     1       3.891  -0.195  23.225  0.00  0.00    +0.107 A 
ATOM     32  C   UNL     1       4.849   0.702  22.754  0.00  0.00    +0.138 A 
ATOM     33  C   UNL     1       4.289  -1.417  23.770  0.00  0.00    +0.138 A 
ATOM     34  C   UNL     1       6.204   0.378  22.826  0.00  0.00    +0.039 A 
ATOM     35  C   UNL     1       5.643  -1.740  23.842  0.00  0.00    +0.039 A 
ATOM     36  C   UNL     1       6.601  -0.843  23.370  0.00  0.00    +0.006 A 
ENDBRANCH  30  31
BRANCH  16   4
ATOM      4  O   UNL     1      -6.949   5.052  25.774  0.00  0.00    -0.391 OA
ATOM     37  H   UNL     1      -7.049   4.591  26.624  0.00  0.00    +0.210 HD
ENDBRANCH  16   4
BRANCH  13  21
ATOM     21  C   UNL     1      -5.189   3.474  27.346  0.00  0.00    +0.165 C 
BRANCH  21   5
ATOM      5  O   UNL     1      -6.232   2.601  26.976  0.00  0.00    -0.394 OA
ATOM     38  H   UNL     1      -6.261   1.887  27.636  0.00  0.00    +0.209 HD
ENDBRANCH  21   5
ENDBRANCH  13  21
BRANCH  14  24
ATOM     24  C   UNL     1      -3.013   0.536  22.567  0.00  0.00    +0.106 C 
BRANCH  24  25
ATOM      6  O   UNL     1      -4.382  -1.223  23.514  0.00  0.00    -0.276 OA
ATOM      9  N   UNL     1      -2.140  -1.079  24.098  0.00  0.00    -0.312 N 
ATOM     25  C   UNL     1      -3.286  -0.676  23.427  0.00  0.00    +0.214 C 
ATOM     39  H   UNL     1      -1.273  -0.563  23.973  0.00  0.00    +0.149 HD
BRANCH   9  27
ATOM     27  C   UNL     1      -2.121  -2.208  24.984  0.00  0.00    +0.073 C 
ATOM     28  C   UNL     1      -3.125  -2.343  26.090  0.00  0.00    +0.024 C 
ATOM     29  C   UNL     1      -3.180  -3.268  24.910  0.00  0.00    +0.024 C 
ENDBRANCH   9  27
ENDBRANCH  24  25
ENDBRANCH  14  24
TORSDOF 7
ENDMDL
