MODEL 1
REMARK VINA RESULT:       5.5      0.000      0.000
REMARK  Name = 26745105
REMARK  9 active torsions:
REMARK  status: ('A' for Active; 'I' for Inactive)
REMARK    1  A    between atoms: O_3  and  C_23
REMARK    2  A    between atoms: C_10  and  C_12
REMARK    3  A    between atoms: C_10  and  C_18
REMARK    4  A    between atoms: C_10  and  C_19
REMARK    5  A    between atoms: C_10  and  C_20
REMARK    6  A    between atoms: C_11  and  C_21
REMARK    7  A    between atoms: C_12  and  C_15
REMARK    8  A    between atoms: C_18  and  C_23
REMARK    9  A    between atoms: C_24  and  C_25
REMARK                            x       y       z     vdW  Elec       q    Type
REMARK                         _______ _______ _______ _____ _____    ______ ____
ROOT
ATOM      1  O   UNL     1      -3.668  -0.928  22.306  0.00  0.00    -0.276 OA
ATOM      5  N   UNL     1      -3.655   0.760  23.912  0.00  0.00    -0.284 N 
ATOM      6  N   UNL     1      -4.880   3.298  26.356  0.00  0.00    -0.347 N 
ATOM      7  N   UNL     1      -4.884   4.674  24.596  0.00  0.00    -0.240 NA
ATOM     11  C   UNL     1      -3.051   1.765  22.970  0.00  0.00    +0.171 C 
ATOM     13  C   UNL     1      -3.909   3.066  22.899  0.00  0.00    +0.089 C 
ATOM     14  C   UNL     1      -3.900   1.187  25.317  0.00  0.00    +0.163 C 
ATOM     15  C   UNL     1      -3.863  -0.550  23.464  0.00  0.00    +0.217 C 
ATOM     16  C   UNL     1      -4.376   2.585  25.311  0.00  0.00    +0.056 A 
ATOM     17  C   UNL     1      -4.386   3.450  24.246  0.00  0.00    +0.066 A 
ATOM     22  C   UNL     1      -5.173   4.550  25.876  0.00  0.00    +0.197 A 
ATOM     35  H   UNL     1      -5.014   2.974  27.306  0.00  0.00    +0.167 HD
ENDROOT
BRANCH  11  21
ATOM      2  O   UNL     1      -1.209   3.063  23.943  0.00  0.00    -0.336 OA
ATOM      8  N   UNL     1      -0.555   1.174  22.932  0.00  0.00    -0.190 NA
ATOM      9  N   UNL     1       0.184   3.009  24.081  0.00  0.00    -0.056 NA
ATOM     21  C   UNL     1      -1.562   1.946  23.256  0.00  0.00    +0.249 A 
ATOM     24  C   UNL     1       0.495   1.868  23.460  0.00  0.00    +0.202 A 
BRANCH  24  25
ATOM     25  C   UNL     1       1.844   1.391  23.351  0.00  0.00    +0.023 A 
ATOM     26  C   UNL     1       2.148   0.074  23.696  0.00  0.00    +0.020 A 
ATOM     27  C   UNL     1       2.847   2.242  22.899  0.00  0.00    +0.012 A 
ATOM     28  C   UNL     1       3.462  -0.408  23.594  0.00  0.00    -0.017 A 
ATOM     29  C   UNL     1       4.483   0.457  23.134  0.00  0.00    -0.018 A 
ATOM     30  C   UNL     1       4.160   1.780  22.791  0.00  0.00    +0.009 A 
ATOM     31  C   UNL     1       3.787  -1.732  23.937  0.00  0.00    +0.008 A 
ATOM     32  C   UNL     1       5.799  -0.025  23.032  0.00  0.00    +0.008 A 
ATOM     33  C   UNL     1       5.098  -2.194  23.830  0.00  0.00    +0.001 A 
ATOM     34  C   UNL     1       6.102  -1.342  23.379  0.00  0.00    +0.001 A 
ENDBRANCH  24  25
ENDBRANCH  11  21
BRANCH  15  12
ATOM     12  C   UNL     1      -4.360  -1.542  24.487  0.00  0.00    +0.103 C 
BRANCH  12  10
ATOM     10  C   UNL     1      -3.220  -2.329  25.163  0.00  0.00    -0.017 C 
ATOM     19  C   UNL     1      -3.542  -3.831  25.028  0.00  0.00    +0.012 C 
ATOM     20  C   UNL     1      -3.168  -1.995  26.670  0.00  0.00    +0.012 C 
BRANCH  10  18
ATOM     18  C   UNL     1      -1.830  -2.022  24.555  0.00  0.00    +0.127 C 
BRANCH  18  23
ATOM      4  O   UNL     1      -1.079  -0.178  25.931  0.00  0.00    -0.251 OA
ATOM     23  C   UNL     1      -0.879  -1.300  25.483  0.00  0.00    +0.305 C 
BRANCH  23   3
ATOM      3  O   UNL     1       0.233  -2.023  25.767  0.00  0.00    -0.481 OA
ATOM     36  H   UNL     1       0.582  -2.486  24.976  0.00  0.00    +0.295 HD
ENDBRANCH  23   3
ENDBRANCH  18  23
ENDBRANCH  10  18
ENDBRANCH  12  10
ENDBRANCH  15  12
TORSDOF 7
ENDMDL
MODEL 2
REMARK VINA RESULT:       7.0      0.658      1.449
REMARK  Name = 26745105
REMARK  9 active torsions:
REMARK  status: ('A' for Active; 'I' for Inactive)
REMARK    1  A    between atoms: O_3  and  C_23
REMARK    2  A    between atoms: C_10  and  C_12
REMARK    3  A    between atoms: C_10  and  C_18
REMARK    4  A    between atoms: C_10  and  C_19
REMARK    5  A    between atoms: C_10  and  C_20
REMARK    6  A    between atoms: C_11  and  C_21
REMARK    7  A    between atoms: C_12  and  C_15
REMARK    8  A    between atoms: C_18  and  C_23
REMARK    9  A    between atoms: C_24  and  C_25
REMARK                            x       y       z     vdW  Elec       q    Type
REMARK                         _______ _______ _______ _____ _____    ______ ____
ROOT
ATOM      1  O   UNL     1      -3.782  -0.719  22.210  0.00  0.00    -0.276 OA
ATOM      5  N   UNL     1      -3.479   0.877  23.880  0.00  0.00    -0.284 N 
ATOM      6  N   UNL     1      -4.254   3.443  26.474  0.00  0.00    -0.347 N 
ATOM      7  N   UNL     1      -4.132   4.885  24.773  0.00  0.00    -0.240 NA
ATOM     11  C   UNL     1      -2.777   1.832  22.954  0.00  0.00    +0.171 C 
ATOM     13  C   UNL     1      -3.450   3.239  22.972  0.00  0.00    +0.089 C 
ATOM     14  C   UNL     1      -3.611   1.268  25.310  0.00  0.00    +0.163 C 
ATOM     15  C   UNL     1      -3.881  -0.372  23.389  0.00  0.00    +0.217 C 
ATOM     16  C   UNL     1      -3.890   2.716  25.380  0.00  0.00    +0.056 A 
ATOM     17  C   UNL     1      -3.820   3.623  24.352  0.00  0.00    +0.066 A 
ATOM     22  C   UNL     1      -4.388   4.744  26.057  0.00  0.00    +0.197 A 
ATOM     35  H   UNL     1      -4.396   3.097  27.415  0.00  0.00    +0.167 HD
ENDROOT
BRANCH  11  21
ATOM      2  O   UNL     1      -0.681   2.969  23.536  0.00  0.00    -0.336 OA
ATOM      8  N   UNL     1      -0.439   0.787  23.091  0.00  0.00    -0.190 NA
ATOM      9  N   UNL     1       0.683   2.690  23.688  0.00  0.00    -0.056 NA
ATOM     21  C   UNL     1      -1.268   1.796  23.184  0.00  0.00    +0.249 A 
ATOM     24  C   UNL     1       0.747   1.384  23.409  0.00  0.00    +0.202 A 
BRANCH  24  25
ATOM     25  C   UNL     1       1.977   0.647  23.441  0.00  0.00    +0.023 A 
ATOM     26  C   UNL     1       3.196   1.326  23.476  0.00  0.00    +0.020 A 
ATOM     27  C   UNL     1       1.954  -0.743  23.440  0.00  0.00    +0.012 A 
ATOM     28  C   UNL     1       4.408   0.619  23.510  0.00  0.00    -0.017 A 
ATOM     29  C   UNL     1       4.386  -0.796  23.508  0.00  0.00    -0.018 A 
ATOM     30  C   UNL     1       3.150  -1.463  23.473  0.00  0.00    +0.009 A 
ATOM     31  C   UNL     1       5.645   1.286  23.545  0.00  0.00    +0.008 A 
ATOM     32  C   UNL     1       5.599  -1.503  23.540  0.00  0.00    +0.008 A 
ATOM     33  C   UNL     1       6.840   0.568  23.576  0.00  0.00    +0.001 A 
ATOM     34  C   UNL     1       6.817  -0.824  23.574  0.00  0.00    +0.001 A 
ENDBRANCH  24  25
ENDBRANCH  11  21
BRANCH  15  12
ATOM     12  C   UNL     1      -4.473  -1.332  24.391  0.00  0.00    +0.103 C 
BRANCH  12  10
ATOM     10  C   UNL     1      -3.421  -2.270  25.015  0.00  0.00    -0.017 C 
ATOM     19  C   UNL     1      -3.908  -3.720  24.817  0.00  0.00    +0.012 C 
ATOM     20  C   UNL     1      -3.320  -2.016  26.535  0.00  0.00    +0.012 C 
BRANCH  10  18
ATOM     18  C   UNL     1      -2.010  -2.090  24.404  0.00  0.00    +0.127 C 
BRANCH  18  23
ATOM      4  O   UNL     1      -0.043  -2.480  25.759  0.00  0.00    -0.251 OA
ATOM     23  C   UNL     1      -0.933  -1.719  25.398  0.00  0.00    +0.305 C 
BRANCH  23   3
ATOM      3  O   UNL     1      -1.055  -0.450  25.860  0.00  0.00    -0.481 OA
ATOM     36  H   UNL     1      -0.275  -0.175  26.387  0.00  0.00    +0.295 HD
ENDBRANCH  23   3
ENDBRANCH  18  23
ENDBRANCH  10  18
ENDBRANCH  12  10
ENDBRANCH  15  12
TORSDOF 7
ENDMDL
MODEL 3
REMARK VINA RESULT:       9.1      1.747      4.565
REMARK  Name = 26745105
REMARK  9 active torsions:
REMARK  status: ('A' for Active; 'I' for Inactive)
REMARK    1  A    between atoms: O_3  and  C_23
REMARK    2  A    between atoms: C_10  and  C_12
REMARK    3  A    between atoms: C_10  and  C_18
REMARK    4  A    between atoms: C_10  and  C_19
REMARK    5  A    between atoms: C_10  and  C_20
REMARK    6  A    between atoms: C_11  and  C_21
REMARK    7  A    between atoms: C_12  and  C_15
REMARK    8  A    between atoms: C_18  and  C_23
REMARK    9  A    between atoms: C_24  and  C_25
REMARK                            x       y       z     vdW  Elec       q    Type
REMARK                         _______ _______ _______ _____ _____    ______ ____
ROOT
ATOM      1  O   UNL     1      -3.239   2.259  26.730  0.00  0.00    -0.276 OA
ATOM      5  N   UNL     1      -3.484   0.606  25.106  0.00  0.00    -0.284 N 
ATOM      6  N   UNL     1      -4.922  -2.251  23.185  0.00  0.00    -0.347 N 
ATOM      7  N   UNL     1      -3.744  -3.513  24.602  0.00  0.00    -0.240 NA
ATOM     11  C   UNL     1      -2.267  -0.145  25.569  0.00  0.00    +0.171 C 
ATOM     13  C   UNL     1      -2.599  -1.640  25.865  0.00  0.00    +0.089 C 
ATOM     14  C   UNL     1      -4.209   0.086  23.914  0.00  0.00    +0.163 C 
ATOM     15  C   UNL     1      -3.823   1.808  25.742  0.00  0.00    +0.217 C 
ATOM     16  C   UNL     1      -4.220  -1.389  23.974  0.00  0.00    +0.056 A 
ATOM     17  C   UNL     1      -3.505  -2.188  24.832  0.00  0.00    +0.066 A 
ATOM     22  C   UNL     1      -4.603  -3.518  23.603  0.00  0.00    +0.197 A 
ATOM     35  H   UNL     1      -5.555  -2.008  22.433  0.00  0.00    +0.167 HD
ENDROOT
BRANCH  11  21
ATOM      2  O   UNL     1      -1.381   0.609  23.406  0.00  0.00    -0.336 OA
ATOM      8  N   UNL     1       0.195  -0.059  24.852  0.00  0.00    -0.190 NA
ATOM      9  N   UNL     1      -0.156   0.766  22.746  0.00  0.00    -0.056 NA
ATOM     21  C   UNL     1      -1.085   0.119  24.639  0.00  0.00    +0.249 A 
ATOM     24  C   UNL     1       0.724   0.352  23.663  0.00  0.00    +0.202 A 
BRANCH  24  25
ATOM     25  C   UNL     1       2.139   0.337  23.423  0.00  0.00    +0.023 A 
ATOM     26  C   UNL     1       2.900  -0.767  23.809  0.00  0.00    +0.020 A 
ATOM     27  C   UNL     1       2.750   1.423  22.805  0.00  0.00    +0.012 A 
ATOM     28  C   UNL     1       4.285  -0.797  23.580  0.00  0.00    -0.017 A 
ATOM     29  C   UNL     1       4.907   0.307  22.951  0.00  0.00    -0.018 A 
ATOM     30  C   UNL     1       4.126   1.410  22.570  0.00  0.00    +0.009 A 
ATOM     31  C   UNL     1       5.067  -1.900  23.962  0.00  0.00    +0.008 A 
ATOM     32  C   UNL     1       6.293   0.278  22.723  0.00  0.00    +0.008 A 
ATOM     33  C   UNL     1       6.442  -1.913  23.728  0.00  0.00    +0.001 A 
ATOM     34  C   UNL     1       7.054  -0.826  23.110  0.00  0.00    +0.001 A 
ENDBRANCH  24  25
ENDBRANCH  11  21
BRANCH  15  12
ATOM     12  C   UNL     1      -4.984   2.576  25.159  0.00  0.00    +0.103 C 
BRANCH  12  10
ATOM     10  C   UNL     1      -4.670   4.071  24.953  0.00  0.00    -0.017 C 
ATOM     19  C   UNL     1      -5.952   4.867  25.270  0.00  0.00    +0.012 C 
ATOM     20  C   UNL     1      -4.308   4.337  23.475  0.00  0.00    +0.012 C 
BRANCH  10  18
ATOM     18  C   UNL     1      -3.498   4.570  25.831  0.00  0.00    +0.127 C 
BRANCH  18  23
ATOM      4  O   UNL     1      -1.621   5.793  24.913  0.00  0.00    -0.251 OA
ATOM     23  C   UNL     1      -2.181   4.720  25.102  0.00  0.00    +0.305 C 
BRANCH  23   3
ATOM      3  O   UNL     1      -1.680   3.537  24.668  0.00  0.00    -0.481 OA
ATOM     36  H   UNL     1      -0.921   3.661  24.059  0.00  0.00    +0.295 HD
ENDBRANCH  23   3
ENDBRANCH  18  23
ENDBRANCH  10  18
ENDBRANCH  12  10
ENDBRANCH  15  12
TORSDOF 7
ENDMDL
