MODEL 1
REMARK VINA RESULT:       5.7      0.000      0.000
REMARK  Name = 26744680
REMARK  9 active torsions:
REMARK  status: ('A' for Active; 'I' for Inactive)
REMARK    1  A    between atoms: O_2  and  C_12
REMARK    2  A    between atoms: O_3  and  C_13
REMARK    3  A    between atoms: O_6  and  C_33
REMARK    4  A    between atoms: O_6  and  C_34
REMARK    5  A    between atoms: N_9  and  C_16
REMARK    6  A    between atoms: C_11  and  C_15
REMARK    7  A    between atoms: C_14  and  C_16
REMARK    8  A    between atoms: C_15  and  C_17
REMARK    9  A    between atoms: C_23  and  C_25
REMARK                            x       y       z     vdW  Elec       q    Type
REMARK                         _______ _______ _______ _____ _____    ______ ____
ROOT
ATOM      1  O   UNL     1      -4.541   1.188  23.918  0.00  0.00    -0.366 OA
ATOM     11  C   UNL     1      -5.177   0.511  25.027  0.00  0.00    +0.159 C 
ATOM     12  C   UNL     1      -6.044   1.553  25.725  0.00  0.00    +0.175 C 
ATOM     13  C   UNL     1      -5.300   2.837  25.422  0.00  0.00    +0.176 C 
ATOM     14  C   UNL     1      -4.839   2.593  23.995  0.00  0.00    +0.167 C 
ENDROOT
BRANCH  12   2
ATOM      2  O   UNL     1      -7.323   1.561  25.093  0.00  0.00    -0.387 OA
ATOM     35  H   UNL     1      -7.289   0.923  24.359  0.00  0.00    +0.210 HD
ENDBRANCH  12   2
BRANCH  13   3
ATOM      3  O   UNL     1      -6.107   3.990  25.528  0.00  0.00    -0.387 OA
ATOM     36  H   UNL     1      -7.016   3.694  25.711  0.00  0.00    +0.210 HD
ENDBRANCH  13   3
BRANCH  11  15
ATOM     15  C   UNL     1      -4.079  -0.047  25.923  0.00  0.00    +0.130 C 
BRANCH  15  17
ATOM      4  O   UNL     1      -3.917  -2.251  25.053  0.00  0.00    -0.276 OA
ATOM      7  N   UNL     1      -2.062  -0.880  24.773  0.00  0.00    -0.298 N 
ATOM      8  N   UNL     1       0.542  -0.334  23.634  0.00  0.00    -0.312 N 
ATOM     10  N   UNL     1       2.798   0.329  23.860  0.00  0.00    -0.240 NA
ATOM     17  C   UNL     1      -3.356  -1.164  25.212  0.00  0.00    +0.218 C 
ATOM     18  C   UNL     1      -1.294  -1.912  24.080  0.00  0.00    +0.126 C 
ATOM     19  C   UNL     1      -1.400   0.414  24.952  0.00  0.00    +0.126 C 
ATOM     20  C   UNL     1      -0.359  -1.318  23.029  0.00  0.00    +0.125 C 
ATOM     21  C   UNL     1       0.123   0.316  24.879  0.00  0.00    +0.125 C 
ATOM     22  C   UNL     1       1.779  -0.053  23.058  0.00  0.00    +0.121 A 
ATOM     24  C   UNL     1       1.882  -0.185  21.682  0.00  0.00    +0.043 A 
ATOM     26  C   UNL     1       3.111   0.091  21.091  0.00  0.00    +0.005 A 
ATOM     27  C   UNL     1       3.977   0.590  23.250  0.00  0.00    +0.113 A 
ATOM     30  C   UNL     1       4.183   0.487  21.884  0.00  0.00    +0.020 A 
ENDBRANCH  15  17
ENDBRANCH  11  15
BRANCH  14  16
ATOM     16  C   UNL     1      -3.610   3.397  23.613  0.00  0.00    +0.138 C 
BRANCH  16   9
ATOM      5  O   UNL     1      -2.978   4.751  26.064  0.00  0.00    -0.270 OA
ATOM      9  N   UNL     1      -2.511   3.113  24.489  0.00  0.00    -0.309 N 
ATOM     23  C   UNL     1      -2.279   3.824  25.663  0.00  0.00    +0.244 C 
ATOM     37  H   UNL     1      -1.925   2.322  24.245  0.00  0.00    +0.149 HD
BRANCH  23  25
ATOM     25  C   UNL     1      -1.083   3.424  26.448  0.00  0.00    +0.037 A 
ATOM     28  C   UNL     1       0.172   3.398  25.840  0.00  0.00    +0.016 A 
ATOM     29  C   UNL     1      -1.216   3.075  27.792  0.00  0.00    +0.016 A 
ATOM     31  C   UNL     1       1.295   3.022  26.578  0.00  0.00    +0.046 A 
ATOM     32  C   UNL     1      -0.093   2.699  28.528  0.00  0.00    +0.046 A 
ATOM     33  C   UNL     1       1.163   2.673  27.922  0.00  0.00    +0.120 A 
BRANCH  33   6
ATOM      6  O   UNL     1       2.258   2.304  28.641  0.00  0.00    -0.495 OA
ATOM     34  C   UNL     1       2.061   2.024  30.026  0.00  0.00    +0.277 C 
ENDBRANCH  33   6
ENDBRANCH  23  25
ENDBRANCH  16   9
ENDBRANCH  14  16
TORSDOF 8
ENDMDL
MODEL 2
REMARK VINA RESULT:       6.4      1.998      5.131
REMARK  Name = 26744680
REMARK  9 active torsions:
REMARK  status: ('A' for Active; 'I' for Inactive)
REMARK    1  A    between atoms: O_2  and  C_12
REMARK    2  A    between atoms: O_3  and  C_13
REMARK    3  A    between atoms: O_6  and  C_33
REMARK    4  A    between atoms: O_6  and  C_34
REMARK    5  A    between atoms: N_9  and  C_16
REMARK    6  A    between atoms: C_11  and  C_15
REMARK    7  A    between atoms: C_14  and  C_16
REMARK    8  A    between atoms: C_15  and  C_17
REMARK    9  A    between atoms: C_23  and  C_25
REMARK                            x       y       z     vdW  Elec       q    Type
REMARK                         _______ _______ _______ _____ _____    ______ ____
ROOT
ATOM      1  O   UNL     1      -4.046   2.176  25.406  0.00  0.00    -0.366 OA
ATOM     11  C   UNL     1      -4.436   3.519  25.035  0.00  0.00    +0.159 C 
ATOM     12  C   UNL     1      -5.955   3.503  24.901  0.00  0.00    +0.175 C 
ATOM     13  C   UNL     1      -6.221   2.066  24.503  0.00  0.00    +0.176 C 
ATOM     14  C   UNL     1      -5.202   1.321  25.349  0.00  0.00    +0.167 C 
ENDROOT
BRANCH  12   2
ATOM      2  O   UNL     1      -6.516   3.773  26.185  0.00  0.00    -0.387 OA
ATOM     35  H   UNL     1      -7.216   4.437  26.063  0.00  0.00    +0.210 HD
ENDBRANCH  12   2
BRANCH  13   3
ATOM      3  O   UNL     1      -7.542   1.646  24.774  0.00  0.00    -0.387 OA
ATOM     36  H   UNL     1      -7.866   1.178  23.985  0.00  0.00    +0.210 HD
ENDBRANCH  13   3
BRANCH  11  15
ATOM     15  C   UNL     1      -3.727   3.867  23.734  0.00  0.00    +0.130 C 
BRANCH  15  17
ATOM      4  O   UNL     1      -2.255   2.479  22.488  0.00  0.00    -0.276 OA
ATOM      7  N   UNL     1      -1.691   2.871  24.708  0.00  0.00    -0.298 N 
ATOM      8  N   UNL     1       0.159   2.691  26.927  0.00  0.00    -0.312 N 
ATOM     10  N   UNL     1       0.648   2.129  29.169  0.00  0.00    -0.240 NA
ATOM     17  C   UNL     1      -2.495   3.010  23.576  0.00  0.00    +0.218 C 
ATOM     18  C   UNL     1      -0.482   2.053  24.638  0.00  0.00    +0.126 C 
ATOM     19  C   UNL     1      -1.970   3.511  25.996  0.00  0.00    +0.126 C 
ATOM     20  C   UNL     1       0.625   2.591  25.542  0.00  0.00    +0.125 C 
ATOM     21  C   UNL     1      -1.281   2.809  27.167  0.00  0.00    +0.125 C 
ATOM     22  C   UNL     1       1.062   2.638  27.987  0.00  0.00    +0.121 A 
ATOM     24  C   UNL     1       2.341   3.119  27.755  0.00  0.00    +0.043 A 
ATOM     26  C   UNL     1       3.254   3.072  28.802  0.00  0.00    +0.005 A 
ATOM     27  C   UNL     1       1.563   2.100  30.164  0.00  0.00    +0.113 A 
ATOM     30  C   UNL     1       2.865   2.555  30.033  0.00  0.00    +0.020 A 
ENDBRANCH  15  17
ENDBRANCH  11  15
BRANCH  14  16
ATOM     16  C   UNL     1      -4.811  -0.027  24.772  0.00  0.00    +0.138 C 
BRANCH  16   9
ATOM      5  O   UNL     1      -3.035  -2.274  24.970  0.00  0.00    -0.270 OA
ATOM      9  N   UNL     1      -3.424  -0.055  24.413  0.00  0.00    -0.309 N 
ATOM     23  C   UNL     1      -2.633  -1.194  24.543  0.00  0.00    +0.244 C 
ATOM     37  H   UNL     1      -3.041   0.789  24.002  0.00  0.00    +0.149 HD
BRANCH  23  25
ATOM     25  C   UNL     1      -1.207  -1.053  24.153  0.00  0.00    +0.037 A 
ATOM     28  C   UNL     1      -0.870  -0.377  22.980  0.00  0.00    +0.016 A 
ATOM     29  C   UNL     1      -0.207  -1.596  24.958  0.00  0.00    +0.016 A 
ATOM     31  C   UNL     1       0.470  -0.245  22.614  0.00  0.00    +0.046 A 
ATOM     32  C   UNL     1       1.132  -1.463  24.591  0.00  0.00    +0.046 A 
ATOM     33  C   UNL     1       1.471  -0.787  23.419  0.00  0.00    +0.120 A 
BRANCH  33   6
ATOM      6  O   UNL     1       2.778  -0.659  23.061  0.00  0.00    -0.495 OA
ATOM     34  C   UNL     1       3.223   0.643  22.683  0.00  0.00    +0.277 C 
ENDBRANCH  33   6
ENDBRANCH  23  25
ENDBRANCH  16   9
ENDBRANCH  14  16
TORSDOF 8
ENDMDL
MODEL 3
REMARK VINA RESULT:       7.1      2.146      4.518
REMARK  Name = 26744680
REMARK  9 active torsions:
REMARK  status: ('A' for Active; 'I' for Inactive)
REMARK    1  A    between atoms: O_2  and  C_12
REMARK    2  A    between atoms: O_3  and  C_13
REMARK    3  A    between atoms: O_6  and  C_33
REMARK    4  A    between atoms: O_6  and  C_34
REMARK    5  A    between atoms: N_9  and  C_16
REMARK    6  A    between atoms: C_11  and  C_15
REMARK    7  A    between atoms: C_14  and  C_16
REMARK    8  A    between atoms: C_15  and  C_17
REMARK    9  A    between atoms: C_23  and  C_25
REMARK                            x       y       z     vdW  Elec       q    Type
REMARK                         _______ _______ _______ _____ _____    ______ ____
ROOT
ATOM      1  O   UNL     1      -5.091   4.807  25.552  0.00  0.00    -0.366 OA
ATOM     11  C   UNL     1      -3.948   5.516  25.022  0.00  0.00    +0.159 C 
ATOM     12  C   UNL     1      -3.607   4.849  23.694  0.00  0.00    +0.175 C 
ATOM     13  C   UNL     1      -4.091   3.431  23.920  0.00  0.00    +0.176 C 
ATOM     14  C   UNL     1      -5.362   3.666  24.718  0.00  0.00    +0.167 C 
ENDROOT
BRANCH  12   2
ATOM      2  O   UNL     1      -4.379   5.478  22.672  0.00  0.00    -0.387 OA
ATOM     35  H   UNL     1      -3.983   5.235  21.817  0.00  0.00    +0.210 HD
ENDBRANCH  12   2
BRANCH  13   3
ATOM      3  O   UNL     1      -4.341   2.727  22.722  0.00  0.00    -0.387 OA
ATOM     36  H   UNL     1      -4.141   1.789  22.888  0.00  0.00    +0.210 HD
ENDBRANCH  13   3
BRANCH  11  15
ATOM     15  C   UNL     1      -2.823   5.416  26.044  0.00  0.00    +0.130 C 
BRANCH  15  17
ATOM      4  O   UNL     1      -3.271   3.416  27.244  0.00  0.00    -0.276 OA
ATOM      7  N   UNL     1      -1.535   3.340  25.701  0.00  0.00    -0.298 N 
ATOM      8  N   UNL     1       0.448   1.880  24.181  0.00  0.00    -0.312 N 
ATOM     10  N   UNL     1       2.668   1.580  23.432  0.00  0.00    -0.240 NA
ATOM     17  C   UNL     1      -2.573   3.969  26.391  0.00  0.00    +0.218 C 
ATOM     18  C   UNL     1      -1.227   1.940  25.983  0.00  0.00    +0.126 C 
ATOM     19  C   UNL     1      -0.714   3.995  24.679  0.00  0.00    +0.126 C 
ATOM     20  C   UNL     1      -0.724   1.205  24.743  0.00  0.00    +0.125 C 
ATOM     21  C   UNL     1       0.634   3.304  24.471  0.00  0.00    +0.125 C 
ATOM     22  C   UNL     1       1.379   1.175  23.421  0.00  0.00    +0.121 A 
ATOM     24  C   UNL     1       0.913   0.091  22.694  0.00  0.00    +0.043 A 
ATOM     26  C   UNL     1       1.830  -0.624  21.931  0.00  0.00    +0.005 A 
ATOM     27  C   UNL     1       3.531   0.862  22.678  0.00  0.00    +0.113 A 
ATOM     30  C   UNL     1       3.166  -0.237  21.917  0.00  0.00    +0.020 A 
ENDBRANCH  15  17
ENDBRANCH  11  15
BRANCH  14  16
ATOM     16  C   UNL     1      -5.757   2.484  25.584  0.00  0.00    +0.138 C 
BRANCH  16   9
ATOM      5  O   UNL     1      -5.951  -0.075  24.298  0.00  0.00    -0.270 OA
ATOM      9  N   UNL     1      -4.752   1.462  25.556  0.00  0.00    -0.309 N 
ATOM     23  C   UNL     1      -4.933   0.244  24.905  0.00  0.00    +0.244 C 
ATOM     37  H   UNL     1      -3.865   1.682  25.993  0.00  0.00    +0.149 HD
BRANCH  23  25
ATOM     25  C   UNL     1      -3.806  -0.720  24.991  0.00  0.00    +0.037 A 
ATOM     28  C   UNL     1      -3.100  -0.862  26.186  0.00  0.00    +0.016 A 
ATOM     29  C   UNL     1      -3.453  -1.482  23.877  0.00  0.00    +0.016 A 
ATOM     31  C   UNL     1      -2.042  -1.768  26.266  0.00  0.00    +0.046 A 
ATOM     32  C   UNL     1      -2.395  -2.387  23.958  0.00  0.00    +0.046 A 
ATOM     33  C   UNL     1      -1.690  -2.530  25.153  0.00  0.00    +0.120 A 
BRANCH  33   6
ATOM      6  O   UNL     1      -0.655  -3.412  25.231  0.00  0.00    -0.495 OA
ATOM     34  C   UNL     1       0.644  -2.870  25.464  0.00  0.00    +0.277 C 
ENDBRANCH  33   6
ENDBRANCH  23  25
ENDBRANCH  16   9
ENDBRANCH  14  16
TORSDOF 8
ENDMDL
MODEL 4
REMARK VINA RESULT:       7.5      1.524      2.017
REMARK  Name = 26744680
REMARK  9 active torsions:
REMARK  status: ('A' for Active; 'I' for Inactive)
REMARK    1  A    between atoms: O_2  and  C_12
REMARK    2  A    between atoms: O_3  and  C_13
REMARK    3  A    between atoms: O_6  and  C_33
REMARK    4  A    between atoms: O_6  and  C_34
REMARK    5  A    between atoms: N_9  and  C_16
REMARK    6  A    between atoms: C_11  and  C_15
REMARK    7  A    between atoms: C_14  and  C_16
REMARK    8  A    between atoms: C_15  and  C_17
REMARK    9  A    between atoms: C_23  and  C_25
REMARK                            x       y       z     vdW  Elec       q    Type
REMARK                         _______ _______ _______ _____ _____    ______ ____
ROOT
ATOM      1  O   UNL     1      -4.767   2.519  23.962  0.00  0.00    -0.366 OA
ATOM     11  C   UNL     1      -4.933   1.110  24.246  0.00  0.00    +0.159 C 
ATOM     12  C   UNL     1      -5.798   1.025  25.500  0.00  0.00    +0.175 C 
ATOM     13  C   UNL     1      -5.456   2.319  26.208  0.00  0.00    +0.176 C 
ATOM     14  C   UNL     1      -5.336   3.284  25.041  0.00  0.00    +0.167 C 
ENDROOT
BRANCH  12   2
ATOM      2  O   UNL     1      -7.166   1.029  25.095  0.00  0.00    -0.387 OA
ATOM     35  H   UNL     1      -7.655   1.584  25.726  0.00  0.00    +0.210 HD
ENDBRANCH  12   2
BRANCH  13   3
ATOM      3  O   UNL     1      -6.441   2.728  27.133  0.00  0.00    -0.387 OA
ATOM     36  H   UNL     1      -6.007   3.306  27.784  0.00  0.00    +0.210 HD
ENDBRANCH  13   3
BRANCH  11  15
ATOM     15  C   UNL     1      -3.548   0.508  24.437  0.00  0.00    +0.130 C 
BRANCH  15  17
ATOM      4  O   UNL     1      -3.263   1.143  22.166  0.00  0.00    -0.276 OA
ATOM      7  N   UNL     1      -1.375   0.367  23.277  0.00  0.00    -0.298 N 
ATOM      8  N   UNL     1       1.478  -0.100  23.412  0.00  0.00    -0.312 N 
ATOM     10  N   UNL     1       3.323  -1.519  23.814  0.00  0.00    -0.240 NA
ATOM     17  C   UNL     1      -2.726   0.706  23.187  0.00  0.00    +0.218 C 
ATOM     18  C   UNL     1      -0.514   0.525  22.107  0.00  0.00    +0.126 C 
ATOM     19  C   UNL     1      -0.736  -0.141  24.493  0.00  0.00    +0.126 C 
ATOM     20  C   UNL     1       0.915   0.897  22.497  0.00  0.00    +0.125 C 
ATOM     21  C   UNL     1       0.553  -0.912  24.206  0.00  0.00    +0.125 C 
ATOM     22  C   UNL     1       2.856  -0.291  23.494  0.00  0.00    +0.121 A 
ATOM     24  C   UNL     1       3.665   0.804  23.239  0.00  0.00    +0.043 A 
ATOM     26  C   UNL     1       5.042   0.629  23.317  0.00  0.00    +0.005 A 
ATOM     27  C   UNL     1       4.667  -1.652  23.882  0.00  0.00    +0.113 A 
ATOM     30  C   UNL     1       5.560  -0.620  23.644  0.00  0.00    +0.020 A 
ENDBRANCH  15  17
ENDBRANCH  11  15
BRANCH  14  16
ATOM     16  C   UNL     1      -4.452   4.482  25.337  0.00  0.00    +0.138 C 
BRANCH  16   9
ATOM      5  O   UNL     1      -1.979   3.632  24.153  0.00  0.00    -0.270 OA
ATOM      9  N   UNL     1      -3.261   4.088  26.032  0.00  0.00    -0.309 N 
ATOM     23  C   UNL     1      -2.101   3.688  25.374  0.00  0.00    +0.244 C 
ATOM     37  H   UNL     1      -3.275   4.164  27.042  0.00  0.00    +0.149 HD
BRANCH  23  25
ATOM     25  C   UNL     1      -0.961   3.286  26.237  0.00  0.00    +0.037 A 
ATOM     28  C   UNL     1      -1.156   3.099  27.606  0.00  0.00    +0.016 A 
ATOM     29  C   UNL     1       0.303   3.097  25.680  0.00  0.00    +0.016 A 
ATOM     31  C   UNL     1      -0.085   2.722  28.416  0.00  0.00    +0.046 A 
ATOM     32  C   UNL     1       1.373   2.720  26.490  0.00  0.00    +0.046 A 
ATOM     33  C   UNL     1       1.179   2.532  27.859  0.00  0.00    +0.120 A 
BRANCH  33   6
ATOM      6  O   UNL     1       2.225   2.165  28.650  0.00  0.00    -0.495 OA
ATOM     34  C   UNL     1       1.978   2.081  30.053  0.00  0.00    +0.277 C 
ENDBRANCH  33   6
ENDBRANCH  23  25
ENDBRANCH  16   9
ENDBRANCH  14  16
TORSDOF 8
ENDMDL
MODEL 5
REMARK VINA RESULT:       7.8      2.681      5.847
REMARK  Name = 26744680
REMARK  9 active torsions:
REMARK  status: ('A' for Active; 'I' for Inactive)
REMARK    1  A    between atoms: O_2  and  C_12
REMARK    2  A    between atoms: O_3  and  C_13
REMARK    3  A    between atoms: O_6  and  C_33
REMARK    4  A    between atoms: O_6  and  C_34
REMARK    5  A    between atoms: N_9  and  C_16
REMARK    6  A    between atoms: C_11  and  C_15
REMARK    7  A    between atoms: C_14  and  C_16
REMARK    8  A    between atoms: C_15  and  C_17
REMARK    9  A    between atoms: C_23  and  C_25
REMARK                            x       y       z     vdW  Elec       q    Type
REMARK                         _______ _______ _______ _____ _____    ______ ____
ROOT
ATOM      1  O   UNL     1      -3.376   4.273  24.068  0.00  0.00    -0.366 OA
ATOM     11  C   UNL     1      -3.353   5.281  25.105  0.00  0.00    +0.159 C 
ATOM     12  C   UNL     1      -1.889   5.666  25.297  0.00  0.00    +0.175 C 
ATOM     13  C   UNL     1      -1.174   4.390  24.903  0.00  0.00    +0.176 C 
ATOM     14  C   UNL     1      -2.023   3.912  23.737  0.00  0.00    +0.167 C 
ENDROOT
BRANCH  12   2
ATOM      2  O   UNL     1      -1.581   6.711  24.376  0.00  0.00    -0.387 OA
ATOM     35  H   UNL     1      -0.626   6.670  24.198  0.00  0.00    +0.210 HD
ENDBRANCH  12   2
BRANCH  13   3
ATOM      3  O   UNL     1       0.172   4.596  24.528  0.00  0.00    -0.387 OA
ATOM     36  H   UNL     1       0.189   5.338  23.899  0.00  0.00    +0.210 HD
ENDBRANCH  13   3
BRANCH  11  15
ATOM     15  C   UNL     1      -3.979   4.678  26.354  0.00  0.00    +0.130 C 
BRANCH  15  17
ATOM      4  O   UNL     1      -6.273   4.280  25.886  0.00  0.00    -0.276 OA
ATOM      7  N   UNL     1      -4.846   2.453  25.735  0.00  0.00    -0.298 N 
ATOM      8  N   UNL     1      -4.313  -0.299  25.014  0.00  0.00    -0.312 N 
ATOM     10  N   UNL     1      -3.484  -2.448  25.536  0.00  0.00    -0.240 NA
ATOM     17  C   UNL     1      -5.142   3.796  25.971  0.00  0.00    +0.218 C 
ATOM     18  C   UNL     1      -5.919   1.533  25.363  0.00  0.00    +0.126 C 
ATOM     19  C   UNL     1      -3.500   1.881  25.825  0.00  0.00    +0.126 C 
ATOM     20  C   UNL     1      -5.430   0.438  24.418  0.00  0.00    +0.125 C 
ATOM     21  C   UNL     1      -3.513   0.368  26.044  0.00  0.00    +0.125 C 
ATOM     22  C   UNL     1      -4.044  -1.612  24.634  0.00  0.00    +0.121 A 
ATOM     24  C   UNL     1      -4.371  -1.977  23.338  0.00  0.00    +0.043 A 
ATOM     26  C   UNL     1      -4.109  -3.284  22.943  0.00  0.00    +0.005 A 
ATOM     27  C   UNL     1      -3.243  -3.712  25.117  0.00  0.00    +0.113 A 
ATOM     30  C   UNL     1      -3.534  -4.174  23.844  0.00  0.00    +0.020 A 
ENDBRANCH  15  17
ENDBRANCH  11  15
BRANCH  14  16
ATOM     16  C   UNL     1      -1.937   2.414  23.504  0.00  0.00    +0.138 C 
BRANCH  16   9
ATOM      5  O   UNL     1      -0.831  -0.156  24.143  0.00  0.00    -0.270 OA
ATOM      9  N   UNL     1      -0.579   1.996  23.313  0.00  0.00    -0.309 N 
ATOM     23  C   UNL     1      -0.127   0.723  23.654  0.00  0.00    +0.244 C 
ATOM     37  H   UNL     1       0.044   2.656  22.863  0.00  0.00    +0.149 HD
BRANCH  23  25
ATOM     25  C   UNL     1       1.315   0.454  23.418  0.00  0.00    +0.037 A 
ATOM     28  C   UNL     1       2.179   1.505  23.112  0.00  0.00    +0.016 A 
ATOM     29  C   UNL     1       1.803  -0.850  23.502  0.00  0.00    +0.016 A 
ATOM     31  C   UNL     1       3.533   1.251  22.891  0.00  0.00    +0.046 A 
ATOM     32  C   UNL     1       3.156  -1.103  23.281  0.00  0.00    +0.046 A 
ATOM     33  C   UNL     1       4.022  -0.052  22.976  0.00  0.00    +0.120 A 
BRANCH  33   6
ATOM      6  O   UNL     1       5.343  -0.300  22.758  0.00  0.00    -0.495 OA
ATOM     34  C   UNL     1       6.190  -0.360  23.906  0.00  0.00    +0.277 C 
ENDBRANCH  33   6
ENDBRANCH  23  25
ENDBRANCH  16   9
ENDBRANCH  14  16
TORSDOF 8
ENDMDL
MODEL 6
REMARK VINA RESULT:       8.3      2.148      5.715
REMARK  Name = 26744680
REMARK  9 active torsions:
REMARK  status: ('A' for Active; 'I' for Inactive)
REMARK    1  A    between atoms: O_2  and  C_12
REMARK    2  A    between atoms: O_3  and  C_13
REMARK    3  A    between atoms: O_6  and  C_33
REMARK    4  A    between atoms: O_6  and  C_34
REMARK    5  A    between atoms: N_9  and  C_16
REMARK    6  A    between atoms: C_11  and  C_15
REMARK    7  A    between atoms: C_14  and  C_16
REMARK    8  A    between atoms: C_15  and  C_17
REMARK    9  A    between atoms: C_23  and  C_25
REMARK                            x       y       z     vdW  Elec       q    Type
REMARK                         _______ _______ _______ _____ _____    ______ ____
ROOT
ATOM      1  O   UNL     1      -4.074  -0.143  25.419  0.00  0.00    -0.366 OA
ATOM     11  C   UNL     1      -4.545   0.000  24.059  0.00  0.00    +0.159 C 
ATOM     12  C   UNL     1      -4.333  -1.353  23.388  0.00  0.00    +0.175 C 
ATOM     13  C   UNL     1      -3.148  -1.903  24.154  0.00  0.00    +0.176 C 
ATOM     14  C   UNL     1      -3.451  -1.432  25.566  0.00  0.00    +0.167 C 
ENDROOT
BRANCH  12   2
ATOM      2  O   UNL     1      -5.491  -2.152  23.627  0.00  0.00    -0.387 OA
ATOM     35  H   UNL     1      -5.977  -2.219  22.788  0.00  0.00    +0.210 HD
ENDBRANCH  12   2
BRANCH  13   3
ATOM      3  O   UNL     1      -3.036  -3.309  24.079  0.00  0.00    -0.387 OA
ATOM     36  H   UNL     1      -2.710  -3.527  23.188  0.00  0.00    +0.210 HD
ENDBRANCH  13   3
BRANCH  11  15
ATOM     15  C   UNL     1      -3.747   1.120  23.405  0.00  0.00    +0.130 C 
BRANCH  15  17
ATOM      4  O   UNL     1      -4.631   3.122  24.328  0.00  0.00    -0.276 OA
ATOM      7  N   UNL     1      -2.559   2.433  25.123  0.00  0.00    -0.298 N 
ATOM      8  N   UNL     1      -0.350   2.658  26.980  0.00  0.00    -0.312 N 
ATOM     10  N   UNL     1       1.963   2.829  27.428  0.00  0.00    -0.240 NA
ATOM     17  C   UNL     1      -3.696   2.317  24.323  0.00  0.00    +0.218 C 
ATOM     18  C   UNL     1      -2.433   3.568  26.035  0.00  0.00    +0.126 C 
ATOM     19  C   UNL     1      -1.455   1.471  25.125  0.00  0.00    +0.126 C 
ATOM     20  C   UNL     1      -1.673   3.197  27.306  0.00  0.00    +0.125 C 
ATOM     21  C   UNL     1      -0.151   2.067  25.654  0.00  0.00    +0.125 C 
ATOM     22  C   UNL     1       0.697   2.741  27.895  0.00  0.00    +0.121 A 
ATOM     24  C   UNL     1       0.366   2.726  29.240  0.00  0.00    +0.043 A 
ATOM     26  C   UNL     1       1.400   2.808  30.166  0.00  0.00    +0.005 A 
ATOM     27  C   UNL     1       2.942   2.906  28.357  0.00  0.00    +0.113 A 
ATOM     30  C   UNL     1       2.716   2.900  29.724  0.00  0.00    +0.020 A 
ENDBRANCH  15  17
ENDBRANCH  11  15
BRANCH  14  16
ATOM     16  C   UNL     1      -2.215  -1.305  26.438  0.00  0.00    +0.138 C 
BRANCH  16   9
ATOM      5  O   UNL     1      -0.418  -3.051  25.038  0.00  0.00    -0.270 OA
ATOM      9  N   UNL     1      -1.073  -0.915  25.664  0.00  0.00    -0.309 N 
ATOM     23  C   UNL     1      -0.252  -1.834  25.016  0.00  0.00    +0.244 C 
ATOM     37  H   UNL     1      -0.909   0.080  25.559  0.00  0.00    +0.149 HD
BRANCH  23  25
ATOM     25  C   UNL     1       0.908  -1.273  24.277  0.00  0.00    +0.037 A 
ATOM     28  C   UNL     1       0.720  -0.217  23.384  0.00  0.00    +0.016 A 
ATOM     29  C   UNL     1       2.183  -1.801  24.475  0.00  0.00    +0.016 A 
ATOM     31  C   UNL     1       1.809   0.309  22.689  0.00  0.00    +0.046 A 
ATOM     32  C   UNL     1       3.272  -1.273  23.781  0.00  0.00    +0.046 A 
ATOM     33  C   UNL     1       3.085  -0.218  22.888  0.00  0.00    +0.120 A 
BRANCH  33   6
ATOM      6  O   UNL     1       4.148   0.295  22.209  0.00  0.00    -0.495 OA
ATOM     34  C   UNL     1       5.386   0.384  22.913  0.00  0.00    +0.277 C 
ENDBRANCH  33   6
ENDBRANCH  23  25
ENDBRANCH  16   9
ENDBRANCH  14  16
TORSDOF 8
ENDMDL
MODEL 7
REMARK VINA RESULT:       8.6      2.561      6.469
REMARK  Name = 26744680
REMARK  9 active torsions:
REMARK  status: ('A' for Active; 'I' for Inactive)
REMARK    1  A    between atoms: O_2  and  C_12
REMARK    2  A    between atoms: O_3  and  C_13
REMARK    3  A    between atoms: O_6  and  C_33
REMARK    4  A    between atoms: O_6  and  C_34
REMARK    5  A    between atoms: N_9  and  C_16
REMARK    6  A    between atoms: C_11  and  C_15
REMARK    7  A    between atoms: C_14  and  C_16
REMARK    8  A    between atoms: C_15  and  C_17
REMARK    9  A    between atoms: C_23  and  C_25
REMARK                            x       y       z     vdW  Elec       q    Type
REMARK                         _______ _______ _______ _____ _____    ______ ____
ROOT
ATOM      1  O   UNL     1      -1.286  -3.185  23.638  0.00  0.00    -0.366 OA
ATOM     11  C   UNL     1      -0.033  -2.475  23.765  0.00  0.00    +0.159 C 
ATOM     12  C   UNL     1      -0.068  -1.782  25.123  0.00  0.00    +0.175 C 
ATOM     13  C   UNL     1      -1.553  -1.560  25.325  0.00  0.00    +0.176 C 
ATOM     14  C   UNL     1      -2.134  -2.840  24.749  0.00  0.00    +0.167 C 
ENDROOT
BRANCH  12   2
ATOM      2  O   UNL     1       0.434  -2.693  26.099  0.00  0.00    -0.387 OA
ATOM     35  H   UNL     1       0.881  -2.168  26.785  0.00  0.00    +0.210 HD
ENDBRANCH  12   2
BRANCH  13   3
ATOM      3  O   UNL     1      -1.913  -1.378  26.678  0.00  0.00    -0.387 OA
ATOM     36  H   UNL     1      -1.462  -0.575  26.994  0.00  0.00    +0.210 HD
ENDBRANCH  13   3
BRANCH  11  15
ATOM     15  C   UNL     1       0.070  -1.500  22.601  0.00  0.00    +0.130 C 
BRANCH  15  17
ATOM      4  O   UNL     1       2.117  -0.305  22.751  0.00  0.00    -0.276 OA
ATOM      7  N   UNL     1       0.238   0.729  23.645  0.00  0.00    -0.298 N 
ATOM      8  N   UNL     1      -1.087   3.031  24.795  0.00  0.00    -0.312 N 
ATOM     10  N   UNL     1      -2.419   4.023  26.474  0.00  0.00    -0.240 NA
ATOM     17  C   UNL     1       0.909  -0.311  23.000  0.00  0.00    +0.218 C 
ATOM     18  C   UNL     1       0.982   1.913  24.068  0.00  0.00    +0.126 C 
ATOM     19  C   UNL     1      -1.199   0.726  23.930  0.00  0.00    +0.126 C 
ATOM     20  C   UNL     1       0.131   3.178  23.994  0.00  0.00    +0.125 C 
ATOM     21  C   UNL     1      -1.578   1.678  25.065  0.00  0.00    +0.125 C 
ATOM     22  C   UNL     1      -1.736   4.149  25.314  0.00  0.00    +0.121 A 
ATOM     24  C   UNL     1      -1.638   5.330  24.596  0.00  0.00    +0.043 A 
ATOM     26  C   UNL     1      -2.281   6.455  25.102  0.00  0.00    +0.005 A 
ATOM     27  C   UNL     1      -3.032   5.137  26.935  0.00  0.00    +0.113 A 
ATOM     30  C   UNL     1      -2.993   6.364  26.293  0.00  0.00    +0.020 A 
ENDBRANCH  15  17
ENDBRANCH  11  15
BRANCH  14  16
ATOM     16  C   UNL     1      -3.566  -2.690  24.269  0.00  0.00    +0.138 C 
BRANCH  16   9
ATOM      5  O   UNL     1      -3.667  -0.272  22.725  0.00  0.00    -0.270 OA
ATOM      9  N   UNL     1      -4.121  -1.433  24.681  0.00  0.00    -0.309 N 
ATOM     23  C   UNL     1      -4.127  -0.307  23.863  0.00  0.00    +0.244 C 
ATOM     37  H   UNL     1      -4.568  -1.407  25.591  0.00  0.00    +0.149 HD
BRANCH  23  25
ATOM     25  C   UNL     1      -4.716   0.926  24.446  0.00  0.00    +0.037 A 
ATOM     28  C   UNL     1      -4.506   2.159  23.828  0.00  0.00    +0.016 A 
ATOM     29  C   UNL     1      -5.479   0.850  25.611  0.00  0.00    +0.016 A 
ATOM     31  C   UNL     1      -5.060   3.316  24.376  0.00  0.00    +0.046 A 
ATOM     32  C   UNL     1      -6.032   2.007  26.159  0.00  0.00    +0.046 A 
ATOM     33  C   UNL     1      -5.823   3.240  25.541  0.00  0.00    +0.120 A 
BRANCH  33   6
ATOM      6  O   UNL     1      -6.361   4.370  26.078  0.00  0.00    -0.495 OA
ATOM     34  C   UNL     1      -6.271   5.564  25.301  0.00  0.00    +0.277 C 
ENDBRANCH  33   6
ENDBRANCH  23  25
ENDBRANCH  16   9
ENDBRANCH  14  16
TORSDOF 8
ENDMDL
MODEL 8
REMARK VINA RESULT:       8.8      2.497      4.754
REMARK  Name = 26744680
REMARK  9 active torsions:
REMARK  status: ('A' for Active; 'I' for Inactive)
REMARK    1  A    between atoms: O_2  and  C_12
REMARK    2  A    between atoms: O_3  and  C_13
REMARK    3  A    between atoms: O_6  and  C_33
REMARK    4  A    between atoms: O_6  and  C_34
REMARK    5  A    between atoms: N_9  and  C_16
REMARK    6  A    between atoms: C_11  and  C_15
REMARK    7  A    between atoms: C_14  and  C_16
REMARK    8  A    between atoms: C_15  and  C_17
REMARK    9  A    between atoms: C_23  and  C_25
REMARK                            x       y       z     vdW  Elec       q    Type
REMARK                         _______ _______ _______ _____ _____    ______ ____
ROOT
ATOM      1  O   UNL     1      -3.625   2.380  25.484  0.00  0.00    -0.366 OA
ATOM     11  C   UNL     1      -2.961   3.570  24.999  0.00  0.00    +0.159 C 
ATOM     12  C   UNL     1      -3.902   4.734  25.288  0.00  0.00    +0.175 C 
ATOM     13  C   UNL     1      -5.258   4.062  25.243  0.00  0.00    +0.176 C 
ATOM     14  C   UNL     1      -4.959   2.725  25.899  0.00  0.00    +0.167 C 
ENDROOT
BRANCH  12   2
ATOM      2  O   UNL     1      -3.628   5.208  26.606  0.00  0.00    -0.387 OA
ATOM     35  H   UNL     1      -3.218   4.477  27.099  0.00  0.00    +0.210 HD
ENDBRANCH  12   2
BRANCH  13   3
ATOM      3  O   UNL     1      -6.261   4.777  25.933  0.00  0.00    -0.387 OA
ATOM     36  H   UNL     1      -7.036   4.833  25.347  0.00  0.00    +0.210 HD
ENDBRANCH  13   3
BRANCH  11  15
ATOM     15  C   UNL     1      -2.690   3.378  23.513  0.00  0.00    +0.130 C 
BRANCH  15  17
ATOM      4  O   UNL     1      -3.193   1.126  22.949  0.00  0.00    -0.276 OA
ATOM      7  N   UNL     1      -0.959   1.628  23.347  0.00  0.00    -0.298 N 
ATOM      8  N   UNL     1       1.846   0.914  23.326  0.00  0.00    -0.312 N 
ATOM     10  N   UNL     1       3.944   0.750  24.398  0.00  0.00    -0.240 NA
ATOM     17  C   UNL     1      -2.315   1.942  23.241  0.00  0.00    +0.218 C 
ATOM     18  C   UNL     1      -0.516   0.257  23.103  0.00  0.00    +0.126 C 
ATOM     19  C   UNL     1       0.084   2.600  23.683  0.00  0.00    +0.126 C 
ATOM     20  C   UNL     1       0.878   0.210  22.481  0.00  0.00    +0.125 C 
ATOM     21  C   UNL     1       1.347   1.943  24.241  0.00  0.00    +0.125 C 
ATOM     22  C   UNL     1       3.199   0.586  23.282  0.00  0.00    +0.121 A 
ATOM     24  C   UNL     1       3.697   0.108  22.081  0.00  0.00    +0.043 A 
ATOM     26  C   UNL     1       5.046  -0.224  22.021  0.00  0.00    +0.005 A 
ATOM     27  C   UNL     1       5.251   0.418  24.303  0.00  0.00    +0.113 A 
ATOM     30  C   UNL     1       5.844  -0.069  23.149  0.00  0.00    +0.020 A 
ENDBRANCH  15  17
ENDBRANCH  11  15
BRANCH  14  16
ATOM     16  C   UNL     1      -5.921   1.624  25.490  0.00  0.00    +0.138 C 
BRANCH  16   9
ATOM      5  O   UNL     1      -4.287  -0.265  26.905  0.00  0.00    -0.270 OA
ATOM      9  N   UNL     1      -5.220   0.507  24.926  0.00  0.00    -0.309 N 
ATOM     23  C   UNL     1      -4.447  -0.362  25.691  0.00  0.00    +0.244 C 
ATOM     37  H   UNL     1      -5.354   0.337  23.936  0.00  0.00    +0.149 HD
BRANCH  23  25
ATOM     25  C   UNL     1      -3.763  -1.456  24.953  0.00  0.00    +0.037 A 
ATOM     28  C   UNL     1      -2.427  -1.750  25.224  0.00  0.00    +0.016 A 
ATOM     29  C   UNL     1      -4.458  -2.186  23.989  0.00  0.00    +0.016 A 
ATOM     31  C   UNL     1      -1.786  -2.777  24.531  0.00  0.00    +0.046 A 
ATOM     32  C   UNL     1      -3.816  -3.212  23.296  0.00  0.00    +0.046 A 
ATOM     33  C   UNL     1      -2.480  -3.508  23.567  0.00  0.00    +0.120 A 
BRANCH  33   6
ATOM      6  O   UNL     1      -1.854  -4.509  22.889  0.00  0.00    -0.495 OA
ATOM     34  C   UNL     1      -0.627  -4.182  22.237  0.00  0.00    +0.277 C 
ENDBRANCH  33   6
ENDBRANCH  23  25
ENDBRANCH  16   9
ENDBRANCH  14  16
TORSDOF 8
ENDMDL
MODEL 9
REMARK VINA RESULT:       8.8      2.593      5.491
REMARK  Name = 26744680
REMARK  9 active torsions:
REMARK  status: ('A' for Active; 'I' for Inactive)
REMARK    1  A    between atoms: O_2  and  C_12
REMARK    2  A    between atoms: O_3  and  C_13
REMARK    3  A    between atoms: O_6  and  C_33
REMARK    4  A    between atoms: O_6  and  C_34
REMARK    5  A    between atoms: N_9  and  C_16
REMARK    6  A    between atoms: C_11  and  C_15
REMARK    7  A    between atoms: C_14  and  C_16
REMARK    8  A    between atoms: C_15  and  C_17
REMARK    9  A    between atoms: C_23  and  C_25
REMARK                            x       y       z     vdW  Elec       q    Type
REMARK                         _______ _______ _______ _____ _____    ______ ____
ROOT
ATOM      1  O   UNL     1      -2.472   5.808  25.254  0.00  0.00    -0.366 OA
ATOM     11  C   UNL     1      -3.586   5.215  25.960  0.00  0.00    +0.159 C 
ATOM     12  C   UNL     1      -3.032   3.997  26.691  0.00  0.00    +0.175 C 
ATOM     13  C   UNL     1      -1.876   3.593  25.799  0.00  0.00    +0.176 C 
ATOM     14  C   UNL     1      -1.326   4.946  25.381  0.00  0.00    +0.167 C 
ENDROOT
BRANCH  12   2
ATOM      2  O   UNL     1      -2.550   4.425  27.963  0.00  0.00    -0.387 OA
ATOM     35  H   UNL     1      -3.275   4.899  28.405  0.00  0.00    +0.210 HD
ENDBRANCH  12   2
BRANCH  13   3
ATOM      3  O   UNL     1      -0.906   2.809  26.461  0.00  0.00    -0.387 OA
ATOM     36  H   UNL     1      -1.368   2.054  26.866  0.00  0.00    +0.210 HD
ENDBRANCH  13   3
BRANCH  11  15
ATOM     15  C   UNL     1      -4.651   4.860  24.931  0.00  0.00    +0.130 C 
BRANCH  15  17
ATOM      4  O   UNL     1      -6.552   3.915  25.997  0.00  0.00    -0.276 OA
ATOM      7  N   UNL     1      -4.951   2.427  25.209  0.00  0.00    -0.298 N 
ATOM      8  N   UNL     1      -4.059  -0.262  24.615  0.00  0.00    -0.312 N 
ATOM     10  N   UNL     1      -2.446  -1.982  24.756  0.00  0.00    -0.240 NA
ATOM     17  C   UNL     1      -5.478   3.700  25.430  0.00  0.00    +0.218 C 
ATOM     18  C   UNL     1      -5.690   1.252  25.667  0.00  0.00    +0.126 C 
ATOM     19  C   UNL     1      -3.681   2.172  24.525  0.00  0.00    +0.126 C 
ATOM     20  C   UNL     1      -5.484   0.053  24.744  0.00  0.00    +0.125 C 
ATOM     21  C   UNL     1      -3.088   0.805  24.869  0.00  0.00    +0.125 C 
ATOM     22  C   UNL     1      -3.642  -1.552  24.294  0.00  0.00    +0.121 A 
ATOM     24  C   UNL     1      -4.492  -2.317  23.512  0.00  0.00    +0.043 A 
ATOM     26  C   UNL     1      -4.090  -3.607  23.183  0.00  0.00    +0.005 A 
ATOM     27  C   UNL     1      -2.088  -3.241  24.415  0.00  0.00    +0.113 A 
ATOM     30  C   UNL     1      -2.866  -4.085  23.640  0.00  0.00    +0.020 A 
ENDBRANCH  15  17
ENDBRANCH  11  15
BRANCH  14  16
ATOM     16  C   UNL     1      -0.569   4.908  24.066  0.00  0.00    +0.138 C 
BRANCH  16   9
ATOM      5  O   UNL     1      -1.177   2.414  22.782  0.00  0.00    -0.270 OA
ATOM      9  N   UNL     1       0.280   3.756  23.989  0.00  0.00    -0.309 N 
ATOM     23  C   UNL     1      -0.098   2.581  23.343  0.00  0.00    +0.244 C 
ATOM     37  H   UNL     1       1.209   3.845  24.386  0.00  0.00    +0.149 HD
BRANCH  23  25
ATOM     25  C   UNL     1       0.885   1.468  23.375  0.00  0.00    +0.037 A 
ATOM     28  C   UNL     1       0.455   0.167  23.636  0.00  0.00    +0.016 A 
ATOM     29  C   UNL     1       2.237   1.725  23.146  0.00  0.00    +0.016 A 
ATOM     31  C   UNL     1       1.379  -0.878  23.666  0.00  0.00    +0.046 A 
ATOM     32  C   UNL     1       3.159   0.680  23.176  0.00  0.00    +0.046 A 
ATOM     33  C   UNL     1       2.731  -0.622  23.436  0.00  0.00    +0.120 A 
BRANCH  33   6
ATOM      6  O   UNL     1       3.633  -1.642  23.467  0.00  0.00    -0.495 OA
ATOM     34  C   UNL     1       4.947  -1.332  23.928  0.00  0.00    +0.277 C 
ENDBRANCH  33   6
ENDBRANCH  23  25
ENDBRANCH  16   9
ENDBRANCH  14  16
TORSDOF 8
ENDMDL
