MODEL 1
REMARK VINA RESULT:       2.1      0.000      0.000
REMARK  Name = 7051670
REMARK  5 active torsions:
REMARK  status: ('A' for Active; 'I' for Inactive)
REMARK    1  A    between atoms: N_3  and  C_14
REMARK    2  A    between atoms: N_5  and  C_25
REMARK    3  A    between atoms: N_6  and  C_18
REMARK    4  A    between atoms: C_14  and  C_17
REMARK    5  A    between atoms: C_27  and  C_29
REMARK                            x       y       z     vdW  Elec       q    Type
REMARK                         _______ _______ _______ _____ _____    ______ ____
ROOT
ATOM      1  O   UNL     1       0.529   2.382  26.242  0.00  0.00    -0.266 OA
ATOM      3  N   UNL     1      -4.353   1.942  25.191  0.00  0.00    -0.297 NA
ATOM      4  N   UNL     1      -1.378   3.091  25.091  0.00  0.00    -0.310 N 
ATOM      7  C   UNL     1      -3.454   4.016  26.273  0.00  0.00    +0.024 C 
ATOM      8  C   UNL     1      -3.431   3.826  23.833  0.00  0.00    +0.050 C 
ATOM      9  C   UNL     1      -3.656   4.802  24.984  0.00  0.00    +0.017 C 
ATOM     10  C   UNL     1      -4.457   2.846  26.343  0.00  0.00    +0.090 C 
ATOM     11  C   UNL     1      -4.461   2.676  23.921  0.00  0.00    +0.094 C 
ATOM     12  C   UNL     1      -1.994   3.548  26.344  0.00  0.00    +0.130 C 
ATOM     13  C   UNL     1      -2.017   3.276  23.860  0.00  0.00    +0.026 A 
ATOM     15  C   UNL     1      -1.390   2.952  22.718  0.00  0.00    +0.024 A 
ATOM     16  C   UNL     1      -0.080   2.550  25.183  0.00  0.00    +0.273 A 
ATOM     18  C   UNL     1       0.576   2.179  23.888  0.00  0.00    +0.099 A 
ATOM     19  C   UNL     1      -0.068   2.391  22.735  0.00  0.00    +0.030 A 
ENDROOT
BRANCH  18   6
ATOM      2  O   UNL     1       1.440  -0.195  22.562  0.00  0.00    -0.270 OA
ATOM      6  N   UNL     1       1.828   1.642  23.935  0.00  0.00    -0.277 N 
ATOM     27  C   UNL     1       2.188   0.480  23.266  0.00  0.00    +0.248 C 
ATOM     35  H   UNL     1       2.452   2.063  24.615  0.00  0.00    +0.155 HD
BRANCH  27  29
ATOM     29  C   UNL     1       3.604   0.061  23.419  0.00  0.00    +0.037 A 
ATOM     30  C   UNL     1       3.878  -1.248  23.759  0.00  0.00    +0.013 A 
ATOM     31  C   UNL     1       4.600   0.992  23.216  0.00  0.00    +0.013 A 
ATOM     32  C   UNL     1       5.208  -1.642  23.903  0.00  0.00    +0.001 A 
ATOM     33  C   UNL     1       5.931   0.599  23.359  0.00  0.00    +0.001 A 
ATOM     34  C   UNL     1       6.235  -0.719  23.703  0.00  0.00    +0.000 A 
ENDBRANCH  27  29
ENDBRANCH  18   6
BRANCH   3  14
ATOM     14  C   UNL     1      -5.352   0.879  25.267  0.00  0.00    +0.121 C 
BRANCH  14  17
ATOM      5  N   UNL     1      -4.581  -2.411  23.882  0.00  0.00    -0.349 N 
ATOM     17  C   UNL     1      -4.771  -0.425  24.799  0.00  0.00    -0.008 A 
ATOM     20  C   UNL     1      -3.441  -0.846  24.990  0.00  0.00    +0.004 A 
ATOM     21  C   UNL     1      -5.456  -1.386  24.122  0.00  0.00    +0.091 A 
ATOM     22  C   UNL     1      -3.341  -2.107  24.400  0.00  0.00    +0.049 A 
ATOM     23  C   UNL     1      -2.299  -0.292  25.603  0.00  0.00    +0.010 A 
ATOM     24  C   UNL     1      -2.153  -2.846  24.393  0.00  0.00    +0.026 A 
ATOM     25  C   UNL     1      -4.923  -3.628  23.180  0.00  0.00    +0.149 C 
ATOM     26  C   UNL     1      -1.103  -1.020  25.604  0.00  0.00    +0.001 A 
ATOM     28  C   UNL     1      -1.034  -2.277  25.007  0.00  0.00    +0.002 A 
ENDBRANCH  14  17
ENDBRANCH   3  14
TORSDOF 4
ENDMDL
