MODEL 1
REMARK VINA RESULT:       3.5      0.000      0.000
REMARK  Name = 45361451
REMARK  16 active torsions:
REMARK  status: ('A' for Active; 'I' for Inactive)
REMARK    1  A    between atoms: O_1  and  C_11
REMARK    2  A    between atoms: O_4  and  C_32
REMARK    3  A    between atoms: O_4  and  C_34
REMARK    4  A    between atoms: O_5  and  C_33
REMARK    5  A    between atoms: O_5  and  C_35
REMARK    6  A    between atoms: N_6  and  C_15
REMARK    7  A    between atoms: N_7  and  C_29
REMARK    8  A    between atoms: N_7  and  C_30
REMARK    9  A    between atoms: C_8  and  C_18
REMARK   10  A    between atoms: C_10  and  C_20
REMARK   11  A    between atoms: C_14  and  C_19
REMARK   12  A    between atoms: C_19  and  C_21
REMARK   13  A    between atoms: C_19  and  C_22
REMARK   14  A    between atoms: C_23  and  C_24
REMARK   15  A    between atoms: C_29  and  C_32
REMARK   16  A    between atoms: C_30  and  C_33
REMARK                            x       y       z     vdW  Elec       q    Type
REMARK                         _______ _______ _______ _____ _____    ______ ____
ROOT
ATOM      8  C   UNL     1      -2.064  -0.950  25.177  0.00  0.00    -0.027 C 
ATOM      9  C   UNL     1      -2.187   0.050  23.979  0.00  0.00    +0.028 C 
ATOM     10  C   UNL     1      -0.778   0.348  23.353  0.00  0.00    +0.012 C 
ATOM     11  C   UNL     1      -3.022   1.302  24.375  0.00  0.00    +0.122 C 
ATOM     12  C   UNL     1      -3.476  -1.310  25.696  0.00  0.00    +0.007 C 
ATOM     13  C   UNL     1      -1.401  -2.254  24.677  0.00  0.00    +0.009 C 
ATOM     14  C   UNL     1      -4.392   0.934  24.990  0.00  0.00    +0.029 C 
ATOM     15  C   UNL     1      -0.089  -0.977  22.923  0.00  0.00    +0.076 C 
ATOM     16  C   UNL     1      -4.281  -0.089  26.122  0.00  0.00    +0.007 C 
ATOM     17  C   UNL     1      -0.040  -2.024  24.035  0.00  0.00    +0.023 C 
ATOM     18  C   UNL     1      -1.234  -0.371  26.351  0.00  0.00    +0.011 C 
ATOM     20  C   UNL     1      -0.829   1.306  22.150  0.00  0.00    +0.010 C 
ENDROOT
BRANCH  15   6
ATOM      3  O   UNL     1       1.803   1.011  23.872  0.00  0.00    -0.276 OA
ATOM      6  N   UNL     1       1.260  -0.749  22.449  0.00  0.00    -0.312 N 
ATOM     23  C   UNL     1       2.088   0.229  22.969  0.00  0.00    +0.216 C 
ATOM     36  H   UNL     1       1.583  -1.308  21.665  0.00  0.00    +0.149 HD
BRANCH  23  24
ATOM     24  C   UNL     1       3.440   0.233  22.315  0.00  0.00    +0.075 C 
ATOM     25  C   UNL     1       4.334   1.325  22.908  0.00  0.00    +0.013 C 
ATOM     26  C   UNL     1       4.070  -1.159  22.399  0.00  0.00    +0.013 C 
ATOM     27  C   UNL     1       4.895   0.970  24.284  0.00  0.00    +0.001 C 
ATOM     28  C   UNL     1       4.618  -1.484  23.788  0.00  0.00    +0.001 C 
ATOM     31  C   UNL     1       5.565  -0.400  24.288  0.00  0.00    +0.000 C 
ENDBRANCH  23  24
ENDBRANCH  15   6
BRANCH  11   1
ATOM      1  O   UNL     1      -3.295   2.081  23.209  0.00  0.00    -0.391 OA
ATOM     37  H   UNL     1      -3.058   1.551  22.428  0.00  0.00    +0.210 HD
ENDBRANCH  11   1
BRANCH  14  19
ATOM     19  C   UNL     1      -5.142   2.174  25.493  0.00  0.00    +0.078 C 
ATOM     21  C   UNL     1      -6.635   2.021  25.199  0.00  0.00    +0.017 C 
BRANCH  19  22
ATOM      2  O   UNL     1      -5.128   3.880  23.813  0.00  0.00    -0.275 OA
ATOM      7  N   UNL     1      -3.428   4.004  25.377  0.00  0.00    -0.297 N 
ATOM     22  C   UNL     1      -4.576   3.428  24.822  0.00  0.00    +0.219 C 
BRANCH   7  29
ATOM     29  C   UNL     1      -2.736   3.555  26.583  0.00  0.00    +0.136 C 
BRANCH  29  32
ATOM     32  C   UNL     1      -1.473   2.782  26.246  0.00  0.00    +0.178 C 
BRANCH  32   4
ATOM      4  O   UNL     1      -0.606   2.781  27.373  0.00  0.00    -0.381 OA
ATOM     34  C   UNL     1       0.749   2.600  26.988  0.00  0.00    +0.194 C 
ENDBRANCH  32   4
ENDBRANCH  29  32
ENDBRANCH   7  29
BRANCH   7  30
ATOM     30  C   UNL     1      -2.851   5.187  24.749  0.00  0.00    +0.136 C 
BRANCH  30  33
ATOM     33  C   UNL     1      -1.472   5.496  25.302  0.00  0.00    +0.178 C 
BRANCH  33   5
ATOM      5  O   UNL     1      -0.523   5.471  24.245  0.00  0.00    -0.381 OA
ATOM     35  C   UNL     1      -0.223   4.141  23.844  0.00  0.00    +0.194 C 
ENDBRANCH  33   5
ENDBRANCH  30  33
ENDBRANCH   7  30
ENDBRANCH  19  22
ENDBRANCH  14  19
TORSDOF 11
ENDMDL
MODEL 2
REMARK VINA RESULT:       5.5      1.112      1.485
REMARK  Name = 45361451
REMARK  16 active torsions:
REMARK  status: ('A' for Active; 'I' for Inactive)
REMARK    1  A    between atoms: O_1  and  C_11
REMARK    2  A    between atoms: O_4  and  C_32
REMARK    3  A    between atoms: O_4  and  C_34
REMARK    4  A    between atoms: O_5  and  C_33
REMARK    5  A    between atoms: O_5  and  C_35
REMARK    6  A    between atoms: N_6  and  C_15
REMARK    7  A    between atoms: N_7  and  C_29
REMARK    8  A    between atoms: N_7  and  C_30
REMARK    9  A    between atoms: C_8  and  C_18
REMARK   10  A    between atoms: C_10  and  C_20
REMARK   11  A    between atoms: C_14  and  C_19
REMARK   12  A    between atoms: C_19  and  C_21
REMARK   13  A    between atoms: C_19  and  C_22
REMARK   14  A    between atoms: C_23  and  C_24
REMARK   15  A    between atoms: C_29  and  C_32
REMARK   16  A    between atoms: C_30  and  C_33
REMARK                            x       y       z     vdW  Elec       q    Type
REMARK                         _______ _______ _______ _____ _____    ______ ____
ROOT
ATOM      8  C   UNL     1      -1.951  -1.232  25.391  0.00  0.00    -0.027 C 
ATOM      9  C   UNL     1      -2.209  -0.138  24.302  0.00  0.00    +0.028 C 
ATOM     10  C   UNL     1      -0.861   0.314  23.634  0.00  0.00    +0.012 C 
ATOM     11  C   UNL     1      -3.097   1.011  24.859  0.00  0.00    +0.122 C 
ATOM     12  C   UNL     1      -3.303  -1.736  25.948  0.00  0.00    +0.007 C 
ATOM     13  C   UNL     1      -1.235  -2.436  24.736  0.00  0.00    +0.009 C 
ATOM     14  C   UNL     1      -4.402   0.494  25.508  0.00  0.00    +0.029 C 
ATOM     15  C   UNL     1      -0.113  -0.915  23.045  0.00  0.00    +0.076 C 
ATOM     16  C   UNL     1      -4.159  -0.618  26.529  0.00  0.00    +0.007 C 
ATOM     17  C   UNL     1       0.068  -2.054  24.048  0.00  0.00    +0.023 C 
ATOM     18  C   UNL     1      -1.092  -0.706  26.570  0.00  0.00    +0.011 C 
ATOM     20  C   UNL     1      -1.044   1.371  22.532  0.00  0.00    +0.010 C 
ENDROOT
BRANCH  15   6
ATOM      3  O   UNL     1       1.697   1.107  24.076  0.00  0.00    -0.276 OA
ATOM      6  N   UNL     1       1.187  -0.552  22.524  0.00  0.00    -0.312 N 
ATOM     23  C   UNL     1       1.979   0.431  23.090  0.00  0.00    +0.216 C 
ATOM     36  H   UNL     1       1.500  -1.013  21.675  0.00  0.00    +0.149 HD
BRANCH  23  24
ATOM     24  C   UNL     1       3.287   0.590  22.369  0.00  0.00    +0.075 C 
ATOM     25  C   UNL     1       4.209   1.560  23.110  0.00  0.00    +0.013 C 
ATOM     26  C   UNL     1       3.930  -0.780  22.139  0.00  0.00    +0.013 C 
ATOM     27  C   UNL     1       4.859   0.952  24.353  0.00  0.00    +0.001 C 
ATOM     28  C   UNL     1       4.567  -1.362  23.401  0.00  0.00    +0.001 C 
ATOM     31  C   UNL     1       5.536  -0.379  24.047  0.00  0.00    +0.000 C 
ENDBRANCH  23  24
ENDBRANCH  15   6
BRANCH  11   1
ATOM      1  O   UNL     1      -3.488   1.873  23.788  0.00  0.00    -0.391 OA
ATOM     37  H   UNL     1      -2.908   1.694  23.028  0.00  0.00    +0.210 HD
ENDBRANCH  11   1
BRANCH  14  19
ATOM     19  C   UNL     1      -5.200   1.627  26.164  0.00  0.00    +0.078 C 
ATOM     21  C   UNL     1      -6.554   1.094  26.631  0.00  0.00    +0.017 C 
BRANCH  19  22
ATOM      2  O   UNL     1      -6.201   2.673  24.256  0.00  0.00    -0.275 OA
ATOM      7  N   UNL     1      -4.568   3.910  25.332  0.00  0.00    -0.297 N 
ATOM     22  C   UNL     1      -5.376   2.779  25.171  0.00  0.00    +0.219 C 
BRANCH   7  29
ATOM     29  C   UNL     1      -3.597   4.129  26.402  0.00  0.00    +0.136 C 
BRANCH  29  32
ATOM     32  C   UNL     1      -2.210   4.403  25.848  0.00  0.00    +0.178 C 
BRANCH  32   4
ATOM      4  O   UNL     1      -1.598   3.174  25.480  0.00  0.00    -0.381 OA
ATOM     34  C   UNL     1      -0.330   3.017  26.102  0.00  0.00    +0.194 C 
ENDBRANCH  32   4
ENDBRANCH  29  32
ENDBRANCH   7  29
BRANCH   7  30
ATOM     30  C   UNL     1      -4.696   5.015  24.390  0.00  0.00    +0.136 C 
BRANCH  30  33
ATOM     33  C   UNL     1      -3.680   4.911  23.266  0.00  0.00    +0.178 C 
BRANCH  33   5
ATOM      5  O   UNL     1      -3.896   3.705  22.546  0.00  0.00    -0.381 OA
ATOM     35  C   UNL     1      -4.205   3.961  21.182  0.00  0.00    +0.194 C 
ENDBRANCH  33   5
ENDBRANCH  30  33
ENDBRANCH   7  30
ENDBRANCH  19  22
ENDBRANCH  14  19
TORSDOF 11
ENDMDL
MODEL 3
REMARK VINA RESULT:       6.2      0.866      1.734
REMARK  Name = 45361451
REMARK  16 active torsions:
REMARK  status: ('A' for Active; 'I' for Inactive)
REMARK    1  A    between atoms: O_1  and  C_11
REMARK    2  A    between atoms: O_4  and  C_32
REMARK    3  A    between atoms: O_4  and  C_34
REMARK    4  A    between atoms: O_5  and  C_33
REMARK    5  A    between atoms: O_5  and  C_35
REMARK    6  A    between atoms: N_6  and  C_15
REMARK    7  A    between atoms: N_7  and  C_29
REMARK    8  A    between atoms: N_7  and  C_30
REMARK    9  A    between atoms: C_8  and  C_18
REMARK   10  A    between atoms: C_10  and  C_20
REMARK   11  A    between atoms: C_14  and  C_19
REMARK   12  A    between atoms: C_19  and  C_21
REMARK   13  A    between atoms: C_19  and  C_22
REMARK   14  A    between atoms: C_23  and  C_24
REMARK   15  A    between atoms: C_29  and  C_32
REMARK   16  A    between atoms: C_30  and  C_33
REMARK                            x       y       z     vdW  Elec       q    Type
REMARK                         _______ _______ _______ _____ _____    ______ ____
ROOT
ATOM      8  C   UNL     1      -2.015  -0.645  25.049  0.00  0.00    -0.027 C 
ATOM      9  C   UNL     1      -2.094   0.115  23.683  0.00  0.00    +0.028 C 
ATOM     10  C   UNL     1      -0.657   0.381  23.107  0.00  0.00    +0.012 C 
ATOM     11  C   UNL     1      -3.016   1.364  23.786  0.00  0.00    +0.122 C 
ATOM     12  C   UNL     1      -3.443  -0.991  25.531  0.00  0.00    +0.007 C 
ATOM     13  C   UNL     1      -1.253  -1.974  24.843  0.00  0.00    +0.009 C 
ATOM     14  C   UNL     1      -4.410   1.029  24.366  0.00  0.00    +0.029 C 
ATOM     15  C   UNL     1       0.126  -0.955  22.975  0.00  0.00    +0.076 C 
ATOM     16  C   UNL     1      -4.336   0.235  25.671  0.00  0.00    +0.007 C 
ATOM     17  C   UNL     1       0.140  -1.780  24.261  0.00  0.00    +0.023 C 
ATOM     18  C   UNL     1      -1.305   0.186  26.150  0.00  0.00    +0.011 C 
ATOM     20  C   UNL     1      -0.662   1.102  21.748  0.00  0.00    +0.010 C 
ENDROOT
BRANCH  15   6
ATOM      3  O   UNL     1       1.887   1.211  23.775  0.00  0.00    -0.276 OA
ATOM      6  N   UNL     1       1.495  -0.734  22.557  0.00  0.00    -0.312 N 
ATOM     23  C   UNL     1       2.255   0.334  22.997  0.00  0.00    +0.216 C 
ATOM     36  H   UNL     1       1.886  -1.373  21.871  0.00  0.00    +0.149 HD
BRANCH  23  24
ATOM     24  C   UNL     1       3.645   0.311  22.431  0.00  0.00    +0.075 C 
ATOM     25  C   UNL     1       4.551   1.309  23.156  0.00  0.00    +0.013 C 
ATOM     26  C   UNL     1       4.199  -1.115  22.450  0.00  0.00    +0.013 C 
ATOM     27  C   UNL     1       5.003   0.827  24.534  0.00  0.00    +0.001 C 
ATOM     28  C   UNL     1       4.638  -1.567  23.843  0.00  0.00    +0.001 C 
ATOM     31  C   UNL     1       5.602  -0.573  24.479  0.00  0.00    +0.000 C 
ENDBRANCH  23  24
ENDBRANCH  15   6
BRANCH  11   1
ATOM      1  O   UNL     1      -3.236   1.903  22.481  0.00  0.00    -0.391 OA
ATOM     37  H   UNL     1      -3.227   1.167  21.844  0.00  0.00    +0.210 HD
ENDBRANCH  11   1
BRANCH  14  19
ATOM     19  C   UNL     1      -5.254   2.291  24.581  0.00  0.00    +0.078 C 
ATOM     21  C   UNL     1      -5.073   3.235  23.392  0.00  0.00    +0.017 C 
BRANCH  19  22
ATOM      2  O   UNL     1      -5.525   2.794  26.907  0.00  0.00    -0.275 OA
ATOM      7  N   UNL     1      -3.712   3.792  25.873  0.00  0.00    -0.297 N 
ATOM     22  C   UNL     1      -4.845   2.971  25.890  0.00  0.00    +0.219 C 
BRANCH   7  29
ATOM     29  C   UNL     1      -2.835   4.026  24.728  0.00  0.00    +0.136 C 
BRANCH  29  32
ATOM     32  C   UNL     1      -2.134   5.370  24.828  0.00  0.00    +0.178 C 
BRANCH  32   4
ATOM      4  O   UNL     1      -0.727   5.173  24.777  0.00  0.00    -0.381 OA
ATOM     34  C   UNL     1      -0.385   4.071  23.948  0.00  0.00    +0.194 C 
ENDBRANCH  32   4
ENDBRANCH  29  32
ENDBRANCH   7  29
BRANCH   7  30
ATOM     30  C   UNL     1      -3.308   4.472  27.098  0.00  0.00    +0.136 C 
BRANCH  30  33
ATOM     33  C   UNL     1      -2.176   3.738  27.796  0.00  0.00    +0.178 C 
BRANCH  33   5
ATOM      5  O   UNL     1      -1.425   3.007  26.836  0.00  0.00    -0.381 OA
ATOM     35  C   UNL     1      -0.079   2.826  27.255  0.00  0.00    +0.194 C 
ENDBRANCH  33   5
ENDBRANCH  30  33
ENDBRANCH   7  30
ENDBRANCH  19  22
ENDBRANCH  14  19
TORSDOF 11
ENDMDL
MODEL 4
REMARK VINA RESULT:       6.8      1.550      2.330
REMARK  Name = 45361451
REMARK  16 active torsions:
REMARK  status: ('A' for Active; 'I' for Inactive)
REMARK    1  A    between atoms: O_1  and  C_11
REMARK    2  A    between atoms: O_4  and  C_32
REMARK    3  A    between atoms: O_4  and  C_34
REMARK    4  A    between atoms: O_5  and  C_33
REMARK    5  A    between atoms: O_5  and  C_35
REMARK    6  A    between atoms: N_6  and  C_15
REMARK    7  A    between atoms: N_7  and  C_29
REMARK    8  A    between atoms: N_7  and  C_30
REMARK    9  A    between atoms: C_8  and  C_18
REMARK   10  A    between atoms: C_10  and  C_20
REMARK   11  A    between atoms: C_14  and  C_19
REMARK   12  A    between atoms: C_19  and  C_21
REMARK   13  A    between atoms: C_19  and  C_22
REMARK   14  A    between atoms: C_23  and  C_24
REMARK   15  A    between atoms: C_29  and  C_32
REMARK   16  A    between atoms: C_30  and  C_33
REMARK                            x       y       z     vdW  Elec       q    Type
REMARK                         _______ _______ _______ _____ _____    ______ ____
ROOT
ATOM      8  C   UNL     1      -1.414  -0.946  24.686  0.00  0.00    -0.027 C 
ATOM      9  C   UNL     1      -1.307   0.567  24.301  0.00  0.00    +0.028 C 
ATOM     10  C   UNL     1       0.194   1.027  24.256  0.00  0.00    +0.012 C 
ATOM     11  C   UNL     1      -2.247   1.440  25.181  0.00  0.00    +0.122 C 
ATOM     12  C   UNL     1      -2.893  -1.394  24.611  0.00  0.00    +0.007 C 
ATOM     13  C   UNL     1      -0.616  -1.785  23.661  0.00  0.00    +0.009 C 
ATOM     14  C   UNL     1      -3.706   0.926  25.184  0.00  0.00    +0.029 C 
ATOM     15  C   UNL     1       1.003   0.129  23.279  0.00  0.00    +0.076 C 
ATOM     16  C   UNL     1      -3.810  -0.566  25.502  0.00  0.00    +0.007 C 
ATOM     17  C   UNL     1       0.843  -1.366  23.554  0.00  0.00    +0.023 C 
ATOM     18  C   UNL     1      -0.878  -1.236  26.112  0.00  0.00    +0.011 C 
ATOM     20  C   UNL     1       0.375   2.501  23.856  0.00  0.00    +0.010 C 
ENDROOT
BRANCH  15   6
ATOM      3  O   UNL     1       2.894  -0.085  21.086  0.00  0.00    -0.276 OA
ATOM      6  N   UNL     1       2.415   0.450  23.300  0.00  0.00    -0.312 N 
ATOM     23  C   UNL     1       3.236   0.313  22.196  0.00  0.00    +0.216 C 
ATOM     36  H   UNL     1       2.818   0.742  24.186  0.00  0.00    +0.149 HD
BRANCH  23  24
ATOM     24  C   UNL     1       4.647   0.739  22.483  0.00  0.00    +0.075 C 
ATOM     25  C   UNL     1       4.781   1.267  23.913  0.00  0.00    +0.013 C 
ATOM     26  C   UNL     1       5.615  -0.407  22.182  0.00  0.00    +0.013 C 
ATOM     27  C   UNL     1       4.799   0.163  24.969  0.00  0.00    +0.001 C 
ATOM     28  C   UNL     1       5.605  -1.496  23.254  0.00  0.00    +0.001 C 
ATOM     31  C   UNL     1       5.826  -0.916  24.647  0.00  0.00    +0.000 C 
ENDBRANCH  23  24
ENDBRANCH  15   6
BRANCH  11   1
ATOM      1  O   UNL     1      -2.286   2.771  24.663  0.00  0.00    -0.391 OA
ATOM     37  H   UNL     1      -3.098   3.198  24.986  0.00  0.00    +0.210 HD
ENDBRANCH  11   1
BRANCH  14  19
ATOM     19  C   UNL     1      -4.587   1.719  26.158  0.00  0.00    +0.078 C 
ATOM     21  C   UNL     1      -6.060   1.438  25.857  0.00  0.00    +0.017 C 
BRANCH  19  22
ATOM      2  O   UNL     1      -3.833   3.824  27.016  0.00  0.00    -0.275 OA
ATOM      7  N   UNL     1      -4.529   3.835  24.809  0.00  0.00    -0.297 N 
ATOM     22  C   UNL     1      -4.276   3.213  26.036  0.00  0.00    +0.219 C 
BRANCH   7  29
ATOM     29  C   UNL     1      -5.016   3.182  23.596  0.00  0.00    +0.136 C 
BRANCH  29  32
ATOM     32  C   UNL     1      -4.038   3.344  22.445  0.00  0.00    +0.178 C 
BRANCH  32   4
ATOM      4  O   UNL     1      -3.334   2.124  22.250  0.00  0.00    -0.381 OA
ATOM     34  C   UNL     1      -2.375   2.238  21.208  0.00  0.00    +0.194 C 
ENDBRANCH  32   4
ENDBRANCH  29  32
ENDBRANCH   7  29
BRANCH   7  30
ATOM     30  C   UNL     1      -4.264   5.263  24.668  0.00  0.00    +0.136 C 
BRANCH  30  33
ATOM     33  C   UNL     1      -2.859   5.521  24.155  0.00  0.00    +0.178 C 
BRANCH  33   5
ATOM      5  O   UNL     1      -1.971   5.657  25.256  0.00  0.00    -0.381 OA
ATOM     35  C   UNL     1      -0.642   5.298  24.903  0.00  0.00    +0.194 C 
ENDBRANCH  33   5
ENDBRANCH  30  33
ENDBRANCH   7  30
ENDBRANCH  19  22
ENDBRANCH  14  19
TORSDOF 11
ENDMDL
