MODEL 1
REMARK VINA RESULT:      -2.9      0.000      0.000
REMARK  Name = 38030429
REMARK  13 active torsions:
REMARK  status: ('A' for Active; 'I' for Inactive)
REMARK    1  A    between atoms: N_2  and  C_14
REMARK    2  A    between atoms: N_2  and  C_20
REMARK    3  A    between atoms: N_2  and  C_21
REMARK    4  A    between atoms: C_7  and  C_11
REMARK    5  A    between atoms: C_8  and  C_14
REMARK    6  A    between atoms: C_10  and  C_15
REMARK    7  A    between atoms: C_11  and  C_16
REMARK    8  A    between atoms: C_11  and  C_17
REMARK    9  A    between atoms: C_12  and  C_18
REMARK   10  A    between atoms: C_15  and  C_19
REMARK   11  A    between atoms: C_20  and  C_22
REMARK   12  A    between atoms: C_22  and  C_24
REMARK   13  A    between atoms: C_23  and  C_25
REMARK                            x       y       z     vdW  Elec       q    Type
REMARK                         _______ _______ _______ _____ _____    ______ ____
ROOT
ATOM      7  C   UNL     1      -4.861   1.916  25.991  0.00  0.00    +0.000 C 
ATOM      8  C   UNL     1      -4.593   0.867  24.887  0.00  0.00    +0.029 C 
ATOM      9  C   UNL     1      -3.712   2.931  26.060  0.00  0.00    +0.012 C 
ATOM     10  C   UNL     1      -3.451   3.651  24.720  0.00  0.00    +0.024 C 
ATOM     12  C   UNL     1      -3.576   2.731  23.515  0.00  0.00    -0.073 C 
ATOM     13  C   UNL     1      -4.079   1.486  23.613  0.00  0.00    -0.023 C 
ATOM     18  C   UNL     1      -3.171   3.281  22.175  0.00  0.00    +0.039 C 
ENDROOT
BRANCH   7  11
ATOM     11  C   UNL     1      -6.210   2.618  25.780  0.00  0.00    -0.013 C 
ATOM     16  C   UNL     1      -6.001   4.113  25.560  0.00  0.00    +0.007 C 
ATOM     17  C   UNL     1      -6.954   1.997  24.603  0.00  0.00    +0.007 C 
ENDBRANCH   7  11
BRANCH   8  14
ATOM     14  C   UNL     1      -3.609  -0.210  25.357  0.00  0.00    +0.092 C 
BRANCH  14   2
ATOM      2  N   UNL     1      -4.127  -1.538  25.072  0.00  0.00    -0.304 NA
ATOM     21  C   UNL     1      -4.355  -1.710  23.635  0.00  0.00    +0.104 C 
BRANCH   2  20
ATOM     20  C   UNL     1      -3.211  -2.571  25.563  0.00  0.00    +0.099 C 
BRANCH  20  22
ATOM     22  C   UNL     1      -2.091  -2.812  24.555  0.00  0.00    +0.134 C 
BRANCH  22  24
ATOM      5  N   UNL     1       0.160  -1.726  25.373  0.00  0.00    -0.197 NA
ATOM     24  C   UNL     1      -0.832  -2.205  25.011  0.00  0.00    +0.064 C 
ENDBRANCH  22  24
ENDBRANCH  20  22
ENDBRANCH   2  20
ENDBRANCH  14   2
ENDBRANCH   8  14
BRANCH  10  15
ATOM     15  C   UNL     1      -2.087   4.350  24.797  0.00  0.00    +0.105 C 
BRANCH  15  19
ATOM      1  O   UNL     1      -0.414   2.812  23.909  0.00  0.00    -0.420 OA
ATOM      3  N   UNL     1      -0.451   2.935  26.142  0.00  0.00    -0.112 NA
ATOM      4  N   UNL     1       0.534   2.034  25.779  0.00  0.00    -0.107 NA
ATOM     19  C   UNL     1      -0.977   3.363  25.019  0.00  0.00    +0.218 A 
ATOM     23  C   UNL     1       0.520   1.994  24.468  0.00  0.00    +0.250 A 
BRANCH  23  25
ATOM      6  N   UNL     1       1.456  -0.497  21.871  0.00  0.00    -0.263 NA
ATOM     25  C   UNL     1       1.321   1.238  23.550  0.00  0.00    +0.057 A 
ATOM     26  C   UNL     1       2.687   1.472  23.428  0.00  0.00    +0.016 A 
ATOM     27  C   UNL     1       0.760   0.252  22.755  0.00  0.00    +0.124 A 
ATOM     28  C   UNL     1       3.437   0.722  22.529  0.00  0.00    +0.020 A 
ATOM     29  C   UNL     1       2.780  -0.241  21.781  0.00  0.00    +0.111 A 
ENDBRANCH  23  25
ENDBRANCH  15  19
ENDBRANCH  10  15
TORSDOF 9
ENDMDL
MODEL 2
REMARK VINA RESULT:      -2.4      2.035      3.728
REMARK  Name = 38030429
REMARK  13 active torsions:
REMARK  status: ('A' for Active; 'I' for Inactive)
REMARK    1  A    between atoms: N_2  and  C_14
REMARK    2  A    between atoms: N_2  and  C_20
REMARK    3  A    between atoms: N_2  and  C_21
REMARK    4  A    between atoms: C_7  and  C_11
REMARK    5  A    between atoms: C_8  and  C_14
REMARK    6  A    between atoms: C_10  and  C_15
REMARK    7  A    between atoms: C_11  and  C_16
REMARK    8  A    between atoms: C_11  and  C_17
REMARK    9  A    between atoms: C_12  and  C_18
REMARK   10  A    between atoms: C_15  and  C_19
REMARK   11  A    between atoms: C_20  and  C_22
REMARK   12  A    between atoms: C_22  and  C_24
REMARK   13  A    between atoms: C_23  and  C_25
REMARK                            x       y       z     vdW  Elec       q    Type
REMARK                         _______ _______ _______ _____ _____    ______ ____
ROOT
ATOM      7  C   UNL     1      -2.796   3.620  25.569  0.00  0.00    +0.000 C 
ATOM      8  C   UNL     1      -3.934   3.817  24.541  0.00  0.00    +0.029 C 
ATOM      9  C   UNL     1      -2.200   2.211  25.449  0.00  0.00    +0.012 C 
ATOM     10  C   UNL     1      -1.674   1.889  24.034  0.00  0.00    +0.024 C 
ATOM     12  C   UNL     1      -2.570   2.428  22.929  0.00  0.00    -0.073 C 
ATOM     13  C   UNL     1      -3.582   3.280  23.177  0.00  0.00    -0.023 C 
ATOM     18  C   UNL     1      -2.251   2.023  21.515  0.00  0.00    +0.039 C 
ENDROOT
BRANCH   7  11
ATOM     11  C   UNL     1      -1.712   4.696  25.418  0.00  0.00    -0.013 C 
ATOM     16  C   UNL     1      -0.397   4.066  24.970  0.00  0.00    +0.007 C 
ATOM     17  C   UNL     1      -2.162   5.769  24.431  0.00  0.00    +0.007 C 
ENDBRANCH   7  11
BRANCH   8  14
ATOM     14  C   UNL     1      -5.242   3.173  25.014  0.00  0.00    +0.092 C 
BRANCH  14   2
ATOM      2  N   UNL     1      -4.979   1.915  25.692  0.00  0.00    -0.304 NA
ATOM     21  C   UNL     1      -5.939   1.699  26.777  0.00  0.00    +0.104 C 
BRANCH   2  20
ATOM     20  C   UNL     1      -5.024   0.795  24.749  0.00  0.00    +0.099 C 
BRANCH  20  22
ATOM     22  C   UNL     1      -4.308  -0.420  25.332  0.00  0.00    +0.134 C 
BRANCH  22  24
ATOM      5  N   UNL     1      -4.232  -2.392  23.594  0.00  0.00    -0.197 NA
ATOM     24  C   UNL     1      -4.264  -1.522  24.360  0.00  0.00    +0.064 C 
ENDBRANCH  22  24
ENDBRANCH  20  22
ENDBRANCH   2  20
ENDBRANCH  14   2
ENDBRANCH   8  14
BRANCH  10  15
ATOM     15  C   UNL     1      -1.445   0.375  23.929  0.00  0.00    +0.105 C 
BRANCH  15  19
ATOM      1  O   UNL     1       0.981   0.142  23.803  0.00  0.00    -0.420 OA
ATOM      3  N   UNL     1      -0.081  -0.288  21.882  0.00  0.00    -0.112 NA
ATOM      4  N   UNL     1       1.274  -0.456  21.668  0.00  0.00    -0.107 NA
ATOM     19  C   UNL     1      -0.206   0.061  23.141  0.00  0.00    +0.218 A 
ATOM     23  C   UNL     1       1.855  -0.195  22.815  0.00  0.00    +0.250 A 
BRANCH  23  25
ATOM      6  N   UNL     1       5.124  -1.429  24.086  0.00  0.00    -0.263 NA
ATOM     25  C   UNL     1       3.241  -0.210  23.182  0.00  0.00    +0.057 A 
ATOM     26  C   UNL     1       4.042   0.914  23.009  0.00  0.00    +0.016 A 
ATOM     27  C   UNL     1       3.826  -1.346  23.719  0.00  0.00    +0.124 A 
ATOM     28  C   UNL     1       5.383   0.867  23.374  0.00  0.00    +0.020 A 
ATOM     29  C   UNL     1       5.871  -0.317  23.903  0.00  0.00    +0.111 A 
ENDBRANCH  23  25
ENDBRANCH  15  19
ENDBRANCH  10  15
TORSDOF 9
ENDMDL
MODEL 3
REMARK VINA RESULT:      -2.2      1.946      5.434
REMARK  Name = 38030429
REMARK  13 active torsions:
REMARK  status: ('A' for Active; 'I' for Inactive)
REMARK    1  A    between atoms: N_2  and  C_14
REMARK    2  A    between atoms: N_2  and  C_20
REMARK    3  A    between atoms: N_2  and  C_21
REMARK    4  A    between atoms: C_7  and  C_11
REMARK    5  A    between atoms: C_8  and  C_14
REMARK    6  A    between atoms: C_10  and  C_15
REMARK    7  A    between atoms: C_11  and  C_16
REMARK    8  A    between atoms: C_11  and  C_17
REMARK    9  A    between atoms: C_12  and  C_18
REMARK   10  A    between atoms: C_15  and  C_19
REMARK   11  A    between atoms: C_20  and  C_22
REMARK   12  A    between atoms: C_22  and  C_24
REMARK   13  A    between atoms: C_23  and  C_25
REMARK                            x       y       z     vdW  Elec       q    Type
REMARK                         _______ _______ _______ _____ _____    ______ ____
ROOT
ATOM      7  C   UNL     1      -0.906   3.340  24.024  0.00  0.00    +0.000 C 
ATOM      8  C   UNL     1      -0.702   2.462  25.280  0.00  0.00    +0.029 C 
ATOM      9  C   UNL     1      -2.398   3.629  23.805  0.00  0.00    +0.012 C 
ATOM     10  C   UNL     1      -3.073   4.303  25.018  0.00  0.00    +0.024 C 
ATOM     12  C   UNL     1      -2.598   3.745  26.351  0.00  0.00    -0.073 C 
ATOM     13  C   UNL     1      -1.543   2.914  26.446  0.00  0.00    -0.023 C 
ATOM     18  C   UNL     1      -3.316   4.202  27.592  0.00  0.00    +0.039 C 
ENDROOT
BRANCH   7  11
ATOM     11  C   UNL     1      -0.096   4.641  24.112  0.00  0.00    -0.013 C 
ATOM     16  C   UNL     1       0.407   5.048  22.731  0.00  0.00    +0.007 C 
ATOM     17  C   UNL     1      -0.939   5.751  24.731  0.00  0.00    +0.007 C 
ENDBRANCH   7  11
BRANCH   8  14
ATOM     14  C   UNL     1      -0.993   0.985  24.992  0.00  0.00    +0.092 C 
BRANCH  14   2
ATOM      2  N   UNL     1       0.217   0.294  24.580  0.00  0.00    -0.304 NA
ATOM     21  C   UNL     1      -0.078  -1.090  24.198  0.00  0.00    +0.104 C 
BRANCH   2  20
ATOM     20  C   UNL     1       0.865   0.995  23.468  0.00  0.00    +0.099 C 
BRANCH  20  22
ATOM     22  C   UNL     1       1.698   0.023  22.639  0.00  0.00    +0.134 C 
BRANCH  22  24
ATOM      5  N   UNL     1       4.248   0.661  22.721  0.00  0.00    -0.197 NA
ATOM     24  C   UNL     1       3.123   0.379  22.684  0.00  0.00    +0.064 C 
ENDBRANCH  22  24
ENDBRANCH  20  22
ENDBRANCH   2  20
ENDBRANCH  14   2
ENDBRANCH   8  14
BRANCH  10  15
ATOM     15  C   UNL     1      -4.595   4.214  24.843  0.00  0.00    +0.105 C 
BRANCH  15  19
ATOM      1  O   UNL     1      -4.252   1.798  24.805  0.00  0.00    -0.420 OA
ATOM      3  N   UNL     1      -6.250   2.427  25.591  0.00  0.00    -0.112 NA
ATOM      4  N   UNL     1      -6.192   1.046  25.625  0.00  0.00    -0.107 NA
ATOM     19  C   UNL     1      -5.096   2.823  25.106  0.00  0.00    +0.218 A 
ATOM     23  C   UNL     1      -5.009   0.723  25.158  0.00  0.00    +0.250 A 
BRANCH  23  25
ATOM      6  N   UNL     1      -3.018  -2.342  25.838  0.00  0.00    -0.263 NA
ATOM     25  C   UNL     1      -4.402  -0.562  24.966  0.00  0.00    +0.057 A 
ATOM     26  C   UNL     1      -4.583  -1.272  23.784  0.00  0.00    +0.016 A 
ATOM     27  C   UNL     1      -3.618  -1.136  25.953  0.00  0.00    +0.124 A 
ATOM     28  C   UNL     1      -3.982  -2.516  23.628  0.00  0.00    +0.020 A 
ATOM     29  C   UNL     1      -3.217  -3.002  24.675  0.00  0.00    +0.111 A 
ENDBRANCH  23  25
ENDBRANCH  15  19
ENDBRANCH  10  15
TORSDOF 9
ENDMDL
MODEL 4
REMARK VINA RESULT:      -2.2      2.279      3.451
REMARK  Name = 38030429
REMARK  13 active torsions:
REMARK  status: ('A' for Active; 'I' for Inactive)
REMARK    1  A    between atoms: N_2  and  C_14
REMARK    2  A    between atoms: N_2  and  C_20
REMARK    3  A    between atoms: N_2  and  C_21
REMARK    4  A    between atoms: C_7  and  C_11
REMARK    5  A    between atoms: C_8  and  C_14
REMARK    6  A    between atoms: C_10  and  C_15
REMARK    7  A    between atoms: C_11  and  C_16
REMARK    8  A    between atoms: C_11  and  C_17
REMARK    9  A    between atoms: C_12  and  C_18
REMARK   10  A    between atoms: C_15  and  C_19
REMARK   11  A    between atoms: C_20  and  C_22
REMARK   12  A    between atoms: C_22  and  C_24
REMARK   13  A    between atoms: C_23  and  C_25
REMARK                            x       y       z     vdW  Elec       q    Type
REMARK                         _______ _______ _______ _____ _____    ______ ____
ROOT
ATOM      7  C   UNL     1      -4.522   1.582  25.760  0.00  0.00    +0.000 C 
ATOM      8  C   UNL     1      -4.105   0.411  24.840  0.00  0.00    +0.029 C 
ATOM      9  C   UNL     1      -3.495   2.720  25.684  0.00  0.00    +0.012 C 
ATOM     10  C   UNL     1      -3.273   3.248  24.250  0.00  0.00    +0.024 C 
ATOM     12  C   UNL     1      -3.258   2.143  23.205  0.00  0.00    -0.073 C 
ATOM     13  C   UNL     1      -3.622   0.879  23.491  0.00  0.00    -0.023 C 
ATOM     18  C   UNL     1      -2.873   2.520  21.800  0.00  0.00    +0.039 C 
ENDROOT
BRANCH   7  11
ATOM     11  C   UNL     1      -5.933   2.085  25.422  0.00  0.00    -0.013 C 
ATOM     16  C   UNL     1      -6.941   1.564  26.441  0.00  0.00    +0.007 C 
ATOM     17  C   UNL     1      -5.955   3.609  25.368  0.00  0.00    +0.007 C 
ENDBRANCH   7  11
BRANCH   8  14
ATOM     14  C   UNL     1      -3.024  -0.460  25.488  0.00  0.00    +0.092 C 
BRANCH  14   2
ATOM      2  N   UNL     1      -3.117  -1.831  25.014  0.00  0.00    -0.304 NA
ATOM     21  C   UNL     1      -4.156  -1.957  23.989  0.00  0.00    +0.104 C 
BRANCH   2  20
ATOM     20  C   UNL     1      -1.829  -2.288  24.486  0.00  0.00    +0.099 C 
BRANCH  20  22
ATOM     22  C   UNL     1      -0.700  -1.390  24.985  0.00  0.00    +0.134 C 
BRANCH  22  24
ATOM      5  N   UNL     1       0.709  -0.446  22.976  0.00  0.00    -0.197 NA
ATOM     24  C   UNL     1       0.088  -0.862  23.863  0.00  0.00    +0.064 C 
ENDBRANCH  22  24
ENDBRANCH  20  22
ENDBRANCH   2  20
ENDBRANCH  14   2
ENDBRANCH   8  14
BRANCH  10  15
ATOM     15  C   UNL     1      -1.997   4.101  24.235  0.00  0.00    +0.105 C 
BRANCH  15  19
ATOM      1  O   UNL     1      -0.553   3.521  26.114  0.00  0.00    -0.420 OA
ATOM      3  N   UNL     1       0.000   2.521  24.191  0.00  0.00    -0.112 NA
ATOM      4  N   UNL     1       0.894   2.106  25.161  0.00  0.00    -0.107 NA
ATOM     19  C   UNL     1      -0.825   3.345  24.792  0.00  0.00    +0.218 A 
ATOM     23  C   UNL     1       0.534   2.715  26.266  0.00  0.00    +0.250 A 
BRANCH  23  25
ATOM      6  N   UNL     1       3.014   2.967  29.025  0.00  0.00    -0.263 NA
ATOM     25  C   UNL     1       1.096   2.662  27.584  0.00  0.00    +0.057 A 
ATOM     26  C   UNL     1       0.327   2.279  28.678  0.00  0.00    +0.016 A 
ATOM     27  C   UNL     1       2.422   2.994  27.810  0.00  0.00    +0.124 A 
ATOM     28  C   UNL     1       0.900   2.238  29.944  0.00  0.00    +0.020 A 
ATOM     29  C   UNL     1       2.235   2.588  30.063  0.00  0.00    +0.111 A 
ENDBRANCH  23  25
ENDBRANCH  15  19
ENDBRANCH  10  15
TORSDOF 9
ENDMDL
MODEL 5
REMARK VINA RESULT:      -1.7      2.074      4.637
REMARK  Name = 38030429
REMARK  13 active torsions:
REMARK  status: ('A' for Active; 'I' for Inactive)
REMARK    1  A    between atoms: N_2  and  C_14
REMARK    2  A    between atoms: N_2  and  C_20
REMARK    3  A    between atoms: N_2  and  C_21
REMARK    4  A    between atoms: C_7  and  C_11
REMARK    5  A    between atoms: C_8  and  C_14
REMARK    6  A    between atoms: C_10  and  C_15
REMARK    7  A    between atoms: C_11  and  C_16
REMARK    8  A    between atoms: C_11  and  C_17
REMARK    9  A    between atoms: C_12  and  C_18
REMARK   10  A    between atoms: C_15  and  C_19
REMARK   11  A    between atoms: C_20  and  C_22
REMARK   12  A    between atoms: C_22  and  C_24
REMARK   13  A    between atoms: C_23  and  C_25
REMARK                            x       y       z     vdW  Elec       q    Type
REMARK                         _______ _______ _______ _____ _____    ______ ____
ROOT
ATOM      7  C   UNL     1      -4.090  -0.437  24.008  0.00  0.00    +0.000 C 
ATOM      8  C   UNL     1      -4.501   0.579  25.099  0.00  0.00    +0.029 C 
ATOM      9  C   UNL     1      -2.942   0.123  23.156  0.00  0.00    +0.012 C 
ATOM     10  C   UNL     1      -1.701   0.515  23.987  0.00  0.00    +0.024 C 
ATOM     12  C   UNL     1      -2.054   1.177  25.309  0.00  0.00    -0.073 C 
ATOM     13  C   UNL     1      -3.313   1.205  25.784  0.00  0.00    -0.023 C 
ATOM     18  C   UNL     1      -0.927   1.760  26.118  0.00  0.00    +0.039 C 
ENDROOT
BRANCH   7  11
ATOM     11  C   UNL     1      -3.717  -1.795  24.619  0.00  0.00    -0.013 C 
ATOM     16  C   UNL     1      -4.454  -2.921  23.900  0.00  0.00    +0.007 C 
ATOM     17  C   UNL     1      -2.209  -2.009  24.557  0.00  0.00    +0.007 C 
ENDBRANCH   7  11
BRANCH   8  14
ATOM     14  C   UNL     1      -5.398   1.685  24.534  0.00  0.00    +0.092 C 
BRANCH  14   2
ATOM      2  N   UNL     1      -5.843   2.576  25.592  0.00  0.00    -0.304 NA
ATOM     21  C   UNL     1      -6.259   1.815  26.772  0.00  0.00    +0.104 C 
BRANCH   2  20
ATOM     20  C   UNL     1      -4.787   3.526  25.952  0.00  0.00    +0.099 C 
BRANCH  20  22
ATOM     22  C   UNL     1      -4.134   4.096  24.696  0.00  0.00    +0.134 C 
BRANCH  22  24
ATOM      5  N   UNL     1      -1.738   5.042  25.226  0.00  0.00    -0.197 NA
ATOM     24  C   UNL     1      -2.795   4.624  24.992  0.00  0.00    +0.064 C 
ENDBRANCH  22  24
ENDBRANCH  20  22
ENDBRANCH   2  20
ENDBRANCH  14   2
ENDBRANCH   8  14
BRANCH  10  15
ATOM     15  C   UNL     1      -0.781   1.380  23.114  0.00  0.00    +0.105 C 
BRANCH  15  19
ATOM      1  O   UNL     1       1.544   0.684  23.360  0.00  0.00    -0.420 OA
ATOM      3  N   UNL     1       0.517  -0.173  21.567  0.00  0.00    -0.112 NA
ATOM      4  N   UNL     1       1.816  -0.646  21.582  0.00  0.00    -0.107 NA
ATOM     19  C   UNL     1       0.403   0.598  22.623  0.00  0.00    +0.218 A 
ATOM     23  C   UNL     1       2.378  -0.120  22.645  0.00  0.00    +0.250 A 
BRANCH  23  25
ATOM      6  N   UNL     1       5.371  -1.649  24.236  0.00  0.00    -0.263 NA
ATOM     25  C   UNL     1       3.709  -0.260  23.160  0.00  0.00    +0.057 A 
ATOM     26  C   UNL     1       4.617   0.791  23.099  0.00  0.00    +0.016 A 
ATOM     27  C   UNL     1       4.132  -1.449  23.732  0.00  0.00    +0.124 A 
ATOM     28  C   UNL     1       5.900   0.625  23.607  0.00  0.00    +0.020 A 
ATOM     29  C   UNL     1       6.224  -0.604  24.160  0.00  0.00    +0.111 A 
ENDBRANCH  23  25
ENDBRANCH  15  19
ENDBRANCH  10  15
TORSDOF 9
ENDMDL
MODEL 6
REMARK VINA RESULT:      -1.0      1.738      2.617
REMARK  Name = 38030429
REMARK  13 active torsions:
REMARK  status: ('A' for Active; 'I' for Inactive)
REMARK    1  A    between atoms: N_2  and  C_14
REMARK    2  A    between atoms: N_2  and  C_20
REMARK    3  A    between atoms: N_2  and  C_21
REMARK    4  A    between atoms: C_7  and  C_11
REMARK    5  A    between atoms: C_8  and  C_14
REMARK    6  A    between atoms: C_10  and  C_15
REMARK    7  A    between atoms: C_11  and  C_16
REMARK    8  A    between atoms: C_11  and  C_17
REMARK    9  A    between atoms: C_12  and  C_18
REMARK   10  A    between atoms: C_15  and  C_19
REMARK   11  A    between atoms: C_20  and  C_22
REMARK   12  A    between atoms: C_22  and  C_24
REMARK   13  A    between atoms: C_23  and  C_25
REMARK                            x       y       z     vdW  Elec       q    Type
REMARK                         _______ _______ _______ _____ _____    ______ ____
ROOT
ATOM      7  C   UNL     1      -3.877   1.867  25.760  0.00  0.00    +0.000 C 
ATOM      8  C   UNL     1      -4.028   0.518  25.019  0.00  0.00    +0.029 C 
ATOM      9  C   UNL     1      -2.491   2.473  25.498  0.00  0.00    +0.012 C 
ATOM     10  C   UNL     1      -2.185   2.674  23.998  0.00  0.00    +0.024 C 
ATOM     12  C   UNL     1      -2.687   1.530  23.130  0.00  0.00    -0.073 C 
ATOM     13  C   UNL     1      -3.501   0.570  23.608  0.00  0.00    -0.023 C 
ATOM     18  C   UNL     1      -2.290   1.533  21.679  0.00  0.00    +0.039 C 
ENDROOT
BRANCH   7  11
ATOM     11  C   UNL     1      -4.993   2.847  25.371  0.00  0.00    -0.013 C 
ATOM     16  C   UNL     1      -6.334   2.368  25.918  0.00  0.00    +0.007 C 
ATOM     17  C   UNL     1      -4.671   4.248  25.879  0.00  0.00    +0.007 C 
ENDBRANCH   7  11
BRANCH   8  14
ATOM     14  C   UNL     1      -3.336  -0.622  25.774  0.00  0.00    +0.092 C 
BRANCH  14   2
ATOM      2  N   UNL     1      -1.983  -0.817  25.282  0.00  0.00    -0.304 NA
ATOM     21  C   UNL     1      -1.011  -0.152  26.155  0.00  0.00    +0.104 C 
BRANCH   2  20
ATOM     20  C   UNL     1      -1.668  -2.243  25.172  0.00  0.00    +0.099 C 
BRANCH  20  22
ATOM     22  C   UNL     1      -2.130  -2.788  23.824  0.00  0.00    +0.134 C 
BRANCH  22  24
ATOM      5  N   UNL     1      -4.755  -2.868  23.690  0.00  0.00    -0.197 NA
ATOM     24  C   UNL     1      -3.597  -2.834  23.748  0.00  0.00    +0.064 C 
ENDBRANCH  22  24
ENDBRANCH  20  22
ENDBRANCH   2  20
ENDBRANCH  14   2
ENDBRANCH   8  14
BRANCH  10  15
ATOM     15  C   UNL     1      -0.681   2.930  23.836  0.00  0.00    +0.105 C 
BRANCH  15  19
ATOM      1  O   UNL     1       1.408   1.676  23.705  0.00  0.00    -0.420 OA
ATOM      3  N   UNL     1      -0.398   0.516  23.074  0.00  0.00    -0.112 NA
ATOM      4  N   UNL     1       0.705  -0.309  22.951  0.00  0.00    -0.107 NA
ATOM     19  C   UNL     1       0.060   1.663  23.517  0.00  0.00    +0.218 A 
ATOM     23  C   UNL     1       1.736   0.409  23.329  0.00  0.00    +0.250 A 
BRANCH  23  25
ATOM      6  N   UNL     1       4.827  -1.591  23.847  0.00  0.00    -0.263 NA
ATOM     25  C   UNL     1       3.127   0.071  23.407  0.00  0.00    +0.057 A 
ATOM     26  C   UNL     1       4.111   1.016  23.135  0.00  0.00    +0.016 A 
ATOM     27  C   UNL     1       3.535  -1.207  23.755  0.00  0.00    +0.124 A 
ATOM     28  C   UNL     1       5.453   0.658  23.219  0.00  0.00    +0.020 A 
ATOM     29  C   UNL     1       5.755  -0.646  23.576  0.00  0.00    +0.111 A 
ENDBRANCH  23  25
ENDBRANCH  15  19
ENDBRANCH  10  15
TORSDOF 9
ENDMDL
MODEL 7
REMARK VINA RESULT:      -0.8      2.540      5.027
REMARK  Name = 38030429
REMARK  13 active torsions:
REMARK  status: ('A' for Active; 'I' for Inactive)
REMARK    1  A    between atoms: N_2  and  C_14
REMARK    2  A    between atoms: N_2  and  C_20
REMARK    3  A    between atoms: N_2  and  C_21
REMARK    4  A    between atoms: C_7  and  C_11
REMARK    5  A    between atoms: C_8  and  C_14
REMARK    6  A    between atoms: C_10  and  C_15
REMARK    7  A    between atoms: C_11  and  C_16
REMARK    8  A    between atoms: C_11  and  C_17
REMARK    9  A    between atoms: C_12  and  C_18
REMARK   10  A    between atoms: C_15  and  C_19
REMARK   11  A    between atoms: C_20  and  C_22
REMARK   12  A    between atoms: C_22  and  C_24
REMARK   13  A    between atoms: C_23  and  C_25
REMARK                            x       y       z     vdW  Elec       q    Type
REMARK                         _______ _______ _______ _____ _____    ______ ____
ROOT
ATOM      7  C   UNL     1      -2.194  -1.036  24.624  0.00  0.00    +0.000 C 
ATOM      8  C   UNL     1      -1.186  -0.749  23.486  0.00  0.00    +0.029 C 
ATOM      9  C   UNL     1      -2.611   0.269  25.316  0.00  0.00    +0.012 C 
ATOM     10  C   UNL     1      -3.213   1.310  24.347  0.00  0.00    +0.024 C 
ATOM     12  C   UNL     1      -2.495   1.359  23.006  0.00  0.00    -0.073 C 
ATOM     13  C   UNL     1      -1.584   0.437  22.645  0.00  0.00    -0.023 C 
ATOM     18  C   UNL     1      -2.881   2.456  22.052  0.00  0.00    +0.039 C 
ENDROOT
BRANCH   7  11
ATOM     11  C   UNL     1      -3.418  -1.805  24.107  0.00  0.00    -0.013 C 
ATOM     16  C   UNL     1      -3.450  -3.211  24.698  0.00  0.00    +0.007 C 
ATOM     17  C   UNL     1      -4.700  -1.048  24.438  0.00  0.00    +0.007 C 
ENDBRANCH   7  11
BRANCH   8  14
ATOM     14  C   UNL     1       0.231  -0.530  24.028  0.00  0.00    +0.092 C 
BRANCH  14   2
ATOM      2  N   UNL     1       0.985   0.350  23.151  0.00  0.00    -0.304 NA
ATOM     21  C   UNL     1       1.236   1.640  23.800  0.00  0.00    +0.104 C 
BRANCH   2  20
ATOM     20  C   UNL     1       2.252  -0.269  22.755  0.00  0.00    +0.099 C 
BRANCH  20  22
ATOM     22  C   UNL     1       3.347   0.787  22.637  0.00  0.00    +0.134 C 
BRANCH  22  24
ATOM      5  N   UNL     1       5.633  -0.115  23.571  0.00  0.00    -0.197 NA
ATOM     24  C   UNL     1       4.624   0.283  23.159  0.00  0.00    +0.064 C 
ENDBRANCH  22  24
ENDBRANCH  20  22
ENDBRANCH   2  20
ENDBRANCH  14   2
ENDBRANCH   8  14
BRANCH  10  15
ATOM     15  C   UNL     1      -3.251   2.672  25.053  0.00  0.00    +0.105 C 
BRANCH  15  19
ATOM      1  O   UNL     1      -1.336   2.634  26.564  0.00  0.00    -0.420 OA
ATOM      3  N   UNL     1      -1.081   3.980  24.796  0.00  0.00    -0.112 NA
ATOM      4  N   UNL     1       0.069   4.056  25.560  0.00  0.00    -0.107 NA
ATOM     19  C   UNL     1      -1.872   3.139  25.419  0.00  0.00    +0.218 A 
ATOM     23  C   UNL     1      -0.124   3.255  26.581  0.00  0.00    +0.250 A 
BRANCH  23  25
ATOM      6  N   UNL     1       2.964   2.762  28.592  0.00  0.00    -0.263 NA
ATOM     25  C   UNL     1       0.727   2.937  27.690  0.00  0.00    +0.057 A 
ATOM     26  C   UNL     1       0.197   2.515  28.905  0.00  0.00    +0.016 A 
ATOM     27  C   UNL     1       2.105   3.044  27.587  0.00  0.00    +0.124 A 
ATOM     28  C   UNL     1       1.049   2.215  29.962  0.00  0.00    +0.020 A 
ATOM     29  C   UNL     1       2.412   2.354  29.756  0.00  0.00    +0.111 A 
ENDBRANCH  23  25
ENDBRANCH  15  19
ENDBRANCH  10  15
TORSDOF 9
ENDMDL
MODEL 8
REMARK VINA RESULT:      -0.7      1.875      5.687
REMARK  Name = 38030429
REMARK  13 active torsions:
REMARK  status: ('A' for Active; 'I' for Inactive)
REMARK    1  A    between atoms: N_2  and  C_14
REMARK    2  A    between atoms: N_2  and  C_20
REMARK    3  A    between atoms: N_2  and  C_21
REMARK    4  A    between atoms: C_7  and  C_11
REMARK    5  A    between atoms: C_8  and  C_14
REMARK    6  A    between atoms: C_10  and  C_15
REMARK    7  A    between atoms: C_11  and  C_16
REMARK    8  A    between atoms: C_11  and  C_17
REMARK    9  A    between atoms: C_12  and  C_18
REMARK   10  A    between atoms: C_15  and  C_19
REMARK   11  A    between atoms: C_20  and  C_22
REMARK   12  A    between atoms: C_22  and  C_24
REMARK   13  A    between atoms: C_23  and  C_25
REMARK                            x       y       z     vdW  Elec       q    Type
REMARK                         _______ _______ _______ _____ _____    ______ ____
ROOT
ATOM      7  C   UNL     1      -0.404   0.590  23.241  0.00  0.00    +0.000 C 
ATOM      8  C   UNL     1      -1.103   0.097  24.529  0.00  0.00    +0.029 C 
ATOM      9  C   UNL     1      -0.337   2.123  23.217  0.00  0.00    +0.012 C 
ATOM     10  C   UNL     1       0.375   2.723  24.448  0.00  0.00    +0.024 C 
ATOM     12  C   UNL     1       0.035   2.001  25.743  0.00  0.00    -0.073 C 
ATOM     13  C   UNL     1      -0.637   0.834  25.759  0.00  0.00    -0.023 C 
ATOM     18  C   UNL     1       0.530   2.607  27.028  0.00  0.00    +0.039 C 
ENDROOT
BRANCH   7  11
ATOM     11  C   UNL     1       0.993  -0.029  23.091  0.00  0.00    -0.013 C 
ATOM     16  C   UNL     1       1.129  -0.708  21.731  0.00  0.00    +0.007 C 
ATOM     17  C   UNL     1       2.069   1.036  23.275  0.00  0.00    +0.007 C 
ENDBRANCH   7  11
BRANCH   8  14
ATOM     14  C   UNL     1      -2.628   0.209  24.424  0.00  0.00    +0.092 C 
BRANCH  14   2
ATOM      2  N   UNL     1      -3.271  -0.919  25.077  0.00  0.00    -0.304 NA
ATOM     21  C   UNL     1      -3.920  -0.497  26.322  0.00  0.00    +0.104 C 
BRANCH   2  20
ATOM     20  C   UNL     1      -4.251  -1.547  24.187  0.00  0.00    +0.099 C 
BRANCH  20  22
ATOM     22  C   UNL     1      -3.829  -2.976  23.857  0.00  0.00    +0.134 C 
BRANCH  22  24
ATOM      5  N   UNL     1      -1.220  -3.254  24.026  0.00  0.00    -0.197 NA
ATOM     24  C   UNL     1      -2.371  -3.130  23.952  0.00  0.00    +0.064 C 
ENDBRANCH  22  24
ENDBRANCH  20  22
ENDBRANCH   2  20
ENDBRANCH  14   2
ENDBRANCH   8  14
BRANCH  10  15
ATOM     15  C   UNL     1       0.070   4.226  24.506  0.00  0.00    +0.105 C 
BRANCH  15  19
ATOM      1  O   UNL     1      -2.219   3.458  24.858  0.00  0.00    -0.420 OA
ATOM      3  N   UNL     1      -1.852   5.568  25.503  0.00  0.00    -0.112 NA
ATOM      4  N   UNL     1      -3.177   5.268  25.757  0.00  0.00    -0.107 NA
ATOM     19  C   UNL     1      -1.331   4.483  24.979  0.00  0.00    +0.218 A 
ATOM     23  C   UNL     1      -3.347   4.027  25.365  0.00  0.00    +0.250 A 
BRANCH  23  25
ATOM      6  N   UNL     1      -6.407   2.327  26.619  0.00  0.00    -0.263 NA
ATOM     25  C   UNL     1      -4.513   3.194  25.389  0.00  0.00    +0.057 A 
ATOM     26  C   UNL     1      -4.898   2.464  24.270  0.00  0.00    +0.016 A 
ATOM     27  C   UNL     1      -5.296   3.092  26.529  0.00  0.00    +0.124 A 
ATOM     28  C   UNL     1      -6.035   1.665  24.324  0.00  0.00    +0.020 A 
ATOM     29  C   UNL     1      -6.747   1.632  25.511  0.00  0.00    +0.111 A 
ENDBRANCH  23  25
ENDBRANCH  15  19
ENDBRANCH  10  15
TORSDOF 9
ENDMDL
MODEL 9
REMARK VINA RESULT:      -0.7      1.774      4.341
REMARK  Name = 38030429
REMARK  13 active torsions:
REMARK  status: ('A' for Active; 'I' for Inactive)
REMARK    1  A    between atoms: N_2  and  C_14
REMARK    2  A    between atoms: N_2  and  C_20
REMARK    3  A    between atoms: N_2  and  C_21
REMARK    4  A    between atoms: C_7  and  C_11
REMARK    5  A    between atoms: C_8  and  C_14
REMARK    6  A    between atoms: C_10  and  C_15
REMARK    7  A    between atoms: C_11  and  C_16
REMARK    8  A    between atoms: C_11  and  C_17
REMARK    9  A    between atoms: C_12  and  C_18
REMARK   10  A    between atoms: C_15  and  C_19
REMARK   11  A    between atoms: C_20  and  C_22
REMARK   12  A    between atoms: C_22  and  C_24
REMARK   13  A    between atoms: C_23  and  C_25
REMARK                            x       y       z     vdW  Elec       q    Type
REMARK                         _______ _______ _______ _____ _____    ______ ____
ROOT
ATOM      7  C   UNL     1      -3.099   3.003  23.896  0.00  0.00    +0.000 C 
ATOM      8  C   UNL     1      -3.610   3.774  25.135  0.00  0.00    +0.029 C 
ATOM      9  C   UNL     1      -3.062   1.495  24.177  0.00  0.00    +0.012 C 
ATOM     10  C   UNL     1      -4.427   0.920  24.612  0.00  0.00    +0.024 C 
ATOM     12  C   UNL     1      -5.191   1.845  25.547  0.00  0.00    -0.073 C 
ATOM     13  C   UNL     1      -4.804   3.113  25.776  0.00  0.00    -0.023 C 
ATOM     18  C   UNL     1      -6.451   1.312  26.174  0.00  0.00    +0.039 C 
ENDROOT
BRANCH   7  11
ATOM     11  C   UNL     1      -3.947   3.315  22.654  0.00  0.00    -0.013 C 
ATOM     16  C   UNL     1      -4.227   4.812  22.564  0.00  0.00    +0.007 C 
ATOM     17  C   UNL     1      -3.248   2.818  21.394  0.00  0.00    +0.007 C 
ENDBRANCH   7  11
BRANCH   8  14
ATOM     14  C   UNL     1      -2.508   3.951  26.185  0.00  0.00    +0.092 C 
BRANCH  14   2
ATOM      2  N   UNL     1      -1.287   3.284  25.765  0.00  0.00    -0.304 NA
ATOM     21  C   UNL     1      -0.292   4.260  25.311  0.00  0.00    +0.104 C 
BRANCH   2  20
ATOM     20  C   UNL     1      -0.736   2.471  26.852  0.00  0.00    +0.099 C 
BRANCH  20  22
ATOM     22  C   UNL     1       0.754   2.755  27.026  0.00  0.00    +0.134 C 
BRANCH  22  24
ATOM      5  N   UNL     1       1.484   2.443  29.532  0.00  0.00    -0.197 NA
ATOM     24  C   UNL     1       1.163   2.581  28.426  0.00  0.00    +0.064 C 
ENDBRANCH  22  24
ENDBRANCH  20  22
ENDBRANCH   2  20
ENDBRANCH  14   2
ENDBRANCH   8  14
BRANCH  10  15
ATOM     15  C   UNL     1      -4.202  -0.477  25.208  0.00  0.00    +0.105 C 
BRANCH  15  19
ATOM      1  O   UNL     1      -1.923  -0.133  24.406  0.00  0.00    -0.420 OA
ATOM      3  N   UNL     1      -2.437  -2.271  24.815  0.00  0.00    -0.112 NA
ATOM      4  N   UNL     1      -1.129  -2.223  24.371  0.00  0.00    -0.107 NA
ATOM     19  C   UNL     1      -2.861  -1.029  24.820  0.00  0.00    +0.218 A 
ATOM     23  C   UNL     1      -0.871  -0.956  24.144  0.00  0.00    +0.250 A 
BRANCH  23  25
ATOM      6  N   UNL     1       1.802   1.595  23.730  0.00  0.00    -0.263 NA
ATOM     25  C   UNL     1       0.323  -0.318  23.674  0.00  0.00    +0.057 A 
ATOM     26  C   UNL     1       1.152  -0.940  22.746  0.00  0.00    +0.016 A 
ATOM     27  C   UNL     1       0.690   0.937  24.131  0.00  0.00    +0.124 A 
ATOM     28  C   UNL     1       2.304  -0.296  22.310  0.00  0.00    +0.020 A 
ATOM     29  C   UNL     1       2.581   0.959  22.827  0.00  0.00    +0.111 A 
ENDBRANCH  23  25
ENDBRANCH  15  19
ENDBRANCH  10  15
TORSDOF 9
ENDMDL
MODEL 10
REMARK VINA RESULT:      -0.3      2.316      3.557
REMARK  Name = 38030429
REMARK  13 active torsions:
REMARK  status: ('A' for Active; 'I' for Inactive)
REMARK    1  A    between atoms: N_2  and  C_14
REMARK    2  A    between atoms: N_2  and  C_20
REMARK    3  A    between atoms: N_2  and  C_21
REMARK    4  A    between atoms: C_7  and  C_11
REMARK    5  A    between atoms: C_8  and  C_14
REMARK    6  A    between atoms: C_10  and  C_15
REMARK    7  A    between atoms: C_11  and  C_16
REMARK    8  A    between atoms: C_11  and  C_17
REMARK    9  A    between atoms: C_12  and  C_18
REMARK   10  A    between atoms: C_15  and  C_19
REMARK   11  A    between atoms: C_20  and  C_22
REMARK   12  A    between atoms: C_22  and  C_24
REMARK   13  A    between atoms: C_23  and  C_25
REMARK                            x       y       z     vdW  Elec       q    Type
REMARK                         _______ _______ _______ _____ _____    ______ ____
ROOT
ATOM      7  C   UNL     1      -4.451   1.613  25.968  0.00  0.00    +0.000 C 
ATOM      8  C   UNL     1      -4.025   0.441  25.054  0.00  0.00    +0.029 C 
ATOM      9  C   UNL     1      -3.473   2.788  25.828  0.00  0.00    +0.012 C 
ATOM     10  C   UNL     1      -3.331   3.295  24.377  0.00  0.00    +0.024 C 
ATOM     12  C   UNL     1      -3.314   2.170  23.353  0.00  0.00    -0.073 C 
ATOM     13  C   UNL     1      -3.615   0.899  23.678  0.00  0.00    -0.023 C 
ATOM     18  C   UNL     1      -3.002   2.533  21.926  0.00  0.00    +0.039 C 
ENDROOT
BRANCH   7  11
ATOM     11  C   UNL     1      -5.893   2.053  25.678  0.00  0.00    -0.013 C 
ATOM     16  C   UNL     1      -5.957   3.564  25.480  0.00  0.00    +0.007 C 
ATOM     17  C   UNL     1      -6.436   1.322  24.455  0.00  0.00    +0.007 C 
ENDBRANCH   7  11
BRANCH   8  14
ATOM     14  C   UNL     1      -2.884  -0.374  25.673  0.00  0.00    +0.092 C 
BRANCH  14   2
ATOM      2  N   UNL     1      -2.062  -0.977  24.637  0.00  0.00    -0.304 NA
ATOM     21  C   UNL     1      -0.768  -0.297  24.539  0.00  0.00    +0.104 C 
BRANCH   2  20
ATOM     20  C   UNL     1      -1.863  -2.405  24.896  0.00  0.00    +0.099 C 
BRANCH  20  22
ATOM     22  C   UNL     1      -3.204  -3.099  25.110  0.00  0.00    +0.134 C 
BRANCH  22  24
ATOM      5  N   UNL     1      -4.870  -2.562  23.147  0.00  0.00    -0.197 NA
ATOM     24  C   UNL     1      -4.134  -2.800  24.012  0.00  0.00    +0.064 C 
ENDBRANCH  22  24
ENDBRANCH  20  22
ENDBRANCH   2  20
ENDBRANCH  14   2
ENDBRANCH   8  14
BRANCH  10  15
ATOM     15  C   UNL     1      -2.092   4.197  24.292  0.00  0.00    +0.105 C 
BRANCH  15  19
ATOM      1  O   UNL     1      -0.645   3.571  26.154  0.00  0.00    -0.420 OA
ATOM      3  N   UNL     1       0.042   2.812  24.166  0.00  0.00    -0.112 NA
ATOM      4  N   UNL     1       0.948   2.388  25.121  0.00  0.00    -0.107 NA
ATOM     19  C   UNL     1      -0.869   3.499  24.814  0.00  0.00    +0.218 A 
ATOM     23  C   UNL     1       0.507   2.854  26.266  0.00  0.00    +0.250 A 
BRANCH  23  25
ATOM      6  N   UNL     1       0.654   2.301  29.940  0.00  0.00    -0.263 NA
ATOM     25  C   UNL     1       1.041   2.726  27.590  0.00  0.00    +0.057 A 
ATOM     26  C   UNL     1       2.400   2.886  27.836  0.00  0.00    +0.016 A 
ATOM     27  C   UNL     1       0.218   2.436  28.667  0.00  0.00    +0.124 A 
ATOM     28  C   UNL     1       2.887   2.754  29.132  0.00  0.00    +0.020 A 
ATOM     29  C   UNL     1       1.981   2.464  30.139  0.00  0.00    +0.111 A 
ENDBRANCH  23  25
ENDBRANCH  15  19
ENDBRANCH  10  15
TORSDOF 9
ENDMDL
