MODEL 1
REMARK VINA RESULT:       5.3      0.000      0.000
REMARK  Name = 7661884
REMARK  7 active torsions:
REMARK  status: ('A' for Active; 'I' for Inactive)
REMARK    1  A    between atoms: S_1  and  N_9
REMARK    2  A    between atoms: S_1  and  C_23
REMARK    3  A    between atoms: S_2  and  N_11
REMARK    4  A    between atoms: S_2  and  C_26
REMARK    5  A    between atoms: O_8  and  C_29
REMARK    6  A    between atoms: O_8  and  C_35
REMARK    7  A    between atoms: N_11  and  C_19
REMARK                            x       y       z     vdW  Elec       q    Type
REMARK                         _______ _______ _______ _____ _____    ______ ____
ROOT
ATOM      5  O   UNL     1      -0.413   3.153  28.214  0.00  0.00    -0.268 OA
ATOM      9  N   UNL     1      -4.089   2.581  24.887  0.00  0.00    -0.176 NA
ATOM     10  N   UNL     1      -1.218   3.284  26.017  0.00  0.00    -0.310 N 
ATOM     12  C   UNL     1      -3.146   4.841  25.370  0.00  0.00    +0.025 C 
ATOM     13  C   UNL     1      -2.097   3.422  23.662  0.00  0.00    +0.054 C 
ATOM     14  C   UNL     1      -2.478   4.860  24.006  0.00  0.00    +0.017 C 
ATOM     15  C   UNL     1      -4.407   3.962  25.348  0.00  0.00    +0.114 C 
ATOM     16  C   UNL     1      -3.372   2.563  23.578  0.00  0.00    +0.119 C 
ATOM     17  C   UNL     1      -2.122   4.373  26.406  0.00  0.00    +0.130 C 
ATOM     18  C   UNL     1      -1.126   2.831  24.685  0.00  0.00    +0.049 A 
ATOM     19  C   UNL     1      -0.206   1.890  24.387  0.00  0.00    +0.068 A 
ATOM     20  C   UNL     1      -0.386   2.784  27.039  0.00  0.00    +0.252 A 
ATOM     21  C   UNL     1       0.677   1.347  25.379  0.00  0.00    +0.031 A 
ATOM     22  C   UNL     1       0.605   1.748  26.649  0.00  0.00    +0.072 A 
ENDROOT
BRANCH   9   1
ATOM      1  S   UNL     1      -5.349   1.436  25.057  0.00  0.00    +0.061 S 
ATOM      3  O   UNL     1      -6.230   1.528  23.913  0.00  0.00    -0.153 OA
ATOM      4  O   UNL     1      -5.869   1.504  26.406  0.00  0.00    -0.153 OA
BRANCH   1  23
ATOM     23  C   UNL     1      -4.426  -0.063  24.906  0.00  0.00    +0.106 A 
ATOM     24  C   UNL     1      -3.394  -0.315  25.796  0.00  0.00    +0.032 A 
ATOM     25  C   UNL     1      -4.747  -0.959  23.901  0.00  0.00    +0.032 A 
ATOM     27  C   UNL     1      -2.665  -1.499  25.678  0.00  0.00    +0.047 A 
ATOM     28  C   UNL     1      -4.019  -2.142  23.783  0.00  0.00    +0.047 A 
ATOM     29  C   UNL     1      -2.977  -2.412  24.670  0.00  0.00    +0.120 A 
BRANCH  29   8
ATOM      8  O   UNL     1      -2.266  -3.567  24.556  0.00  0.00    -0.495 OA
ATOM     35  C   UNL     1      -1.688  -3.852  23.283  0.00  0.00    +0.277 C 
ENDBRANCH  29   8
ENDBRANCH   1  23
ENDBRANCH   9   1
BRANCH  19  11
ATOM     11  N   UNL     1      -0.116   1.401  23.063  0.00  0.00    -0.215 N 
ATOM     36  H   UNL     1       0.245   2.072  22.376  0.00  0.00    +0.174 HD
BRANCH  11   2
ATOM      2  S   UNL     1       0.415  -0.191  22.874  0.00  0.00    +0.072 S 
ATOM      6  O   UNL     1      -0.008  -0.988  24.010  0.00  0.00    -0.150 OA
ATOM      7  O   UNL     1       0.141  -0.643  21.523  0.00  0.00    -0.150 OA
BRANCH   2  26
ATOM     26  C   UNL     1       2.164   0.036  23.010  0.00  0.00    +0.108 A 
ATOM     30  C   UNL     1       2.940  -0.993  23.517  0.00  0.00    +0.029 A 
ATOM     31  C   UNL     1       2.722   1.236  22.607  0.00  0.00    +0.029 A 
ATOM     32  C   UNL     1       4.319  -0.813  23.626  0.00  0.00    +0.002 A 
ATOM     33  C   UNL     1       4.101   1.415  22.716  0.00  0.00    +0.002 A 
ATOM     34  C   UNL     1       4.900   0.390  23.225  0.00  0.00    +0.000 A 
ENDBRANCH   2  26
ENDBRANCH  11   2
ENDBRANCH  19  11
TORSDOF 6
ENDMDL
MODEL 2
REMARK VINA RESULT:       5.5      1.680      6.284
REMARK  Name = 7661884
REMARK  7 active torsions:
REMARK  status: ('A' for Active; 'I' for Inactive)
REMARK    1  A    between atoms: S_1  and  N_9
REMARK    2  A    between atoms: S_1  and  C_23
REMARK    3  A    between atoms: S_2  and  N_11
REMARK    4  A    between atoms: S_2  and  C_26
REMARK    5  A    between atoms: O_8  and  C_29
REMARK    6  A    between atoms: O_8  and  C_35
REMARK    7  A    between atoms: N_11  and  C_19
REMARK                            x       y       z     vdW  Elec       q    Type
REMARK                         _______ _______ _______ _____ _____    ______ ____
ROOT
ATOM      5  O   UNL     1      -0.925   6.099  24.190  0.00  0.00    -0.268 OA
ATOM      9  N   UNL     1      -0.227   1.170  24.550  0.00  0.00    -0.176 NA
ATOM     10  N   UNL     1      -1.255   4.066  25.308  0.00  0.00    -0.310 N 
ATOM     12  C   UNL     1       0.696   2.718  26.276  0.00  0.00    +0.025 C 
ATOM     13  C   UNL     1      -1.599   1.875  26.498  0.00  0.00    +0.054 C 
ATOM     14  C   UNL     1      -0.333   2.226  27.278  0.00  0.00    +0.017 C 
ATOM     15  C   UNL     1       1.012   1.630  25.237  0.00  0.00    +0.114 C 
ATOM     16  C   UNL     1      -1.289   0.739  25.507  0.00  0.00    +0.119 C 
ATOM     17  C   UNL     1       0.174   4.007  25.637  0.00  0.00    +0.130 C 
ATOM     18  C   UNL     1      -2.164   3.087  25.758  0.00  0.00    +0.049 A 
ATOM     19  C   UNL     1      -3.476   3.257  25.494  0.00  0.00    +0.068 A 
ATOM     20  C   UNL     1      -1.672   5.207  24.595  0.00  0.00    +0.252 A 
ATOM     21  C   UNL     1      -3.967   4.402  24.780  0.00  0.00    +0.031 A 
ATOM     22  C   UNL     1      -3.129   5.337  24.333  0.00  0.00    +0.072 A 
ENDROOT
BRANCH   9   1
ATOM      1  S   UNL     1       0.011   0.148  23.198  0.00  0.00    +0.061 S 
ATOM      3  O   UNL     1      -0.450   0.826  22.005  0.00  0.00    -0.153 OA
ATOM      4  O   UNL     1      -0.454  -1.183  23.526  0.00  0.00    -0.153 OA
BRANCH   1  23
ATOM     23  C   UNL     1       1.776   0.109  23.148  0.00  0.00    +0.106 A 
ATOM     24  C   UNL     1       2.467   1.240  22.742  0.00  0.00    +0.032 A 
ATOM     25  C   UNL     1       2.440  -1.050  23.512  0.00  0.00    +0.032 A 
ATOM     27  C   UNL     1       3.861   1.209  22.703  0.00  0.00    +0.047 A 
ATOM     28  C   UNL     1       3.833  -1.080  23.472  0.00  0.00    +0.047 A 
ATOM     29  C   UNL     1       4.544   0.049  23.067  0.00  0.00    +0.120 A 
BRANCH  29   8
ATOM      8  O   UNL     1       5.905   0.020  23.028  0.00  0.00    -0.495 OA
ATOM     35  C   UNL     1       6.571  -0.681  24.077  0.00  0.00    +0.277 C 
ENDBRANCH  29   8
ENDBRANCH   1  23
ENDBRANCH   9   1
BRANCH  19  11
ATOM     11  N   UNL     1      -4.403   2.273  25.911  0.00  0.00    -0.215 N 
ATOM     36  H   UNL     1      -4.955   2.521  26.740  0.00  0.00    +0.174 HD
BRANCH  11   2
ATOM      2  S   UNL     1      -5.242   1.454  24.695  0.00  0.00    +0.072 S 
ATOM      6  O   UNL     1      -6.638   1.320  25.067  0.00  0.00    -0.150 OA
ATOM      7  O   UNL     1      -4.880   1.995  23.399  0.00  0.00    -0.150 OA
BRANCH   2  26
ATOM     26  C   UNL     1      -4.506  -0.149  24.822  0.00  0.00    +0.108 A 
ATOM     30  C   UNL     1      -3.975  -0.553  26.035  0.00  0.00    +0.029 A 
ATOM     31  C   UNL     1      -4.475  -0.967  23.707  0.00  0.00    +0.029 A 
ATOM     32  C   UNL     1      -3.393  -1.817  26.134  0.00  0.00    +0.002 A 
ATOM     33  C   UNL     1      -3.893  -2.231  23.807  0.00  0.00    +0.002 A 
ATOM     34  C   UNL     1      -3.352  -2.657  25.021  0.00  0.00    +0.000 A 
ENDBRANCH   2  26
ENDBRANCH  11   2
ENDBRANCH  19  11
TORSDOF 6
ENDMDL
MODEL 3
REMARK VINA RESULT:       7.9      2.247      5.804
REMARK  Name = 7661884
REMARK  7 active torsions:
REMARK  status: ('A' for Active; 'I' for Inactive)
REMARK    1  A    between atoms: S_1  and  N_9
REMARK    2  A    between atoms: S_1  and  C_23
REMARK    3  A    between atoms: S_2  and  N_11
REMARK    4  A    between atoms: S_2  and  C_26
REMARK    5  A    between atoms: O_8  and  C_29
REMARK    6  A    between atoms: O_8  and  C_35
REMARK    7  A    between atoms: N_11  and  C_19
REMARK                            x       y       z     vdW  Elec       q    Type
REMARK                         _______ _______ _______ _____ _____    ______ ____
ROOT
ATOM      5  O   UNL     1       1.694  -0.387  22.246  0.00  0.00    -0.268 OA
ATOM      9  N   UNL     1      -2.639  -1.240  24.569  0.00  0.00    -0.176 NA
ATOM     10  N   UNL     1       0.372  -0.351  24.181  0.00  0.00    -0.310 N 
ATOM     12  C   UNL     1      -0.579  -2.492  25.213  0.00  0.00    +0.025 C 
ATOM     13  C   UNL     1      -1.058  -0.320  26.251  0.00  0.00    +0.054 C 
ATOM     14  C   UNL     1      -0.509  -1.720  26.518  0.00  0.00    +0.017 C 
ATOM     15  C   UNL     1      -2.029  -2.592  24.714  0.00  0.00    +0.114 C 
ATOM     16  C   UNL     1      -2.531  -0.425  25.815  0.00  0.00    +0.119 C 
ATOM     17  C   UNL     1       0.347  -1.818  24.199  0.00  0.00    +0.130 C 
ATOM     18  C   UNL     1      -0.242   0.418  25.190  0.00  0.00    +0.049 A 
ATOM     19  C   UNL     1      -0.097   1.759  25.157  0.00  0.00    +0.068 A 
ATOM     20  C   UNL     1       1.126   0.236  23.144  0.00  0.00    +0.252 A 
ATOM     21  C   UNL     1       0.664   2.417  24.133  0.00  0.00    +0.031 A 
ATOM     22  C   UNL     1       1.246   1.717  23.159  0.00  0.00    +0.072 A 
ENDROOT
BRANCH   9   1
ATOM      1  S   UNL     1      -4.159  -1.193  23.784  0.00  0.00    +0.061 S 
ATOM      3  O   UNL     1      -4.952  -2.322  24.220  0.00  0.00    -0.153 OA
ATOM      4  O   UNL     1      -3.953  -0.927  22.376  0.00  0.00    -0.153 OA
BRANCH   1  23
ATOM     23  C   UNL     1      -4.841   0.261  24.518  0.00  0.00    +0.106 A 
ATOM     24  C   UNL     1      -6.080   0.714  24.096  0.00  0.00    +0.032 A 
ATOM     25  C   UNL     1      -4.127   0.924  25.501  0.00  0.00    +0.032 A 
ATOM     27  C   UNL     1      -6.621   1.862  24.676  0.00  0.00    +0.047 A 
ATOM     28  C   UNL     1      -4.666   2.072  26.080  0.00  0.00    +0.047 A 
ATOM     29  C   UNL     1      -5.913   2.542  25.667  0.00  0.00    +0.120 A 
BRANCH  29   8
ATOM      8  O   UNL     1      -6.440   3.662  26.232  0.00  0.00    -0.495 OA
ATOM     35  C   UNL     1      -6.232   4.896  25.548  0.00  0.00    +0.277 C 
ENDBRANCH  29   8
ENDBRANCH   1  23
ENDBRANCH   9   1
BRANCH  19  11
ATOM     11  N   UNL     1      -0.729   2.552  26.143  0.00  0.00    -0.215 N 
ATOM     36  H   UNL     1      -0.244   2.587  27.047  0.00  0.00    +0.174 HD
BRANCH  11   2
ATOM      2  S   UNL     1      -1.413   4.007  25.627  0.00  0.00    +0.072 S 
ATOM      6  O   UNL     1      -2.405   4.452  26.588  0.00  0.00    -0.150 OA
ATOM      7  O   UNL     1      -0.370   4.911  25.183  0.00  0.00    -0.150 OA
BRANCH   2  26
ATOM     26  C   UNL     1      -2.283   3.459  24.187  0.00  0.00    +0.108 A 
ATOM     30  C   UNL     1      -3.426   4.134  23.793  0.00  0.00    +0.029 A 
ATOM     31  C   UNL     1      -1.806   2.368  23.485  0.00  0.00    +0.029 A 
ATOM     32  C   UNL     1      -4.113   3.701  22.659  0.00  0.00    +0.002 A 
ATOM     33  C   UNL     1      -2.493   1.935  22.351  0.00  0.00    +0.002 A 
ATOM     34  C   UNL     1      -3.647   2.602  21.937  0.00  0.00    +0.000 A 
ENDBRANCH   2  26
ENDBRANCH  11   2
ENDBRANCH  19  11
TORSDOF 6
ENDMDL
MODEL 4
REMARK VINA RESULT:       8.5      2.149      3.671
REMARK  Name = 7661884
REMARK  7 active torsions:
REMARK  status: ('A' for Active; 'I' for Inactive)
REMARK    1  A    between atoms: S_1  and  N_9
REMARK    2  A    between atoms: S_1  and  C_23
REMARK    3  A    between atoms: S_2  and  N_11
REMARK    4  A    between atoms: S_2  and  C_26
REMARK    5  A    between atoms: O_8  and  C_29
REMARK    6  A    between atoms: O_8  and  C_35
REMARK    7  A    between atoms: N_11  and  C_19
REMARK                            x       y       z     vdW  Elec       q    Type
REMARK                         _______ _______ _______ _____ _____    ______ ____
ROOT
ATOM      5  O   UNL     1      -1.526  -1.025  26.904  0.00  0.00    -0.268 OA
ATOM      9  N   UNL     1      -2.070   3.297  24.467  0.00  0.00    -0.176 NA
ATOM     10  N   UNL     1      -0.617   0.776  25.711  0.00  0.00    -0.310 N 
ATOM     12  C   UNL     1      -0.747   3.181  26.580  0.00  0.00    +0.025 C 
ATOM     13  C   UNL     1       0.346   2.718  24.431  0.00  0.00    +0.054 C 
ATOM     14  C   UNL     1       0.538   3.379  25.794  0.00  0.00    +0.017 C 
ATOM     15  C   UNL     1      -1.937   3.827  25.853  0.00  0.00    +0.114 C 
ATOM     16  C   UNL     1      -0.805   3.414  23.683  0.00  0.00    +0.119 C 
ATOM     17  C   UNL     1      -0.946   1.683  26.817  0.00  0.00    +0.130 C 
ATOM     18  C   UNL     1       0.066   1.220  24.561  0.00  0.00    +0.049 A 
ATOM     19  C   UNL     1       0.416   0.310  23.628  0.00  0.00    +0.068 A 
ATOM     20  C   UNL     1      -0.944  -0.580  25.913  0.00  0.00    +0.252 A 
ATOM     21  C   UNL     1       0.120  -1.087  23.778  0.00  0.00    +0.031 A 
ATOM     22  C   UNL     1      -0.535  -1.533  24.850  0.00  0.00    +0.072 A 
ENDROOT
BRANCH   9   1
ATOM      1  S   UNL     1      -3.499   3.741  23.638  0.00  0.00    +0.061 S 
ATOM      3  O   UNL     1      -3.545   3.047  22.369  0.00  0.00    -0.153 OA
ATOM      4  O   UNL     1      -3.657   5.178  23.708  0.00  0.00    -0.153 OA
BRANCH   1  23
ATOM     23  C   UNL     1      -4.710   3.010  24.696  0.00  0.00    +0.106 A 
ATOM     24  C   UNL     1      -5.500   3.827  25.487  0.00  0.00    +0.032 A 
ATOM     25  C   UNL     1      -4.849   1.632  24.717  0.00  0.00    +0.032 A 
ATOM     27  C   UNL     1      -6.457   3.251  26.322  0.00  0.00    +0.047 A 
ATOM     28  C   UNL     1      -5.805   1.056  25.552  0.00  0.00    +0.047 A 
ATOM     29  C   UNL     1      -6.609   1.864  26.355  0.00  0.00    +0.120 A 
BRANCH  29   8
ATOM      8  O   UNL     1      -7.544   1.302  27.170  0.00  0.00    -0.495 OA
ATOM     35  C   UNL     1      -7.070   0.623  28.332  0.00  0.00    +0.277 C 
ENDBRANCH  29   8
ENDBRANCH   1  23
ENDBRANCH   9   1
BRANCH  19  11
ATOM     11  N   UNL     1       1.076   0.738  22.452  0.00  0.00    -0.215 N 
ATOM     36  H   UNL     1       1.433   1.699  22.481  0.00  0.00    +0.174 HD
BRANCH  11   2
ATOM      2  S   UNL     1       2.077  -0.388  21.688  0.00  0.00    +0.072 S 
ATOM      6  O   UNL     1       1.503  -1.715  21.807  0.00  0.00    -0.150 OA
ATOM      7  O   UNL     1       2.484   0.118  20.391  0.00  0.00    -0.150 OA
BRANCH   2  26
ATOM     26  C   UNL     1       3.493  -0.329  22.746  0.00  0.00    +0.108 A 
ATOM     30  C   UNL     1       3.863  -1.467  23.443  0.00  0.00    +0.029 A 
ATOM     31  C   UNL     1       4.203   0.853  22.857  0.00  0.00    +0.029 A 
ATOM     32  C   UNL     1       4.978  -1.420  24.278  0.00  0.00    +0.002 A 
ATOM     33  C   UNL     1       5.319   0.900  23.693  0.00  0.00    +0.002 A 
ATOM     34  C   UNL     1       5.707  -0.236  24.403  0.00  0.00    +0.000 A 
ENDBRANCH   2  26
ENDBRANCH  11   2
ENDBRANCH  19  11
TORSDOF 6
ENDMDL
MODEL 5
REMARK VINA RESULT:       9.1      1.868      2.463
REMARK  Name = 7661884
REMARK  7 active torsions:
REMARK  status: ('A' for Active; 'I' for Inactive)
REMARK    1  A    between atoms: S_1  and  N_9
REMARK    2  A    between atoms: S_1  and  C_23
REMARK    3  A    between atoms: S_2  and  N_11
REMARK    4  A    between atoms: S_2  and  C_26
REMARK    5  A    between atoms: O_8  and  C_29
REMARK    6  A    between atoms: O_8  and  C_35
REMARK    7  A    between atoms: N_11  and  C_19
REMARK                            x       y       z     vdW  Elec       q    Type
REMARK                         _______ _______ _______ _____ _____    ______ ____
ROOT
ATOM      5  O   UNL     1      -0.842  -0.688  27.705  0.00  0.00    -0.268 OA
ATOM      9  N   UNL     1      -2.387   3.133  24.891  0.00  0.00    -0.176 NA
ATOM     10  N   UNL     1      -0.410   0.998  26.136  0.00  0.00    -0.310 N 
ATOM     12  C   UNL     1      -0.700   3.480  26.697  0.00  0.00    +0.025 C 
ATOM     13  C   UNL     1       0.039   2.815  24.452  0.00  0.00    +0.054 C 
ATOM     14  C   UNL     1       0.383   3.691  25.654  0.00  0.00    +0.017 C 
ATOM     15  C   UNL     1      -2.077   3.878  26.143  0.00  0.00    +0.114 C 
ATOM     16  C   UNL     1      -1.311   3.264  23.863  0.00  0.00    +0.119 C 
ATOM     17  C   UNL     1      -0.652   2.022  27.159  0.00  0.00    +0.130 C 
ATOM     18  C   UNL     1      -0.012   1.333  24.825  0.00  0.00    +0.049 A 
ATOM     19  C   UNL     1       0.282   0.335  23.967  0.00  0.00    +0.068 A 
ATOM     20  C   UNL     1      -0.512  -0.339  26.571  0.00  0.00    +0.252 A 
ATOM     21  C   UNL     1       0.206  -1.047  24.350  0.00  0.00    +0.031 A 
ATOM     22  C   UNL     1      -0.179  -1.393  25.578  0.00  0.00    +0.072 A 
ENDROOT
BRANCH   9   1
ATOM      1  S   UNL     1      -3.988   3.292  24.310  0.00  0.00    +0.061 S 
ATOM      3  O   UNL     1      -3.955   3.855  22.977  0.00  0.00    -0.153 OA
ATOM      4  O   UNL     1      -4.809   3.881  25.347  0.00  0.00    -0.153 OA
BRANCH   1  23
ATOM     23  C   UNL     1      -4.435   1.590  24.165  0.00  0.00    +0.106 A 
ATOM     24  C   UNL     1      -5.705   1.189  24.546  0.00  0.00    +0.032 A 
ATOM     25  C   UNL     1      -3.509   0.685  23.675  0.00  0.00    +0.032 A 
ATOM     27  C   UNL     1      -6.059  -0.156  24.431  0.00  0.00    +0.047 A 
ATOM     28  C   UNL     1      -3.863  -0.659  23.560  0.00  0.00    +0.047 A 
ATOM     29  C   UNL     1      -5.137  -1.080  23.939  0.00  0.00    +0.120 A 
BRANCH  29   8
ATOM      8  O   UNL     1      -5.483  -2.392  23.827  0.00  0.00    -0.495 OA
ATOM     35  C   UNL     1      -4.431  -3.324  23.583  0.00  0.00    +0.277 C 
ENDBRANCH  29   8
ENDBRANCH   1  23
ENDBRANCH   9   1
BRANCH  19  11
ATOM     11  N   UNL     1       0.656   0.647  22.639  0.00  0.00    -0.215 N 
ATOM     36  H   UNL     1       0.911   1.628  22.480  0.00  0.00    +0.174 HD
BRANCH  11   2
ATOM      2  S   UNL     1       1.600  -0.493  21.825  0.00  0.00    +0.072 S 
ATOM      6  O   UNL     1       1.103  -1.828  22.097  0.00  0.00    -0.150 OA
ATOM      7  O   UNL     1       1.823  -0.061  20.459  0.00  0.00    -0.150 OA
BRANCH   2  26
ATOM     26  C   UNL     1       3.133  -0.314  22.690  0.00  0.00    +0.108 A 
ATOM     30  C   UNL     1       3.661  -1.406  23.358  0.00  0.00    +0.029 A 
ATOM     31  C   UNL     1       3.773   0.912  22.684  0.00  0.00    +0.029 A 
ATOM     32  C   UNL     1       4.869  -1.266  24.041  0.00  0.00    +0.002 A 
ATOM     33  C   UNL     1       4.981   1.052  23.367  0.00  0.00    +0.002 A 
ATOM     34  C   UNL     1       5.529  -0.036  24.046  0.00  0.00    +0.000 A 
ENDBRANCH   2  26
ENDBRANCH  11   2
ENDBRANCH  19  11
TORSDOF 6
ENDMDL
