MODEL 1
REMARK VINA RESULT:      -4.5      0.000      0.000
REMARK  Name = 56775230
REMARK  5 active torsions:
REMARK  status: ('A' for Active; 'I' for Inactive)
REMARK    1  A    between atoms: O_4  and  C_23
REMARK    2  A    between atoms: O_4  and  C_24
REMARK    3  A    between atoms: N_5  and  C_11
REMARK    4  A    between atoms: C_7  and  C_11
REMARK    5  A    between atoms: C_17  and  C_18
REMARK                            x       y       z     vdW  Elec       q    Type
REMARK                         _______ _______ _______ _____ _____    ______ ____
ROOT
ATOM      1  O   UNL     1      -7.904 -10.468   9.295  0.00  0.00    -0.364 OA
ATOM      2  O   UNL     1      -4.545 -10.584   8.126  0.00  0.00    -0.273 OA
ATOM      3  O   UNL     1     -10.006  -9.717  13.547  0.00  0.00    -0.270 OA
ATOM      5  N   UNL     1      -5.492  -9.144   9.689  0.00  0.00    -0.292 N 
ATOM      6  N   UNL     1      -8.198  -9.472  12.109  0.00  0.00    -0.293 N 
ATOM      8  C   UNL     1      -6.671  -8.756  10.451  0.00  0.00    +0.124 C 
ATOM     12  C   UNL     1      -7.991  -9.132   9.783  0.00  0.00    +0.158 C 
ATOM     13  C   UNL     1      -6.768  -9.465  11.806  0.00  0.00    +0.133 C 
ATOM     14  C   UNL     1      -8.985  -9.102  10.937  0.00  0.00    +0.141 C 
ATOM     15  C   UNL     1      -5.533 -10.126   8.703  0.00  0.00    +0.242 C 
ATOM     16  C   UNL     1      -6.924 -10.569   8.287  0.00  0.00    +0.256 C 
ATOM     17  C   UNL     1      -8.794  -9.721  13.336  0.00  0.00    +0.247 C 
ENDROOT
BRANCH  17  18
ATOM     18  C   UNL     1      -7.909  -9.999  14.478  0.00  0.00    +0.037 A 
ATOM     19  C   UNL     1      -8.358  -9.774  15.778  0.00  0.00    +0.016 A 
ATOM     20  C   UNL     1      -6.620 -10.486  14.260  0.00  0.00    +0.016 A 
ATOM     21  C   UNL     1      -7.519 -10.036  16.862  0.00  0.00    +0.046 A 
ATOM     22  C   UNL     1      -5.782 -10.748  15.342  0.00  0.00    +0.046 A 
ATOM     23  C   UNL     1      -6.230 -10.523  16.643  0.00  0.00    +0.120 A 
BRANCH  23   4
ATOM      4  O   UNL     1      -5.412 -10.779  17.700  0.00  0.00    -0.495 OA
ATOM     24  C   UNL     1      -5.919 -10.482  19.000  0.00  0.00    +0.277 C 
ENDBRANCH  23   4
ENDBRANCH  17  18
BRANCH   5  11
ATOM     11  C   UNL     1      -4.218  -8.578  10.112  0.00  0.00    +0.111 C 
BRANCH  11   7
ATOM      7  C   UNL     1      -3.210  -9.647  10.360  0.00  0.00    +0.006 C 
ATOM      9  C   UNL     1      -1.874  -9.276  10.932  0.00  0.00    +0.005 C 
ATOM     10  C   UNL     1      -2.869 -10.021  11.772  0.00  0.00    +0.005 C 
ENDBRANCH  11   7
ENDBRANCH   5  11
TORSDOF 4
ENDMDL
MODEL 2
REMARK VINA RESULT:      -2.6     15.351     17.895
REMARK  Name = 56775230
REMARK  5 active torsions:
REMARK  status: ('A' for Active; 'I' for Inactive)
REMARK    1  A    between atoms: O_4  and  C_23
REMARK    2  A    between atoms: O_4  and  C_24
REMARK    3  A    between atoms: N_5  and  C_11
REMARK    4  A    between atoms: C_7  and  C_11
REMARK    5  A    between atoms: C_17  and  C_18
REMARK                            x       y       z     vdW  Elec       q    Type
REMARK                         _______ _______ _______ _____ _____    ______ ____
ROOT
ATOM      1  O   UNL     1      -5.142   0.721  24.487  0.00  0.00    -0.364 OA
ATOM      2  O   UNL     1      -5.351   4.271  24.609  0.00  0.00    -0.273 OA
ATOM      3  O   UNL     1      -1.567  -2.471  24.186  0.00  0.00    -0.270 OA
ATOM      5  N   UNL     1      -3.797   2.870  25.628  0.00  0.00    -0.292 N 
ATOM      6  N   UNL     1      -2.357  -0.361  24.751  0.00  0.00    -0.293 N 
ATOM      8  C   UNL     1      -3.311   1.512  25.833  0.00  0.00    +0.124 C 
ATOM     12  C   UNL     1      -4.382   0.439  25.660  0.00  0.00    +0.158 C 
ATOM     13  C   UNL     1      -2.251   1.096  24.809  0.00  0.00    +0.133 C 
ATOM     14  C   UNL     1      -3.569  -0.826  25.416  0.00  0.00    +0.141 C 
ATOM     15  C   UNL     1      -4.968   3.143  24.925  0.00  0.00    +0.242 C 
ATOM     16  C   UNL     1      -5.840   1.937  24.625  0.00  0.00    +0.256 C 
ATOM     17  C   UNL     1      -1.437  -1.248  24.213  0.00  0.00    +0.247 C 
ENDROOT
BRANCH  17  18
ATOM     18  C   UNL     1      -0.203  -0.686  23.642  0.00  0.00    +0.037 A 
ATOM     19  C   UNL     1       0.304  -1.190  22.446  0.00  0.00    +0.016 A 
ATOM     20  C   UNL     1       0.460   0.351  24.299  0.00  0.00    +0.016 A 
ATOM     21  C   UNL     1       1.475  -0.658  21.904  0.00  0.00    +0.046 A 
ATOM     22  C   UNL     1       1.630   0.883  23.759  0.00  0.00    +0.046 A 
ATOM     23  C   UNL     1       2.138   0.378  22.562  0.00  0.00    +0.120 A 
BRANCH  23   4
ATOM      4  O   UNL     1       3.280   0.897  22.034  0.00  0.00    -0.495 OA
ATOM     24  C   UNL     1       4.458   0.821  22.836  0.00  0.00    +0.277 C 
ENDBRANCH  23   4
ENDBRANCH  17  18
BRANCH   5  11
ATOM     11  C   UNL     1      -2.921   3.955  26.047  0.00  0.00    +0.111 C 
BRANCH  11   7
ATOM      7  C   UNL     1      -2.053   4.411  24.924  0.00  0.00    +0.006 C 
ATOM      9  C   UNL     1      -1.234   5.657  25.090  0.00  0.00    +0.005 C 
ATOM     10  C   UNL     1      -0.562   4.315  25.063  0.00  0.00    +0.005 C 
ENDBRANCH  11   7
ENDBRANCH   5  11
TORSDOF 4
ENDMDL
