MODEL 1
REMARK VINA RESULT:       4.9      0.000      0.000
REMARK  Name = 26743124
REMARK  7 active torsions:
REMARK  status: ('A' for Active; 'I' for Inactive)
REMARK    1  A    between atoms: S_1  and  C_25
REMARK    2  A    between atoms: S_1  and  C_30
REMARK    3  A    between atoms: C_9  and  C_13
REMARK    4  A    between atoms: C_10  and  C_15
REMARK    5  A    between atoms: C_13  and  C_16
REMARK    6  A    between atoms: C_15  and  C_17
REMARK    7  A    between atoms: C_24  and  C_25
REMARK                            x       y       z     vdW  Elec       q    Type
REMARK                         _______ _______ _______ _____ _____    ______ ____
ROOT
ATOM      4  N   UNL     1      -3.188  -3.360  24.819  0.00  0.00    -0.316 NA
ATOM      9  C   UNL     1      -2.850  -0.433  24.665  0.00  0.00    +0.004 C 
ATOM     10  C   UNL     1      -4.234  -1.107  24.810  0.00  0.00    +0.012 C 
ATOM     11  C   UNL     1      -1.770  -1.376  25.219  0.00  0.00    +0.019 C 
ATOM     12  C   UNL     1      -4.237  -2.530  24.225  0.00  0.00    +0.085 C 
ATOM     14  C   UNL     1      -1.860  -2.780  24.622  0.00  0.00    +0.081 C 
ATOM     36  H   UNL     1      -3.215  -4.290  24.402  0.00  0.00    +0.122 HD
ENDROOT
BRANCH   9  13
ATOM     13  C   UNL     1      -2.513  -0.000  23.233  0.00  0.00    +0.100 C 
BRANCH  13  16
ATOM      2  O   UNL     1      -2.077   2.329  23.367  0.00  0.00    -0.276 OA
ATOM      5  N   UNL     1      -0.233   0.935  23.139  0.00  0.00    -0.298 N 
ATOM      6  N   UNL     1       2.628   0.491  23.123  0.00  0.00    -0.312 N 
ATOM      8  N   UNL     1       4.579  -0.369  22.108  0.00  0.00    -0.240 NA
ATOM     16  C   UNL     1      -1.598   1.199  23.254  0.00  0.00    +0.216 C 
ATOM     18  C   UNL     1       0.717   2.045  23.148  0.00  0.00    +0.126 C 
ATOM     19  C   UNL     1       0.335  -0.409  23.017  0.00  0.00    +0.126 C 
ATOM     20  C   UNL     1       2.044   1.655  23.796  0.00  0.00    +0.125 C 
ATOM     21  C   UNL     1       1.730  -0.407  22.391  0.00  0.00    +0.125 C 
ATOM     23  C   UNL     1       4.002   0.268  23.152  0.00  0.00    +0.121 A 
ATOM     26  C   UNL     1       4.694   0.721  24.263  0.00  0.00    +0.043 A 
ATOM     27  C   UNL     1       6.068   0.506  24.307  0.00  0.00    +0.005 A 
ATOM     28  C   UNL     1       5.915  -0.560  22.186  0.00  0.00    +0.113 A 
ATOM     29  C   UNL     1       6.697  -0.145  23.252  0.00  0.00    +0.020 A 
ENDBRANCH  13  16
ENDBRANCH   9  13
BRANCH  10  15
ATOM     15  C   UNL     1      -5.371  -0.279  24.212  0.00  0.00    +0.064 C 
BRANCH  15  17
ATOM      3  O   UNL     1      -5.840   2.597  26.327  0.00  0.00    -0.359 OA
ATOM      7  N   UNL     1      -5.925   1.235  26.066  0.00  0.00    -0.083 NA
ATOM     17  C   UNL     1      -5.437   1.087  24.832  0.00  0.00    +0.084 A 
ATOM     22  C   UNL     1      -5.033   2.310  24.269  0.00  0.00    +0.071 A 
ATOM     24  C   UNL     1      -5.308   3.227  25.248  0.00  0.00    +0.148 A 
BRANCH  24  25
ATOM     25  C   UNL     1      -5.145   4.682  25.353  0.00  0.00    +0.151 C 
BRANCH  25   1
ATOM      1  S   UNL     1      -4.070   5.188  26.742  0.00  0.00    -0.117 S 
BRANCH   1  30
ATOM     30  C   UNL     1      -2.477   4.615  26.168  0.00  0.00    +0.008 A 
ATOM     31  C   UNL     1      -1.761   5.365  25.236  0.00  0.00    +0.015 A 
ATOM     32  C   UNL     1      -1.952   3.418  26.653  0.00  0.00    +0.015 A 
ATOM     33  C   UNL     1      -0.518   4.917  24.787  0.00  0.00    +0.001 A 
ATOM     34  C   UNL     1      -0.709   2.969  26.204  0.00  0.00    +0.001 A 
ATOM     35  C   UNL     1       0.007   3.720  25.271  0.00  0.00    +0.000 A 
ENDBRANCH   1  30
ENDBRANCH  25   1
ENDBRANCH  24  25
ENDBRANCH  15  17
ENDBRANCH  10  15
TORSDOF 7
ENDMDL
MODEL 2
REMARK VINA RESULT:       5.9      2.801      5.950
REMARK  Name = 26743124
REMARK  7 active torsions:
REMARK  status: ('A' for Active; 'I' for Inactive)
REMARK    1  A    between atoms: S_1  and  C_25
REMARK    2  A    between atoms: S_1  and  C_30
REMARK    3  A    between atoms: C_9  and  C_13
REMARK    4  A    between atoms: C_10  and  C_15
REMARK    5  A    between atoms: C_13  and  C_16
REMARK    6  A    between atoms: C_15  and  C_17
REMARK    7  A    between atoms: C_24  and  C_25
REMARK                            x       y       z     vdW  Elec       q    Type
REMARK                         _______ _______ _______ _____ _____    ______ ____
ROOT
ATOM      4  N   UNL     1      -5.162   0.836  26.650  0.00  0.00    -0.316 NA
ATOM      9  C   UNL     1      -5.258   1.283  23.735  0.00  0.00    +0.004 C 
ATOM     10  C   UNL     1      -5.103  -0.123  24.359  0.00  0.00    +0.012 C 
ATOM     11  C   UNL     1      -5.941   2.212  24.752  0.00  0.00    +0.019 C 
ATOM     12  C   UNL     1      -4.439  -0.059  25.746  0.00  0.00    +0.085 C 
ATOM     14  C   UNL     1      -5.251   2.194  26.114  0.00  0.00    +0.081 C 
ATOM     36  H   UNL     1      -4.689   0.859  27.553  0.00  0.00    +0.122 HD
ENDROOT
BRANCH   9  13
ATOM     13  C   UNL     1      -3.943   1.894  23.236  0.00  0.00    +0.100 C 
BRANCH  13  16
ATOM      2  O   UNL     1      -4.278   4.148  23.898  0.00  0.00    -0.276 OA
ATOM      5  N   UNL     1      -2.519   3.015  24.909  0.00  0.00    -0.298 N 
ATOM      6  N   UNL     1      -0.425   2.835  26.899  0.00  0.00    -0.312 N 
ATOM      8  N   UNL     1       1.819   2.418  27.504  0.00  0.00    -0.240 NA
ATOM     16  C   UNL     1      -3.605   3.125  24.039  0.00  0.00    +0.216 C 
ATOM     18  C   UNL     1      -2.127   4.166  25.719  0.00  0.00    +0.126 C 
ATOM     19  C   UNL     1      -1.729   1.795  25.084  0.00  0.00    +0.126 C 
ATOM     20  C   UNL     1      -1.561   3.745  27.073  0.00  0.00    +0.125 C 
ATOM     21  C   UNL     1      -0.336   2.069  25.653  0.00  0.00    +0.125 C 
ATOM     23  C   UNL     1       0.558   2.730  27.879  0.00  0.00    +0.121 A 
ATOM     26  C   UNL     1       0.173   2.955  29.191  0.00  0.00    +0.043 A 
ATOM     27  C   UNL     1       1.144   2.854  30.182  0.00  0.00    +0.005 A 
ATOM     28  C   UNL     1       2.736   2.329  28.494  0.00  0.00    +0.113 A 
ATOM     29  C   UNL     1       2.452   2.536  29.834  0.00  0.00    +0.020 A 
ENDBRANCH  13  16
ENDBRANCH   9  13
BRANCH  10  15
ATOM     15  C   UNL     1      -4.358  -1.104  23.452  0.00  0.00    +0.064 C 
BRANCH  15  17
ATOM      3  O   UNL     1      -1.305  -2.151  25.048  0.00  0.00    -0.359 OA
ATOM      7  N   UNL     1      -2.682  -2.213  24.865  0.00  0.00    -0.083 NA
ATOM     17  C   UNL     1      -2.945  -1.311  23.916  0.00  0.00    +0.084 A 
ATOM     22  C   UNL     1      -1.785  -0.656  23.466  0.00  0.00    +0.071 A 
ATOM     24  C   UNL     1      -0.783  -1.220  24.210  0.00  0.00    +0.148 A 
BRANCH  24  25
ATOM     25  C   UNL     1       0.670  -1.024  24.271  0.00  0.00    +0.151 C 
BRANCH  25   1
ATOM      1  S   UNL     1       1.355  -0.235  22.771  0.00  0.00    -0.117 S 
BRANCH   1  30
ATOM     30  C   UNL     1       3.101  -0.231  23.154  0.00  0.00    +0.008 A 
ATOM     31  C   UNL     1       3.697  -1.364  23.705  0.00  0.00    +0.015 A 
ATOM     32  C   UNL     1       3.866   0.908  22.901  0.00  0.00    +0.015 A 
ATOM     33  C   UNL     1       5.060  -1.360  24.005  0.00  0.00    +0.001 A 
ATOM     34  C   UNL     1       5.229   0.912  23.201  0.00  0.00    +0.001 A 
ATOM     35  C   UNL     1       5.825  -0.223  23.753  0.00  0.00    +0.000 A 
ENDBRANCH   1  30
ENDBRANCH  25   1
ENDBRANCH  24  25
ENDBRANCH  15  17
ENDBRANCH  10  15
TORSDOF 7
ENDMDL
MODEL 3
REMARK VINA RESULT:       6.9      2.571      7.371
REMARK  Name = 26743124
REMARK  7 active torsions:
REMARK  status: ('A' for Active; 'I' for Inactive)
REMARK    1  A    between atoms: S_1  and  C_25
REMARK    2  A    between atoms: S_1  and  C_30
REMARK    3  A    between atoms: C_9  and  C_13
REMARK    4  A    between atoms: C_10  and  C_15
REMARK    5  A    between atoms: C_13  and  C_16
REMARK    6  A    between atoms: C_15  and  C_17
REMARK    7  A    between atoms: C_24  and  C_25
REMARK                            x       y       z     vdW  Elec       q    Type
REMARK                         _______ _______ _______ _____ _____    ______ ____
ROOT
ATOM      4  N   UNL     1      -3.501   3.595  22.584  0.00  0.00    -0.316 NA
ATOM      9  C   UNL     1      -2.949   5.394  24.856  0.00  0.00    +0.004 C 
ATOM     10  C   UNL     1      -1.829   4.663  24.079  0.00  0.00    +0.012 C 
ATOM     11  C   UNL     1      -4.179   5.541  23.947  0.00  0.00    +0.019 C 
ATOM     12  C   UNL     1      -2.340   3.358  23.442  0.00  0.00    +0.085 C 
ATOM     14  C   UNL     1      -4.603   4.214  23.320  0.00  0.00    +0.081 C 
ATOM     36  H   UNL     1      -3.815   2.709  22.188  0.00  0.00    +0.122 HD
ENDROOT
BRANCH   9  13
ATOM     13  C   UNL     1      -3.328   4.725  26.183  0.00  0.00    +0.100 C 
BRANCH  13  16
ATOM      2  O   UNL     1      -5.684   4.451  26.099  0.00  0.00    -0.276 OA
ATOM      5  N   UNL     1      -4.400   2.545  25.758  0.00  0.00    -0.298 N 
ATOM      6  N   UNL     1      -4.139  -0.241  25.018  0.00  0.00    -0.312 N 
ATOM      8  N   UNL     1      -3.352  -2.427  25.445  0.00  0.00    -0.240 NA
ATOM     16  C   UNL     1      -4.583   3.905  26.010  0.00  0.00    +0.216 C 
ATOM     18  C   UNL     1      -5.567   1.684  25.583  0.00  0.00    +0.126 C 
ATOM     19  C   UNL     1      -3.091   1.901  25.641  0.00  0.00    +0.126 C 
ATOM     20  C   UNL     1      -5.297   0.551  24.595  0.00  0.00    +0.125 C 
ATOM     21  C   UNL     1      -3.149   0.394  25.892  0.00  0.00    +0.125 C 
ATOM     23  C   UNL     1      -4.006  -1.571  24.627  0.00  0.00    +0.121 A 
ATOM     26  C   UNL     1      -4.560  -1.932  23.410  0.00  0.00    +0.043 A 
ATOM     27  C   UNL     1      -4.435  -3.257  23.004  0.00  0.00    +0.005 A 
ATOM     28  C   UNL     1      -3.251  -3.706  25.018  0.00  0.00    +0.113 A 
ATOM     29  C   UNL     1      -3.770  -4.167  23.819  0.00  0.00    +0.020 A 
ENDBRANCH  13  16
ENDBRANCH   9  13
BRANCH  10  15
ATOM     15  C   UNL     1      -0.586   4.395  24.928  0.00  0.00    +0.064 C 
BRANCH  15  17
ATOM      3  O   UNL     1       0.270   0.990  25.725  0.00  0.00    -0.359 OA
ATOM      7  N   UNL     1      -0.040   2.297  26.083  0.00  0.00    -0.083 NA
ATOM     17  C   UNL     1      -0.226   2.937  24.926  0.00  0.00    +0.084 A 
ATOM     22  C   UNL     1      -0.048   2.095  23.815  0.00  0.00    +0.071 A 
ATOM     24  C   UNL     1       0.263   0.882  24.371  0.00  0.00    +0.148 A 
BRANCH  24  25
ATOM     25  C   UNL     1       0.572  -0.441  23.817  0.00  0.00    +0.151 C 
BRANCH  25   1
ATOM      1  S   UNL     1       1.560  -0.366  22.281  0.00  0.00    -0.117 S 
BRANCH   1  30
ATOM     30  C   UNL     1       3.218  -0.293  22.944  0.00  0.00    +0.008 A 
ATOM     31  C   UNL     1       3.967   0.877  22.824  0.00  0.00    +0.015 A 
ATOM     32  C   UNL     1       3.762  -1.408  23.582  0.00  0.00    +0.015 A 
ATOM     33  C   UNL     1       5.262   0.932  23.341  0.00  0.00    +0.001 A 
ATOM     34  C   UNL     1       5.057  -1.352  24.100  0.00  0.00    +0.001 A 
ATOM     35  C   UNL     1       5.806  -0.182  23.979  0.00  0.00    +0.000 A 
ENDBRANCH   1  30
ENDBRANCH  25   1
ENDBRANCH  24  25
ENDBRANCH  15  17
ENDBRANCH  10  15
TORSDOF 7
ENDMDL
MODEL 4
REMARK VINA RESULT:       8.8      2.519      3.858
REMARK  Name = 26743124
REMARK  7 active torsions:
REMARK  status: ('A' for Active; 'I' for Inactive)
REMARK    1  A    between atoms: S_1  and  C_25
REMARK    2  A    between atoms: S_1  and  C_30
REMARK    3  A    between atoms: C_9  and  C_13
REMARK    4  A    between atoms: C_10  and  C_15
REMARK    5  A    between atoms: C_13  and  C_16
REMARK    6  A    between atoms: C_15  and  C_17
REMARK    7  A    between atoms: C_24  and  C_25
REMARK                            x       y       z     vdW  Elec       q    Type
REMARK                         _______ _______ _______ _____ _____    ______ ____
ROOT
ATOM      4  N   UNL     1      -3.703   0.725  22.576  0.00  0.00    -0.316 NA
ATOM      9  C   UNL     1      -5.074  -0.120  25.049  0.00  0.00    +0.004 C 
ATOM     10  C   UNL     1      -5.093   1.341  24.540  0.00  0.00    +0.012 C 
ATOM     11  C   UNL     1      -4.825  -1.063  23.860  0.00  0.00    +0.019 C 
ATOM     12  C   UNL     1      -3.852   1.663  23.689  0.00  0.00    +0.085 C 
ATOM     14  C   UNL     1      -3.602  -0.658  23.040  0.00  0.00    +0.081 C 
ATOM     36  H   UNL     1      -2.868   0.964  22.042  0.00  0.00    +0.122 HD
ENDROOT
BRANCH   9  13
ATOM     13  C   UNL     1      -4.060  -0.377  26.170  0.00  0.00    +0.100 C 
BRANCH  13  16
ATOM      2  O   UNL     1      -3.416  -2.650  25.935  0.00  0.00    -0.276 OA
ATOM      5  N   UNL     1      -1.892  -1.055  25.207  0.00  0.00    -0.298 N 
ATOM      6  N   UNL     1       0.553  -0.314  23.847  0.00  0.00    -0.312 N 
ATOM      8  N   UNL     1       2.611   0.843  23.782  0.00  0.00    -0.240 NA
ATOM     16  C   UNL     1      -3.103  -1.470  25.763  0.00  0.00    +0.216 C 
ATOM     18  C   UNL     1      -0.911  -2.054  24.792  0.00  0.00    +0.126 C 
ATOM     19  C   UNL     1      -1.527   0.347  24.993  0.00  0.00    +0.126 C 
ATOM     20  C   UNL     1      -0.108  -1.594  23.577  0.00  0.00    +0.125 C 
ATOM     21  C   UNL     1      -0.016   0.553  24.883  0.00  0.00    +0.125 C 
ATOM     23  C   UNL     1       1.710   0.048  23.162  0.00  0.00    +0.121 A 
ATOM     26  C   UNL     1       1.862  -0.439  21.874  0.00  0.00    +0.043 A 
ATOM     27  C   UNL     1       3.012  -0.087  21.175  0.00  0.00    +0.005 A 
ATOM     28  C   UNL     1       3.716   1.164  23.072  0.00  0.00    +0.113 A 
ATOM     29  C   UNL     1       3.962   0.729  21.780  0.00  0.00    +0.020 A 
ENDBRANCH  13  16
ENDBRANCH   9  13
BRANCH  10  15
ATOM     15  C   UNL     1      -5.254   2.365  25.664  0.00  0.00    +0.064 C 
BRANCH  15  17
ATOM      3  O   UNL     1      -2.932   5.093  26.030  0.00  0.00    -0.359 OA
ATOM      7  N   UNL     1      -4.219   4.567  26.004  0.00  0.00    -0.083 NA
ATOM     17  C   UNL     1      -4.055   3.265  25.759  0.00  0.00    +0.084 A 
ATOM     22  C   UNL     1      -2.701   2.913  25.622  0.00  0.00    +0.071 A 
ATOM     24  C   UNL     1      -2.037   4.098  25.800  0.00  0.00    +0.148 A 
BRANCH  24  25
ATOM     25  C   UNL     1      -0.620   4.480  25.794  0.00  0.00    +0.151 C 
BRANCH  25   1
ATOM      1  S   UNL     1       0.511   3.049  25.666  0.00  0.00    -0.117 S 
BRANCH   1  30
ATOM     30  C   UNL     1       1.011   2.856  27.372  0.00  0.00    +0.008 A 
ATOM     31  C   UNL     1       0.074   2.481  28.334  0.00  0.00    +0.015 A 
ATOM     32  C   UNL     1       2.337   3.080  27.738  0.00  0.00    +0.015 A 
ATOM     33  C   UNL     1       0.464   2.331  29.666  0.00  0.00    +0.001 A 
ATOM     34  C   UNL     1       2.727   2.931  29.070  0.00  0.00    +0.001 A 
ATOM     35  C   UNL     1       1.790   2.556  30.033  0.00  0.00    +0.000 A 
ENDBRANCH   1  30
ENDBRANCH  25   1
ENDBRANCH  24  25
ENDBRANCH  15  17
ENDBRANCH  10  15
TORSDOF 7
ENDMDL
