MODEL 1
REMARK VINA RESULT:      -5.8      0.000      0.000
REMARK  Name = 51136924
REMARK  4 active torsions:
REMARK  status: ('A' for Active; 'I' for Inactive)
REMARK    1  A    between atoms: N_5  and  C_13
REMARK    2  A    between atoms: C_9  and  C_14
REMARK    3  A    between atoms: C_13  and  C_15
REMARK    4  A    between atoms: C_18  and  C_21
REMARK                            x       y       z     vdW  Elec       q    Type
REMARK                         _______ _______ _______ _____ _____    ______ ____
ROOT
ATOM      5  N   UNL     1      -2.756   2.466  24.990  0.00  0.00    -0.287 NA
ATOM      9  C   UNL     1      -1.733   2.963  24.049  0.00  0.00    +0.146 C 
ATOM     10  C   UNL     1      -1.175   4.235  24.715  0.00  0.00    +0.030 C 
ATOM     11  C   UNL     1      -1.988   4.405  25.991  0.00  0.00    +0.017 C 
ATOM     12  C   UNL     1      -3.262   3.635  25.708  0.00  0.00    +0.085 C 
ENDROOT
BRANCH   9  14
ATOM      4  O   UNL     1      -1.085   0.695  23.410  0.00  0.00    -0.336 OA
ATOM      6  N   UNL     1       0.645   2.063  23.804  0.00  0.00    -0.189 NA
ATOM      7  N   UNL     1       0.071  -0.067  23.199  0.00  0.00    -0.054 NA
ATOM     14  C   UNL     1      -0.657   1.936  23.762  0.00  0.00    +0.245 A 
ATOM     18  C   UNL     1       1.048   0.809  23.451  0.00  0.00    +0.220 A 
BRANCH  18  21
ATOM      3  F   UNL     1       6.409  -0.349  23.045  0.00  0.00    -0.204 F 
ATOM      8  N   UNL     1       3.269   1.466  22.999  0.00  0.00    -0.249 NA
ATOM     21  C   UNL     1       2.438   0.462  23.357  0.00  0.00    +0.111 A 
ATOM     23  C   UNL     1       2.854  -0.832  23.624  0.00  0.00    +0.034 A 
ATOM     24  C   UNL     1       4.212  -1.114  23.518  0.00  0.00    +0.042 A 
ATOM     25  C   UNL     1       4.581   1.154  22.906  0.00  0.00    +0.149 A 
ATOM     26  C   UNL     1       5.098  -0.108  23.153  0.00  0.00    +0.141 A 
ENDBRANCH  18  21
ENDBRANCH   9  14
BRANCH   5  13
ATOM     13  C   UNL     1      -3.824   1.720  24.335  0.00  0.00    +0.120 C 
BRANCH  13  15
ATOM      1  F   UNL     1      -4.699  -2.924  23.117  0.00  0.00    -0.202 F 
ATOM      2  F   UNL     1      -3.489  -3.803  25.407  0.00  0.00    -0.202 F 
ATOM     15  C   UNL     1      -3.734   0.244  24.622  0.00  0.00    -0.030 A 
ATOM     16  C   UNL     1      -4.269  -0.674  23.719  0.00  0.00    +0.046 A 
ATOM     17  C   UNL     1      -3.117  -0.203  25.791  0.00  0.00    +0.008 A 
ATOM     19  C   UNL     1      -4.186  -2.043  23.984  0.00  0.00    +0.159 A 
ATOM     20  C   UNL     1      -3.034  -1.570  26.056  0.00  0.00    +0.041 A 
ATOM     22  C   UNL     1      -3.568  -2.489  25.152  0.00  0.00    +0.158 A 
ENDBRANCH  13  15
ENDBRANCH   5  13
TORSDOF 4
ENDMDL
MODEL 2
REMARK VINA RESULT:      -5.8      1.923      2.664
REMARK  Name = 51136924
REMARK  4 active torsions:
REMARK  status: ('A' for Active; 'I' for Inactive)
REMARK    1  A    between atoms: N_5  and  C_13
REMARK    2  A    between atoms: C_9  and  C_14
REMARK    3  A    between atoms: C_13  and  C_15
REMARK    4  A    between atoms: C_18  and  C_21
REMARK                            x       y       z     vdW  Elec       q    Type
REMARK                         _______ _______ _______ _____ _____    ______ ____
ROOT
ATOM      5  N   UNL     1      -4.854   1.718  25.171  0.00  0.00    -0.287 NA
ATOM      9  C   UNL     1      -4.070   2.544  24.232  0.00  0.00    +0.146 C 
ATOM     10  C   UNL     1      -4.445   3.997  24.581  0.00  0.00    +0.030 C 
ATOM     11  C   UNL     1      -5.489   3.883  25.683  0.00  0.00    +0.017 C 
ATOM     12  C   UNL     1      -6.053   2.490  25.499  0.00  0.00    +0.085 C 
ENDROOT
BRANCH   9  14
ATOM      4  O   UNL     1      -1.958   2.761  25.443  0.00  0.00    -0.336 OA
ATOM      6  N   UNL     1      -1.787   1.666  23.496  0.00  0.00    -0.189 NA
ATOM      7  N   UNL     1      -0.609   2.407  25.311  0.00  0.00    -0.054 NA
ATOM     14  C   UNL     1      -2.581   2.286  24.332  0.00  0.00    +0.245 A 
ATOM     18  C   UNL     1      -0.589   1.766  24.139  0.00  0.00    +0.220 A 
BRANCH  18  21
ATOM      3  F   UNL     1       4.107  -0.215  22.072  0.00  0.00    -0.204 F 
ATOM      8  N   UNL     1       1.729   1.958  23.740  0.00  0.00    -0.249 NA
ATOM     21  C   UNL     1       0.613   1.211  23.585  0.00  0.00    +0.111 A 
ATOM     23  C   UNL     1       0.583  -0.014  22.939  0.00  0.00    +0.034 A 
ATOM     24  C   UNL     1       1.776  -0.506  22.420  0.00  0.00    +0.042 A 
ATOM     25  C   UNL     1       2.869   1.448  23.222  0.00  0.00    +0.149 A 
ATOM     26  C   UNL     1       2.945   0.233  22.559  0.00  0.00    +0.141 A 
ENDBRANCH  18  21
ENDBRANCH   9  14
BRANCH   5  13
ATOM     13  C   UNL     1      -5.178   0.399  24.644  0.00  0.00    +0.120 C 
BRANCH  13  15
ATOM      1  F   UNL     1      -1.009  -0.970  26.779  0.00  0.00    -0.202 F 
ATOM      2  F   UNL     1      -0.871  -3.194  25.194  0.00  0.00    -0.202 F 
ATOM     15  C   UNL     1      -4.027  -0.561  24.790  0.00  0.00    -0.030 A 
ATOM     16  C   UNL     1      -3.031  -0.316  25.736  0.00  0.00    +0.046 A 
ATOM     17  C   UNL     1      -3.957  -1.695  23.981  0.00  0.00    +0.008 A 
ATOM     19  C   UNL     1      -1.964  -1.206  25.872  0.00  0.00    +0.159 A 
ATOM     20  C   UNL     1      -2.891  -2.585  24.117  0.00  0.00    +0.041 A 
ATOM     22  C   UNL     1      -1.895  -2.340  25.063  0.00  0.00    +0.158 A 
ENDBRANCH  13  15
ENDBRANCH   5  13
TORSDOF 4
ENDMDL
MODEL 3
REMARK VINA RESULT:      -4.7      2.779      4.219
REMARK  Name = 51136924
REMARK  4 active torsions:
REMARK  status: ('A' for Active; 'I' for Inactive)
REMARK    1  A    between atoms: N_5  and  C_13
REMARK    2  A    between atoms: C_9  and  C_14
REMARK    3  A    between atoms: C_13  and  C_15
REMARK    4  A    between atoms: C_18  and  C_21
REMARK                            x       y       z     vdW  Elec       q    Type
REMARK                         _______ _______ _______ _____ _____    ______ ____
ROOT
ATOM      5  N   UNL     1      -3.070  -0.188  23.651  0.00  0.00    -0.287 NA
ATOM      9  C   UNL     1      -1.920  -0.096  24.573  0.00  0.00    +0.146 C 
ATOM     10  C   UNL     1      -2.105  -1.274  25.548  0.00  0.00    +0.030 C 
ATOM     11  C   UNL     1      -3.415  -1.931  25.133  0.00  0.00    +0.017 C 
ATOM     12  C   UNL     1      -4.151  -0.828  24.400  0.00  0.00    +0.085 C 
ENDROOT
BRANCH   9  14
ATOM      4  O   UNL     1      -0.638  -0.264  22.499  0.00  0.00    -0.336 OA
ATOM      6  N   UNL     1       0.623  -0.076  24.341  0.00  0.00    -0.189 NA
ATOM      7  N   UNL     1       0.693  -0.282  22.064  0.00  0.00    -0.054 NA
ATOM     14  C   UNL     1      -0.589  -0.139  23.852  0.00  0.00    +0.245 A 
ATOM     18  C   UNL     1       1.375  -0.167  23.207  0.00  0.00    +0.220 A 
BRANCH  18  21
ATOM      3  F   UNL     1       6.870  -0.228  23.435  0.00  0.00    -0.204 F 
ATOM      8  N   UNL     1       3.403  -1.259  23.719  0.00  0.00    -0.249 NA
ATOM     21  C   UNL     1       2.809  -0.140  23.249  0.00  0.00    +0.111 A 
ATOM     23  C   UNL     1       3.498   0.986  22.826  0.00  0.00    +0.034 A 
ATOM     24  C   UNL     1       4.888   0.959  22.888  0.00  0.00    +0.042 A 
ATOM     25  C   UNL     1       4.754  -1.247  23.766  0.00  0.00    +0.149 A 
ATOM     26  C   UNL     1       5.535  -0.174  23.366  0.00  0.00    +0.141 A 
ENDBRANCH  18  21
ENDBRANCH   9  14
BRANCH   5  13
ATOM     13  C   UNL     1      -3.471   1.101  23.102  0.00  0.00    +0.120 C 
BRANCH  13  15
ATOM      1  F   UNL     1      -1.079   4.680  25.401  0.00  0.00    -0.202 F 
ATOM      2  F   UNL     1      -3.256   5.189  26.976  0.00  0.00    -0.202 F 
ATOM     15  C   UNL     1      -3.414   2.193  24.138  0.00  0.00    -0.030 A 
ATOM     16  C   UNL     1      -2.250   2.946  24.293  0.00  0.00    +0.046 A 
ATOM     17  C   UNL     1      -4.525   2.452  24.941  0.00  0.00    +0.008 A 
ATOM     19  C   UNL     1      -2.196   3.959  25.252  0.00  0.00    +0.159 A 
ATOM     20  C   UNL     1      -4.472   3.464  25.899  0.00  0.00    +0.041 A 
ATOM     22  C   UNL     1      -3.308   4.217  26.054  0.00  0.00    +0.158 A 
ENDBRANCH  13  15
ENDBRANCH   5  13
TORSDOF 4
ENDMDL
MODEL 4
REMARK VINA RESULT:      -4.5      2.728      4.409
REMARK  Name = 51136924
REMARK  4 active torsions:
REMARK  status: ('A' for Active; 'I' for Inactive)
REMARK    1  A    between atoms: N_5  and  C_13
REMARK    2  A    between atoms: C_9  and  C_14
REMARK    3  A    between atoms: C_13  and  C_15
REMARK    4  A    between atoms: C_18  and  C_21
REMARK                            x       y       z     vdW  Elec       q    Type
REMARK                         _______ _______ _______ _____ _____    ______ ____
ROOT
ATOM      5  N   UNL     1      -3.109  -0.528  24.712  0.00  0.00    -0.287 NA
ATOM      9  C   UNL     1      -1.952  -1.445  24.717  0.00  0.00    +0.146 C 
ATOM     10  C   UNL     1      -2.434  -2.687  23.943  0.00  0.00    +0.030 C 
ATOM     11  C   UNL     1      -3.889  -2.400  23.599  0.00  0.00    +0.017 C 
ATOM     12  C   UNL     1      -4.304  -1.369  24.629  0.00  0.00    +0.085 C 
ENDROOT
BRANCH   9  14
ATOM      4  O   UNL     1      -0.917   0.188  23.222  0.00  0.00    -0.336 OA
ATOM      6  N   UNL     1       0.547  -1.117  24.305  0.00  0.00    -0.189 NA
ATOM      7  N   UNL     1       0.355   0.595  22.800  0.00  0.00    -0.054 NA
ATOM     14  C   UNL     1      -0.713  -0.823  24.107  0.00  0.00    +0.245 A 
ATOM     18  C   UNL     1       1.164  -0.221  23.482  0.00  0.00    +0.220 A 
BRANCH  18  21
ATOM      3  F   UNL     1       6.650  -0.174  23.100  0.00  0.00    -0.204 F 
ATOM      8  N   UNL     1       3.259  -1.263  23.787  0.00  0.00    -0.249 NA
ATOM     21  C   UNL     1       2.593  -0.166  23.364  0.00  0.00    +0.111 A 
ATOM     23  C   UNL     1       3.207   0.963  22.846  0.00  0.00    +0.034 A 
ATOM     24  C   UNL     1       4.595   0.964  22.753  0.00  0.00    +0.042 A 
ATOM     25  C   UNL     1       4.606  -1.225  23.682  0.00  0.00    +0.149 A 
ATOM     26  C   UNL     1       5.315  -0.147  23.178  0.00  0.00    +0.141 A 
ENDBRANCH  18  21
ENDBRANCH   9  14
BRANCH   5  13
ATOM     13  C   UNL     1      -3.144   0.359  25.868  0.00  0.00    +0.120 C 
BRANCH  13  15
ATOM      1  F   UNL     1      -3.951   4.751  23.898  0.00  0.00    -0.202 F 
ATOM      2  F   UNL     1      -1.428   5.567  24.565  0.00  0.00    -0.202 F 
ATOM     15  C   UNL     1      -2.685   1.751  25.520  0.00  0.00    -0.030 A 
ATOM     16  C   UNL     1      -3.548   2.624  24.857  0.00  0.00    +0.046 A 
ATOM     17  C   UNL     1      -1.397   2.167  25.860  0.00  0.00    +0.008 A 
ATOM     19  C   UNL     1      -3.123   3.914  24.534  0.00  0.00    +0.159 A 
ATOM     20  C   UNL     1      -0.973   3.456  25.538  0.00  0.00    +0.041 A 
ATOM     22  C   UNL     1      -1.836   4.329  24.875  0.00  0.00    +0.158 A 
ENDBRANCH  13  15
ENDBRANCH   5  13
TORSDOF 4
ENDMDL
MODEL 5
REMARK VINA RESULT:      -4.1      2.691      4.460
REMARK  Name = 51136924
REMARK  4 active torsions:
REMARK  status: ('A' for Active; 'I' for Inactive)
REMARK    1  A    between atoms: N_5  and  C_13
REMARK    2  A    between atoms: C_9  and  C_14
REMARK    3  A    between atoms: C_13  and  C_15
REMARK    4  A    between atoms: C_18  and  C_21
REMARK                            x       y       z     vdW  Elec       q    Type
REMARK                         _______ _______ _______ _____ _____    ______ ____
ROOT
ATOM      5  N   UNL     1      -3.168  -0.459  24.686  0.00  0.00    -0.287 NA
ATOM      9  C   UNL     1      -2.027  -1.395  24.708  0.00  0.00    +0.146 C 
ATOM     10  C   UNL     1      -2.514  -2.625  23.918  0.00  0.00    +0.030 C 
ATOM     11  C   UNL     1      -3.957  -2.311  23.545  0.00  0.00    +0.017 C 
ATOM     12  C   UNL     1      -4.375  -1.279  24.573  0.00  0.00    +0.085 C 
ENDROOT
BRANCH   9  14
ATOM      4  O   UNL     1      -0.933   0.250  23.270  0.00  0.00    -0.336 OA
ATOM      6  N   UNL     1       0.484  -1.125  24.329  0.00  0.00    -0.189 NA
ATOM      7  N   UNL     1       0.354   0.633  22.872  0.00  0.00    -0.054 NA
ATOM     14  C   UNL     1      -0.766  -0.791  24.129  0.00  0.00    +0.245 A 
ATOM     18  C   UNL     1       1.133  -0.224  23.538  0.00  0.00    +0.220 A 
BRANCH  18  21
ATOM      3  F   UNL     1       6.609   0.018  23.084  0.00  0.00    -0.204 F 
ATOM      8  N   UNL     1       3.103   0.943  22.968  0.00  0.00    -0.249 NA
ATOM     21  C   UNL     1       2.564  -0.205  23.435  0.00  0.00    +0.111 A 
ATOM     23  C   UNL     1       3.305  -1.317  23.802  0.00  0.00    +0.034 A 
ATOM     24  C   UNL     1       4.689  -1.244  23.684  0.00  0.00    +0.042 A 
ATOM     25  C   UNL     1       4.450   0.976  22.866  0.00  0.00    +0.149 A 
ATOM     26  C   UNL     1       5.281  -0.080  23.207  0.00  0.00    +0.141 A 
ENDBRANCH  18  21
ENDBRANCH   9  14
BRANCH   5  13
ATOM     13  C   UNL     1      -3.212   0.422  25.846  0.00  0.00    +0.120 C 
BRANCH  13  15
ATOM      1  F   UNL     1       0.175   3.930  25.634  0.00  0.00    -0.202 F 
ATOM      2  F   UNL     1      -1.631   5.674  24.550  0.00  0.00    -0.202 F 
ATOM     15  C   UNL     1      -2.790   1.826  25.500  0.00  0.00    -0.030 A 
ATOM     16  C   UNL     1      -1.477   2.236  25.732  0.00  0.00    +0.046 A 
ATOM     17  C   UNL     1      -3.711   2.715  24.947  0.00  0.00    +0.008 A 
ATOM     19  C   UNL     1      -1.085   3.536  25.411  0.00  0.00    +0.159 A 
ATOM     20  C   UNL     1      -3.320   4.015  24.626  0.00  0.00    +0.041 A 
ATOM     22  C   UNL     1      -2.007   4.425  24.858  0.00  0.00    +0.158 A 
ENDBRANCH  13  15
ENDBRANCH   5  13
TORSDOF 4
ENDMDL
MODEL 6
REMARK VINA RESULT:      -3.3     17.252     19.125
REMARK  Name = 51136924
REMARK  4 active torsions:
REMARK  status: ('A' for Active; 'I' for Inactive)
REMARK    1  A    between atoms: N_5  and  C_13
REMARK    2  A    between atoms: C_9  and  C_14
REMARK    3  A    between atoms: C_13  and  C_15
REMARK    4  A    between atoms: C_18  and  C_21
REMARK                            x       y       z     vdW  Elec       q    Type
REMARK                         _______ _______ _______ _____ _____    ______ ____
ROOT
ATOM      5  N   UNL     1      16.582  -4.118  24.149  0.00  0.00    -0.287 NA
ATOM      9  C   UNL     1      17.340  -2.997  24.739  0.00  0.00    +0.146 C 
ATOM     10  C   UNL     1      16.662  -1.730  24.184  0.00  0.00    +0.030 C 
ATOM     11  C   UNL     1      15.576  -2.240  23.246  0.00  0.00    +0.017 C 
ATOM     12  C   UNL     1      16.047  -3.632  22.877  0.00  0.00    +0.085 C 
ENDROOT
BRANCH   9  14
ATOM      4  O   UNL     1      17.366  -1.833  26.888  0.00  0.00    -0.336 OA
ATOM      6  N   UNL     1      17.359  -4.067  27.058  0.00  0.00    -0.189 NA
ATOM      7  N   UNL     1      17.379  -2.121  28.259  0.00  0.00    -0.054 NA
ATOM     14  C   UNL     1      17.354  -3.035  26.253  0.00  0.00    +0.245 A 
ATOM     18  C   UNL     1      17.374  -3.457  28.278  0.00  0.00    +0.220 A 
BRANCH  18  21
ATOM      3  F   UNL     1      17.404  -6.499  32.859  0.00  0.00    -0.204 F 
ATOM      8  N   UNL     1      17.376  -5.555  29.356  0.00  0.00    -0.249 NA
ATOM     21  C   UNL     1      17.382  -4.211  29.498  0.00  0.00    +0.111 A 
ATOM     23  C   UNL     1      17.393  -3.559  30.721  0.00  0.00    +0.034 A 
ATOM     24  C   UNL     1      17.401  -4.339  31.873  0.00  0.00    +0.042 A 
ATOM     25  C   UNL     1      17.383  -6.279  30.498  0.00  0.00    +0.149 A 
ATOM     26  C   UNL     1      17.395  -5.724  31.769  0.00  0.00    +0.141 A 
ENDBRANCH  18  21
ENDBRANCH   9  14
BRANCH   5  13
ATOM     13  C   UNL     1      17.378  -5.326  23.984  0.00  0.00    +0.120 C 
BRANCH  13  15
ATOM      1  F   UNL     1      14.678  -6.993  27.692  0.00  0.00    -0.202 F 
ATOM      2  F   UNL     1      15.446  -9.563  27.158  0.00  0.00    -0.202 F 
ATOM     15  C   UNL     1      16.862  -6.459  24.832  0.00  0.00    -0.030 A 
ATOM     16  C   UNL     1      15.992  -6.196  25.890  0.00  0.00    +0.046 A 
ATOM     17  C   UNL     1      17.255  -7.770  24.560  0.00  0.00    +0.008 A 
ATOM     19  C   UNL     1      15.513  -7.245  26.676  0.00  0.00    +0.159 A 
ATOM     20  C   UNL     1      16.776  -8.818  25.345  0.00  0.00    +0.041 A 
ATOM     22  C   UNL     1      15.905  -8.556  26.403  0.00  0.00    +0.158 A 
ENDBRANCH  13  15
ENDBRANCH   5  13
TORSDOF 4
ENDMDL
MODEL 7
REMARK VINA RESULT:      -2.9     17.001     19.160
REMARK  Name = 51136924
REMARK  4 active torsions:
REMARK  status: ('A' for Active; 'I' for Inactive)
REMARK    1  A    between atoms: N_5  and  C_13
REMARK    2  A    between atoms: C_9  and  C_14
REMARK    3  A    between atoms: C_13  and  C_15
REMARK    4  A    between atoms: C_18  and  C_21
REMARK                            x       y       z     vdW  Elec       q    Type
REMARK                         _______ _______ _______ _____ _____    ______ ____
ROOT
ATOM      5  N   UNL     1      16.885  -3.671  28.752  0.00  0.00    -0.287 NA
ATOM      9  C   UNL     1      17.374  -4.134  30.066  0.00  0.00    +0.146 C 
ATOM     10  C   UNL     1      17.387  -2.870  30.946  0.00  0.00    +0.030 C 
ATOM     11  C   UNL     1      16.949  -1.740  30.025  0.00  0.00    +0.017 C 
ATOM     12  C   UNL     1      17.270  -2.264  28.640  0.00  0.00    +0.085 C 
ENDROOT
BRANCH   9  14
ATOM      4  O   UNL     1      17.119  -6.048  31.564  0.00  0.00    -0.336 OA
ATOM      6  N   UNL     1      15.274  -5.549  30.396  0.00  0.00    -0.189 NA
ATOM      7  N   UNL     1      16.149  -6.981  31.951  0.00  0.00    -0.054 NA
ATOM     14  C   UNL     1      16.521  -5.242  30.648  0.00  0.00    +0.245 A 
ATOM     18  C   UNL     1      15.091  -6.622  31.219  0.00  0.00    +0.220 A 
BRANCH  18  21
ATOM      3  F   UNL     1      10.362  -9.421  31.436  0.00  0.00    -0.204 F 
ATOM      8  N   UNL     1      13.874  -8.630  30.989  0.00  0.00    -0.249 NA
ATOM     21  C   UNL     1      13.835  -7.313  31.288  0.00  0.00    +0.111 A 
ATOM     23  C   UNL     1      12.682  -6.631  31.642  0.00  0.00    +0.034 A 
ATOM     24  C   UNL     1      11.491  -7.349  31.694  0.00  0.00    +0.042 A 
ATOM     25  C   UNL     1      12.698  -9.294  31.049  0.00  0.00    +0.149 A 
ATOM     26  C   UNL     1      11.491  -8.705  31.393  0.00  0.00    +0.141 A 
ENDBRANCH  18  21
ENDBRANCH   9  14
BRANCH   5  13
ATOM     13  C   UNL     1      17.387  -4.467  27.639  0.00  0.00    +0.120 C 
BRANCH  13  15
ATOM      1  F   UNL     1      17.396  -0.467  24.842  0.00  0.00    -0.202 F 
ATOM      2  F   UNL     1      16.539  -1.915  22.686  0.00  0.00    -0.202 F 
ATOM     15  C   UNL     1      17.160  -3.785  26.315  0.00  0.00    -0.030 A 
ATOM     16  C   UNL     1      17.388  -2.414  26.190  0.00  0.00    +0.046 A 
ATOM     17  C   UNL     1      16.723  -4.524  25.216  0.00  0.00    +0.008 A 
ATOM     19  C   UNL     1      17.178  -1.782  24.963  0.00  0.00    +0.159 A 
ATOM     20  C   UNL     1      16.514  -3.892  23.990  0.00  0.00    +0.041 A 
ATOM     22  C   UNL     1      16.741  -2.522  23.864  0.00  0.00    +0.158 A 
ENDBRANCH  13  15
ENDBRANCH   5  13
TORSDOF 4
ENDMDL
MODEL 8
REMARK VINA RESULT:      -2.6      2.784      6.203
REMARK  Name = 51136924
REMARK  4 active torsions:
REMARK  status: ('A' for Active; 'I' for Inactive)
REMARK    1  A    between atoms: N_5  and  C_13
REMARK    2  A    between atoms: C_9  and  C_14
REMARK    3  A    between atoms: C_13  and  C_15
REMARK    4  A    between atoms: C_18  and  C_21
REMARK                            x       y       z     vdW  Elec       q    Type
REMARK                         _______ _______ _______ _____ _____    ______ ____
ROOT
ATOM      5  N   UNL     1       0.651  -0.383  23.583  0.00  0.00    -0.287 NA
ATOM      9  C   UNL     1       1.232   0.871  24.102  0.00  0.00    +0.146 C 
ATOM     10  C   UNL     1       2.320   1.251  23.079  0.00  0.00    +0.030 C 
ATOM     11  C   UNL     1       2.316   0.122  22.058  0.00  0.00    +0.017 C 
ATOM     12  C   UNL     1       1.707  -1.042  22.814  0.00  0.00    +0.085 C 
ENDROOT
BRANCH   9  14
ATOM      4  O   UNL     1       0.611   3.234  24.051  0.00  0.00    -0.336 OA
ATOM      6  N   UNL     1      -1.057   1.863  24.645  0.00  0.00    -0.189 NA
ATOM      7  N   UNL     1      -0.501   4.052  24.283  0.00  0.00    -0.054 NA
ATOM     14  C   UNL     1       0.197   1.961  24.285  0.00  0.00    +0.245 A 
ATOM     18  C   UNL     1      -1.444   3.171  24.629  0.00  0.00    +0.220 A 
BRANCH  18  21
ATOM      3  F   UNL     1      -6.631   4.611  25.755  0.00  0.00    -0.204 F 
ATOM      8  N   UNL     1      -3.729   3.261  24.048  0.00  0.00    -0.249 NA
ATOM     21  C   UNL     1      -2.783   3.565  24.963  0.00  0.00    +0.111 A 
ATOM     23  C   UNL     1      -3.041   4.215  26.160  0.00  0.00    +0.034 A 
ATOM     24  C   UNL     1      -4.356   4.574  26.434  0.00  0.00    +0.042 A 
ATOM     25  C   UNL     1      -4.995   3.627  24.349  0.00  0.00    +0.149 A 
ATOM     26  C   UNL     1      -5.358   4.279  25.517  0.00  0.00    +0.141 A 
ENDBRANCH  18  21
ENDBRANCH   9  14
BRANCH   5  13
ATOM     13  C   UNL     1       0.117  -1.245  24.630  0.00  0.00    +0.120 C 
BRANCH  13  15
ATOM      1  F   UNL     1      -4.515   0.247  24.264  0.00  0.00    -0.202 F 
ATOM      2  F   UNL     1      -5.362  -2.322  23.865  0.00  0.00    -0.202 F 
ATOM     15  C   UNL     1      -1.347  -1.533  24.425  0.00  0.00    -0.030 A 
ATOM     16  C   UNL     1      -2.271  -0.489  24.440  0.00  0.00    +0.046 A 
ATOM     17  C   UNL     1      -1.778  -2.844  24.222  0.00  0.00    +0.008 A 
ATOM     19  C   UNL     1      -3.628  -0.755  24.250  0.00  0.00    +0.159 A 
ATOM     20  C   UNL     1      -3.134  -3.111  24.032  0.00  0.00    +0.041 A 
ATOM     22  C   UNL     1      -4.059  -2.066  24.046  0.00  0.00    +0.158 A 
ENDBRANCH  13  15
ENDBRANCH   5  13
TORSDOF 4
ENDMDL
MODEL 9
REMARK VINA RESULT:      -2.5     14.480     17.299
REMARK  Name = 51136924
REMARK  4 active torsions:
REMARK  status: ('A' for Active; 'I' for Inactive)
REMARK    1  A    between atoms: N_5  and  C_13
REMARK    2  A    between atoms: C_9  and  C_14
REMARK    3  A    between atoms: C_13  and  C_15
REMARK    4  A    between atoms: C_18  and  C_21
REMARK                            x       y       z     vdW  Elec       q    Type
REMARK                         _______ _______ _______ _____ _____    ______ ____
ROOT
ATOM      5  N   UNL     1      -3.577 -10.093  15.275  0.00  0.00    -0.287 NA
ATOM      9  C   UNL     1      -4.795 -10.781  14.805  0.00  0.00    +0.146 C 
ATOM     10  C   UNL     1      -5.880 -10.399  15.829  0.00  0.00    +0.030 C 
ATOM     11  C   UNL     1      -5.163  -9.548  16.868  0.00  0.00    +0.017 C 
ATOM     12  C   UNL     1      -3.711  -9.957  16.725  0.00  0.00    +0.085 C 
ENDROOT
BRANCH   9  14
ATOM      4  O   UNL     1      -4.308 -10.781  12.409  0.00  0.00    -0.336 OA
ATOM      6  N   UNL     1      -6.217  -9.743  12.955  0.00  0.00    -0.189 NA
ATOM      7  N   UNL     1      -4.859 -10.321  11.207  0.00  0.00    -0.054 NA
ATOM     14  C   UNL     1      -5.171 -10.399  13.388  0.00  0.00    +0.245 A 
ATOM     18  C   UNL     1      -5.982  -9.720  11.611  0.00  0.00    +0.220 A 
BRANCH  18  21
ATOM      3  F   UNL     1      -9.602  -7.379   8.196  0.00  0.00    -0.204 F 
ATOM      8  N   UNL     1      -8.201  -9.354  10.897  0.00  0.00    -0.249 NA
ATOM     21  C   UNL     1      -6.891  -9.089  10.697  0.00  0.00    +0.111 A 
ATOM     23  C   UNL     1      -6.410  -8.269   9.689  0.00  0.00    +0.034 A 
ATOM     24  C   UNL     1      -7.334  -7.682   8.832  0.00  0.00    +0.042 A 
ATOM     25  C   UNL     1      -9.069  -8.767  10.043  0.00  0.00    +0.149 A 
ATOM     26  C   UNL     1      -8.690  -7.931   9.005  0.00  0.00    +0.141 A 
ENDBRANCH  18  21
ENDBRANCH   9  14
BRANCH   5  13
ATOM     13  C   UNL     1      -2.348 -10.781  14.900  0.00  0.00    +0.120 C 
BRANCH  13  15
ATOM      1  F   UNL     1       0.460  -7.307  12.934  0.00  0.00    -0.202 F 
ATOM      2  F   UNL     1       0.125  -8.381  10.441  0.00  0.00    -0.202 F 
ATOM     15  C   UNL     1      -1.687 -10.140  13.708  0.00  0.00    -0.030 A 
ATOM     16  C   UNL     1      -0.904  -8.998  13.877  0.00  0.00    +0.046 A 
ATOM     17  C   UNL     1      -1.858 -10.688  12.437  0.00  0.00    +0.008 A 
ATOM     19  C   UNL     1      -0.291  -8.403  12.772  0.00  0.00    +0.159 A 
ATOM     20  C   UNL     1      -1.246 -10.094  11.333  0.00  0.00    +0.041 A 
ATOM     22  C   UNL     1      -0.462  -8.952  11.501  0.00  0.00    +0.158 A 
ENDBRANCH  13  15
ENDBRANCH   5  13
TORSDOF 4
ENDMDL
MODEL 10
REMARK VINA RESULT:      -2.4      2.987      4.599
REMARK  Name = 51136924
REMARK  4 active torsions:
REMARK  status: ('A' for Active; 'I' for Inactive)
REMARK    1  A    between atoms: N_5  and  C_13
REMARK    2  A    between atoms: C_9  and  C_14
REMARK    3  A    between atoms: C_13  and  C_15
REMARK    4  A    between atoms: C_18  and  C_21
REMARK                            x       y       z     vdW  Elec       q    Type
REMARK                         _______ _______ _______ _____ _____    ______ ____
ROOT
ATOM      5  N   UNL     1      -4.194  -0.984  24.512  0.00  0.00    -0.287 NA
ATOM      9  C   UNL     1      -2.988  -1.615  25.082  0.00  0.00    +0.146 C 
ATOM     10  C   UNL     1      -2.937  -3.014  24.441  0.00  0.00    +0.030 C 
ATOM     11  C   UNL     1      -4.187  -3.099  23.574  0.00  0.00    +0.017 C 
ATOM     12  C   UNL     1      -5.117  -2.072  24.187  0.00  0.00    +0.085 C 
ENDROOT
BRANCH   9  14
ATOM      4  O   UNL     1      -1.527   0.266  25.630  0.00  0.00    -0.336 OA
ATOM      6  N   UNL     1      -0.797  -0.992  23.927  0.00  0.00    -0.189 NA
ATOM      7  N   UNL     1      -0.323   0.843  25.207  0.00  0.00    -0.054 NA
ATOM     14  C   UNL     1      -1.732  -0.809  24.825  0.00  0.00    +0.245 A 
ATOM     18  C   UNL     1       0.045   0.045  24.200  0.00  0.00    +0.220 A 
BRANCH  18  21
ATOM      3  F   UNL     1       4.708   0.983  21.439  0.00  0.00    -0.204 F 
ATOM      8  N   UNL     1       2.080   1.208  23.930  0.00  0.00    -0.249 NA
ATOM     21  C   UNL     1       1.249   0.257  23.449  0.00  0.00    +0.111 A 
ATOM     23  C   UNL     1       1.500  -0.489  22.309  0.00  0.00    +0.034 A 
ATOM     24  C   UNL     1       2.683  -0.244  21.618  0.00  0.00    +0.042 A 
ATOM     25  C   UNL     1       3.218   1.419  23.232  0.00  0.00    +0.149 A 
ATOM     26  C   UNL     1       3.563   0.727  22.082  0.00  0.00    +0.141 A 
ENDBRANCH  18  21
ENDBRANCH   9  14
BRANCH   5  13
ATOM     13  C   UNL     1      -4.800   0.002  25.397  0.00  0.00    +0.120 C 
BRANCH  13  15
ATOM      1  F   UNL     1      -5.681   4.796  25.646  0.00  0.00    -0.202 F 
ATOM      2  F   UNL     1      -4.012   5.262  23.531  0.00  0.00    -0.202 F 
ATOM     15  C   UNL     1      -4.589   1.408  24.898  0.00  0.00    -0.030 A 
ATOM     16  C   UNL     1      -5.246   2.472  25.515  0.00  0.00    +0.046 A 
ATOM     17  C   UNL     1      -3.738   1.645  23.818  0.00  0.00    +0.008 A 
ATOM     19  C   UNL     1      -5.051   3.775  25.053  0.00  0.00    +0.159 A 
ATOM     20  C   UNL     1      -3.542   2.946  23.357  0.00  0.00    +0.041 A 
ATOM     22  C   UNL     1      -4.199   4.011  23.975  0.00  0.00    +0.158 A 
ENDBRANCH  13  15
ENDBRANCH   5  13
TORSDOF 4
ENDMDL
