MODEL 1
REMARK VINA RESULT:      -0.1      0.000      0.000
REMARK  Name = 40777169
REMARK  8 active torsions:
REMARK  status: ('A' for Active; 'I' for Inactive)
REMARK    1  A    between atoms: S_1  and  N_8
REMARK    2  A    between atoms: S_1  and  C_23
REMARK    3  A    between atoms: N_8  and  C_18
REMARK    4  A    between atoms: C_12  and  C_19
REMARK    5  A    between atoms: C_13  and  C_18
REMARK    6  A    between atoms: C_21  and  C_24
REMARK    7  A    between atoms: C_22  and  C_25
REMARK    8  A    between atoms: C_30  and  C_31
REMARK                            x       y       z     vdW  Elec       q    Type
REMARK                         _______ _______ _______ _____ _____    ______ ____
ROOT
ATOM      9  N   UNL     1      -3.785  -1.347  24.967  0.00  0.00    -0.237 NA
ATOM     10  N   UNL     1      -1.577  -1.845  24.142  0.00  0.00    -0.232 NA
ATOM     19  C   UNL     1      -3.420  -0.051  25.055  0.00  0.00    +0.050 A 
ATOM     20  C   UNL     1      -2.169   0.418  24.709  0.00  0.00    +0.052 A 
ATOM     21  C   UNL     1      -1.279  -0.534  24.254  0.00  0.00    +0.075 A 
ATOM     22  C   UNL     1      -2.829  -2.178  24.510  0.00  0.00    +0.127 A 
ATOM     25  C   UNL     1      -3.195  -3.619  24.401  0.00  0.00    +0.088 C 
ENDROOT
BRANCH  19  12
ATOM      7  N   UNL     1      -4.719   3.421  25.813  0.00  0.00    -0.297 NA
ATOM     11  C   UNL     1      -5.646   1.298  24.625  0.00  0.00    +0.002 C 
ATOM     12  C   UNL     1      -4.470   0.922  25.568  0.00  0.00    +0.055 C 
ATOM     13  C   UNL     1      -4.817   3.660  24.349  0.00  0.00    +0.072 C 
ATOM     14  C   UNL     1      -5.166   2.353  23.606  0.00  0.00    +0.024 C 
ATOM     15  C   UNL     1      -6.723   1.971  25.502  0.00  0.00    +0.019 C 
ATOM     16  C   UNL     1      -3.845   2.251  26.080  0.00  0.00    +0.094 C 
ATOM     17  C   UNL     1      -6.077   3.106  26.314  0.00  0.00    +0.085 C 
BRANCH  13  18
ATOM     18  C   UNL     1      -3.559   4.321  23.780  0.00  0.00    +0.124 C 
BRANCH  18   8
ATOM      8  N   UNL     1      -2.385   3.601  24.166  0.00  0.00    -0.193 NA
ATOM     32  H   UNL     1      -2.179   2.780  23.583  0.00  0.00    +0.148 HD
BRANCH   8   1
ATOM      1  S   UNL     1      -1.005   4.440  24.781  0.00  0.00    +0.027 S 
ATOM      5  O   UNL     1      -1.443   5.672  25.407  0.00  0.00    -0.158 OA
ATOM      6  O   UNL     1       0.049   4.448  23.785  0.00  0.00    -0.158 OA
ATOM     23  C   UNL     1      -0.508   3.319  26.069  0.00  0.00    +0.214 C 
ENDBRANCH   8   1
ENDBRANCH  18   8
ENDBRANCH  13  18
ENDBRANCH  19  12
BRANCH  21  24
ATOM     24  C   UNL     1       0.063  -0.173  23.862  0.00  0.00    +0.000 A 
ATOM     26  C   UNL     1       0.485   1.152  23.963  0.00  0.00    +0.010 A 
ATOM     27  C   UNL     1       0.936  -1.149  23.384  0.00  0.00    +0.010 A 
ATOM     28  C   UNL     1       1.782   1.502  23.585  0.00  0.00    +0.013 A 
ATOM     29  C   UNL     1       2.233  -0.800  23.005  0.00  0.00    +0.013 A 
ATOM     30  C   UNL     1       2.655   0.525  23.106  0.00  0.00    +0.055 A 
BRANCH  30  31
ATOM      2  F   UNL     1       4.175   2.234  22.454  0.00  0.00    -0.166 F 
ATOM      3  F   UNL     1       4.984   0.605  23.645  0.00  0.00    -0.166 F 
ATOM      4  F   UNL     1       4.467   0.272  21.565  0.00  0.00    -0.166 F 
ATOM     31  C   UNL     1       4.042   0.898  22.702  0.00  0.00    +0.417 C 
ENDBRANCH  30  31
ENDBRANCH  21  24
TORSDOF 6
ENDMDL
MODEL 2
REMARK VINA RESULT:       3.5      2.671      3.832
REMARK  Name = 40777169
REMARK  8 active torsions:
REMARK  status: ('A' for Active; 'I' for Inactive)
REMARK    1  A    between atoms: S_1  and  N_8
REMARK    2  A    between atoms: S_1  and  C_23
REMARK    3  A    between atoms: N_8  and  C_18
REMARK    4  A    between atoms: C_12  and  C_19
REMARK    5  A    between atoms: C_13  and  C_18
REMARK    6  A    between atoms: C_21  and  C_24
REMARK    7  A    between atoms: C_22  and  C_25
REMARK    8  A    between atoms: C_30  and  C_31
REMARK                            x       y       z     vdW  Elec       q    Type
REMARK                         _______ _______ _______ _____ _____    ______ ____
ROOT
ATOM      9  N   UNL     1      -2.032   0.700  23.932  0.00  0.00    -0.237 NA
ATOM     10  N   UNL     1      -0.091  -0.727  23.892  0.00  0.00    -0.232 NA
ATOM     19  C   UNL     1      -1.217   1.753  23.713  0.00  0.00    +0.050 A 
ATOM     20  C   UNL     1       0.152   1.647  23.574  0.00  0.00    +0.052 A 
ATOM     21  C   UNL     1       0.665   0.370  23.673  0.00  0.00    +0.075 A 
ATOM     22  C   UNL     1      -1.411  -0.493  24.010  0.00  0.00    +0.127 A 
ATOM     25  C   UNL     1      -2.279  -1.680  24.254  0.00  0.00    +0.088 C 
ENDROOT
BRANCH  19  12
ATOM      7  N   UNL     1      -3.988   4.221  24.456  0.00  0.00    -0.297 NA
ATOM     11  C   UNL     1      -1.387   4.239  24.580  0.00  0.00    +0.002 C 
ATOM     12  C   UNL     1      -1.877   3.121  23.619  0.00  0.00    +0.055 C 
ATOM     13  C   UNL     1      -3.547   4.227  25.875  0.00  0.00    +0.072 C 
ATOM     14  C   UNL     1      -2.019   4.029  25.972  0.00  0.00    +0.024 C 
ATOM     15  C   UNL     1      -1.936   5.572  24.028  0.00  0.00    +0.019 C 
ATOM     16  C   UNL     1      -3.424   3.041  23.753  0.00  0.00    +0.094 C 
ATOM     17  C   UNL     1      -3.453   5.442  23.809  0.00  0.00    +0.085 C 
BRANCH  13  18
ATOM     18  C   UNL     1      -4.308   3.208  26.727  0.00  0.00    +0.124 C 
BRANCH  18   8
ATOM      8  N   UNL     1      -5.681   3.138  26.332  0.00  0.00    -0.193 NA
ATOM     32  H   UNL     1      -6.025   3.971  25.839  0.00  0.00    +0.148 HD
BRANCH   8   1
ATOM      1  S   UNL     1      -6.370   1.637  25.821  0.00  0.00    +0.027 S 
ATOM      5  O   UNL     1      -6.998   1.824  24.527  0.00  0.00    -0.158 OA
ATOM      6  O   UNL     1      -7.099   1.032  26.919  0.00  0.00    -0.158 OA
ATOM     23  C   UNL     1      -4.890   0.683  25.578  0.00  0.00    +0.214 C 
ENDBRANCH   8   1
ENDBRANCH  18   8
ENDBRANCH  13  18
ENDBRANCH  19  12
BRANCH  21  24
ATOM     24  C   UNL     1       2.082   0.124  23.549  0.00  0.00    +0.000 A 
ATOM     26  C   UNL     1       2.929   1.140  23.108  0.00  0.00    +0.010 A 
ATOM     27  C   UNL     1       2.604  -1.129  23.869  0.00  0.00    +0.010 A 
ATOM     28  C   UNL     1       4.299   0.904  22.987  0.00  0.00    +0.013 A 
ATOM     29  C   UNL     1       3.973  -1.367  23.747  0.00  0.00    +0.013 A 
ATOM     30  C   UNL     1       4.820  -0.350  23.307  0.00  0.00    +0.055 A 
BRANCH  30  31
ATOM      2  F   UNL     1       6.714  -0.553  21.884  0.00  0.00    -0.166 F 
ATOM      3  F   UNL     1       7.057   0.295  23.856  0.00  0.00    -0.166 F 
ATOM      4  F   UNL     1       6.670  -1.828  23.643  0.00  0.00    -0.166 F 
ATOM     31  C   UNL     1       6.284  -0.603  23.178  0.00  0.00    +0.417 C 
ENDBRANCH  30  31
ENDBRANCH  21  24
TORSDOF 6
ENDMDL
MODEL 3
REMARK VINA RESULT:       3.6      2.227      4.117
REMARK  Name = 40777169
REMARK  8 active torsions:
REMARK  status: ('A' for Active; 'I' for Inactive)
REMARK    1  A    between atoms: S_1  and  N_8
REMARK    2  A    between atoms: S_1  and  C_23
REMARK    3  A    between atoms: N_8  and  C_18
REMARK    4  A    between atoms: C_12  and  C_19
REMARK    5  A    between atoms: C_13  and  C_18
REMARK    6  A    between atoms: C_21  and  C_24
REMARK    7  A    between atoms: C_22  and  C_25
REMARK    8  A    between atoms: C_30  and  C_31
REMARK                            x       y       z     vdW  Elec       q    Type
REMARK                         _______ _______ _______ _____ _____    ______ ____
ROOT
ATOM      9  N   UNL     1      -1.120   1.165  24.128  0.00  0.00    -0.237 NA
ATOM     10  N   UNL     1       1.156   1.825  23.689  0.00  0.00    -0.232 NA
ATOM     19  C   UNL     1      -0.691  -0.110  24.232  0.00  0.00    +0.050 A 
ATOM     20  C   UNL     1       0.628  -0.490  24.080  0.00  0.00    +0.052 A 
ATOM     21  C   UNL     1       1.515   0.530  23.807  0.00  0.00    +0.075 A 
ATOM     22  C   UNL     1      -0.158   2.068  23.858  0.00  0.00    +0.127 A 
ATOM     25  C   UNL     1      -0.594   3.488  23.734  0.00  0.00    +0.088 C 
ENDROOT
BRANCH  19  12
ATOM      7  N   UNL     1      -3.914  -1.300  25.816  0.00  0.00    -0.297 NA
ATOM     11  C   UNL     1      -2.826  -1.451  23.456  0.00  0.00    +0.002 C 
ATOM     12  C   UNL     1      -1.745  -1.164  24.535  0.00  0.00    +0.055 C 
ATOM     13  C   UNL     1      -4.656  -0.438  24.859  0.00  0.00    +0.072 C 
ATOM     14  C   UNL     1      -3.908  -0.352  23.512  0.00  0.00    +0.024 C 
ATOM     15  C   UNL     1      -3.507  -2.779  23.851  0.00  0.00    +0.019 C 
ATOM     16  C   UNL     1      -2.489  -0.888  25.872  0.00  0.00    +0.094 C 
ATOM     17  C   UNL     1      -3.974  -2.693  25.314  0.00  0.00    +0.085 C 
BRANCH  13  18
ATOM     18  C   UNL     1      -4.956   0.949  25.434  0.00  0.00    +0.124 C 
BRANCH  18   8
ATOM      8  N   UNL     1      -4.028   1.918  24.940  0.00  0.00    -0.193 NA
ATOM     32  H   UNL     1      -3.566   1.654  24.060  0.00  0.00    +0.148 HD
BRANCH   8   1
ATOM      1  S   UNL     1      -4.335   3.607  25.138  0.00  0.00    +0.027 S 
ATOM      5  O   UNL     1      -5.612   3.778  25.804  0.00  0.00    -0.158 OA
ATOM      6  O   UNL     1      -4.042   4.308  23.903  0.00  0.00    -0.158 OA
ATOM     23  C   UNL     1      -3.054   4.021  26.299  0.00  0.00    +0.214 C 
ENDBRANCH   8   1
ENDBRANCH  18   8
ENDBRANCH  13  18
ENDBRANCH  19  12
BRANCH  21  24
ATOM     24  C   UNL     1       2.923   0.264  23.624  0.00  0.00    +0.000 A 
ATOM     26  C   UNL     1       3.437  -0.998  23.918  0.00  0.00    +0.010 A 
ATOM     27  C   UNL     1       3.767   1.269  23.153  0.00  0.00    +0.010 A 
ATOM     28  C   UNL     1       4.797  -1.256  23.741  0.00  0.00    +0.013 A 
ATOM     29  C   UNL     1       5.127   1.011  22.976  0.00  0.00    +0.013 A 
ATOM     30  C   UNL     1       5.641  -0.251  23.270  0.00  0.00    +0.055 A 
BRANCH  30  31
ATOM      2  F   UNL     1       7.668  -1.099  24.179  0.00  0.00    -0.166 F 
ATOM      3  F   UNL     1       7.361  -1.374  22.045  0.00  0.00    -0.166 F 
ATOM      4  F   UNL     1       7.834   0.593  22.824  0.00  0.00    -0.166 F 
ATOM     31  C   UNL     1       7.095  -0.526  23.081  0.00  0.00    +0.417 C 
ENDBRANCH  30  31
ENDBRANCH  21  24
TORSDOF 6
ENDMDL
MODEL 4
REMARK VINA RESULT:       3.8      2.782      4.441
REMARK  Name = 40777169
REMARK  8 active torsions:
REMARK  status: ('A' for Active; 'I' for Inactive)
REMARK    1  A    between atoms: S_1  and  N_8
REMARK    2  A    between atoms: S_1  and  C_23
REMARK    3  A    between atoms: N_8  and  C_18
REMARK    4  A    between atoms: C_12  and  C_19
REMARK    5  A    between atoms: C_13  and  C_18
REMARK    6  A    between atoms: C_21  and  C_24
REMARK    7  A    between atoms: C_22  and  C_25
REMARK    8  A    between atoms: C_30  and  C_31
REMARK                            x       y       z     vdW  Elec       q    Type
REMARK                         _______ _______ _______ _____ _____    ______ ____
ROOT
ATOM      9  N   UNL     1      -2.668   4.650  25.010  0.00  0.00    -0.237 NA
ATOM     10  N   UNL     1      -0.375   4.140  24.475  0.00  0.00    -0.232 NA
ATOM     19  C   UNL     1      -2.968   3.352  24.793  0.00  0.00    +0.050 A 
ATOM     20  C   UNL     1      -2.039   2.402  24.421  0.00  0.00    +0.052 A 
ATOM     21  C   UNL     1      -0.745   2.858  24.276  0.00  0.00    +0.075 A 
ATOM     22  C   UNL     1      -1.372   4.970  24.835  0.00  0.00    +0.127 A 
ATOM     25  C   UNL     1      -1.001   6.396  25.064  0.00  0.00    +0.088 C 
ENDROOT
BRANCH  19  12
ATOM      7  N   UNL     1      -5.988   1.191  24.065  0.00  0.00    -0.297 NA
ATOM     11  C   UNL     1      -4.790   2.067  26.204  0.00  0.00    +0.002 C 
ATOM     12  C   UNL     1      -4.423   2.947  24.978  0.00  0.00    +0.055 C 
ATOM     13  C   UNL     1      -5.301   0.069  24.758  0.00  0.00    +0.072 C 
ATOM     14  C   UNL     1      -4.418   0.598  25.907  0.00  0.00    +0.024 C 
ATOM     15  C   UNL     1      -6.325   2.125  26.352  0.00  0.00    +0.019 C 
ATOM     16  C   UNL     1      -5.007   2.249  23.716  0.00  0.00    +0.094 C 
ATOM     17  C   UNL     1      -6.977   1.769  25.005  0.00  0.00    +0.085 C 
BRANCH  13  18
ATOM     18  C   UNL     1      -4.510  -0.817  23.792  0.00  0.00    +0.124 C 
BRANCH  18   8
ATOM      8  N   UNL     1      -3.112  -0.775  24.091  0.00  0.00    -0.193 NA
ATOM     32  H   UNL     1      -2.762   0.153  24.358  0.00  0.00    +0.148 HD
BRANCH   8   1
ATOM      1  S   UNL     1      -2.343  -2.111  24.875  0.00  0.00    +0.027 S 
ATOM      5  O   UNL     1      -1.459  -2.765  23.931  0.00  0.00    -0.158 OA
ATOM      6  O   UNL     1      -3.325  -2.872  25.624  0.00  0.00    -0.158 OA
ATOM     23  C   UNL     1      -1.336  -1.240  26.054  0.00  0.00    +0.214 C 
ENDBRANCH   8   1
ENDBRANCH  18   8
ENDBRANCH  13  18
ENDBRANCH  19  12
BRANCH  21  24
ATOM     24  C   UNL     1       0.321   1.964  23.887  0.00  0.00    +0.000 A 
ATOM     26  C   UNL     1       1.626   2.441  23.783  0.00  0.00    +0.010 A 
ATOM     27  C   UNL     1       0.044   0.625  23.617  0.00  0.00    +0.010 A 
ATOM     28  C   UNL     1       2.657   1.578  23.407  0.00  0.00    +0.013 A 
ATOM     29  C   UNL     1       1.074  -0.239  23.240  0.00  0.00    +0.013 A 
ATOM     30  C   UNL     1       2.379   0.239  23.136  0.00  0.00    +0.055 A 
BRANCH  30  31
ATOM      2  F   UNL     1       3.149  -1.462  21.663  0.00  0.00    -0.166 F 
ATOM      3  F   UNL     1       4.631  -0.041  22.378  0.00  0.00    -0.166 F 
ATOM      4  F   UNL     1       3.849  -1.556  23.719  0.00  0.00    -0.166 F 
ATOM     31  C   UNL     1       3.480  -0.684  22.735  0.00  0.00    +0.417 C 
ENDBRANCH  30  31
ENDBRANCH  21  24
TORSDOF 6
ENDMDL
