MODEL 1
REMARK VINA RESULT:       5.9      0.000      0.000
REMARK  Name = 11884148
REMARK  8 active torsions:
REMARK  status: ('A' for Active; 'I' for Inactive)
REMARK    1  A    between atoms: O_6  and  C_15
REMARK    2  A    between atoms: O_6  and  C_19
REMARK    3  A    between atoms: N_10  and  C_14
REMARK    4  A    between atoms: N_11  and  C_23
REMARK    5  A    between atoms: C_18  and  C_20
REMARK    6  A    between atoms: C_26  and  C_29
REMARK    7  A    between atoms: C_32  and  C_33
REMARK    8  A    between atoms: C_33  and  C_34
REMARK                            x       y       z     vdW  Elec       q    Type
REMARK                         _______ _______ _______ _____ _____    ______ ____
ROOT
ATOM      4  O   UNL     1      -3.770   3.021  24.272  0.00  0.00    -0.368 OA
ATOM      5  O   UNL     1      -3.222   5.475  26.028  0.00  0.00    -0.368 OA
ATOM     12  C   UNL     1      -2.422   4.309  25.739  0.00  0.00    +0.173 C 
ATOM     13  C   UNL     1      -3.375   3.134  25.650  0.00  0.00    +0.192 C 
ATOM     14  C   UNL     1      -1.842   4.412  24.348  0.00  0.00    +0.130 C 
ATOM     15  C   UNL     1      -4.522   3.576  26.526  0.00  0.00    +0.235 C 
ATOM     16  C   UNL     1      -2.997   3.937  23.482  0.00  0.00    +0.185 C 
ATOM     17  C   UNL     1      -4.579   5.062  26.251  0.00  0.00    +0.207 C 
ENDROOT
BRANCH  14  10
ATOM      7  O   UNL     1      -1.762   1.848  23.055  0.00  0.00    -0.270 OA
ATOM     10  N   UNL     1      -0.689   3.558  24.198  0.00  0.00    -0.304 N 
ATOM     18  C   UNL     1      -0.749   2.329  23.554  0.00  0.00    +0.244 C 
ATOM     35  H   UNL     1       0.159   3.839  24.680  0.00  0.00    +0.149 HD
BRANCH  18  20
ATOM     20  C   UNL     1       0.521   1.558  23.507  0.00  0.00    +0.037 A 
ATOM     21  C   UNL     1       1.740   2.229  23.414  0.00  0.00    +0.013 A 
ATOM     22  C   UNL     1       0.493   0.165  23.554  0.00  0.00    +0.013 A 
ATOM     24  C   UNL     1       2.932   1.506  23.369  0.00  0.00    +0.013 A 
ATOM     25  C   UNL     1       1.685  -0.559  23.509  0.00  0.00    +0.013 A 
ATOM     26  C   UNL     1       2.905   0.112  23.417  0.00  0.00    +0.055 A 
BRANCH  26  29
ATOM      1  F   UNL     1       4.000  -2.014  23.400  0.00  0.00    -0.166 F 
ATOM      2  F   UNL     1       5.022  -0.390  24.410  0.00  0.00    -0.166 F 
ATOM      3  F   UNL     1       4.903  -0.412  22.239  0.00  0.00    -0.166 F 
ATOM     29  C   UNL     1       4.179  -0.660  23.370  0.00  0.00    +0.417 C 
ENDBRANCH  26  29
ENDBRANCH  18  20
ENDBRANCH  14  10
BRANCH  15   6
ATOM      6  O   UNL     1      -5.741   2.934  26.226  0.00  0.00    -0.442 OA
BRANCH   6  19
ATOM      8  O   UNL     1      -6.543   1.466  24.667  0.00  0.00    -0.226 OA
ATOM     11  N   UNL     1      -4.500   1.110  25.754  0.00  0.00    -0.251 N 
ATOM     19  C   UNL     1      -5.670   1.787  25.464  0.00  0.00    +0.405 C 
ATOM     36  H   UNL     1      -3.895   1.538  26.451  0.00  0.00    +0.158 HD
BRANCH  11  23
ATOM     23  C   UNL     1      -4.037  -0.105  25.200  0.00  0.00    +0.036 A 
ATOM     27  C   UNL     1      -4.802  -0.771  24.242  0.00  0.00    +0.024 A 
ATOM     28  C   UNL     1      -2.816  -0.639  25.613  0.00  0.00    +0.024 A 
ATOM     30  C   UNL     1      -4.345  -1.970  23.696  0.00  0.00    +0.013 A 
ATOM     31  C   UNL     1      -2.360  -1.838  25.066  0.00  0.00    +0.013 A 
ATOM     32  C   UNL     1      -3.125  -2.504  24.108  0.00  0.00    +0.017 A 
BRANCH  32  33
ATOM      9  O   UNL     1      -3.425  -4.703  23.309  0.00  0.00    -0.292 OA
ATOM     33  C   UNL     1      -2.649  -3.755  23.537  0.00  0.00    +0.160 C 
ATOM     34  C   UNL     1      -1.172  -3.932  23.203  0.00  0.00    +0.091 C 
ENDBRANCH  32  33
ENDBRANCH  11  23
ENDBRANCH   6  19
ENDBRANCH  15   6
TORSDOF 7
ENDMDL
