MODEL 1
REMARK VINA RESULT:       1.0      0.000      0.000
REMARK  Name = 45783427
REMARK  11 active torsions:
REMARK  status: ('A' for Active; 'I' for Inactive)
REMARK    1  A    between atoms: O_2  and  C_24
REMARK    2  A    between atoms: O_2  and  C_29
REMARK    3  A    between atoms: O_4  and  C_31
REMARK    4  A    between atoms: O_4  and  C_32
REMARK    5  A    between atoms: N_5  and  C_14
REMARK    6  A    between atoms: N_8  and  C_22
REMARK    7  A    between atoms: C_10  and  C_15
REMARK    8  A    between atoms: C_14  and  C_16
REMARK    9  A    between atoms: C_19  and  C_23
REMARK   10  A    between atoms: C_27  and  C_30
REMARK   11  A    between atoms: C_29  and  C_31
REMARK                            x       y       z     vdW  Elec       q    Type
REMARK                         _______ _______ _______ _____ _____    ______ ____
ROOT
ATOM      5  N   UNL     1      -3.974   4.374  25.611  0.00  0.00    -0.287 NA
ATOM     10  C   UNL     1      -4.849   3.226  25.923  0.00  0.00    +0.146 C 
ATOM     11  C   UNL     1      -6.270   3.716  25.588  0.00  0.00    +0.030 C 
ATOM     12  C   UNL     1      -6.099   5.165  25.157  0.00  0.00    +0.017 C 
ATOM     13  C   UNL     1      -4.788   5.576  25.794  0.00  0.00    +0.085 C 
ENDROOT
BRANCH  10  15
ATOM      1  O   UNL     1      -3.961   2.165  23.908  0.00  0.00    -0.336 OA
ATOM      6  N   UNL     1      -4.548   0.722  25.518  0.00  0.00    -0.190 NA
ATOM      7  N   UNL     1      -3.685   0.887  23.405  0.00  0.00    -0.056 NA
ATOM     15  C   UNL     1      -4.465   1.978  25.156  0.00  0.00    +0.245 A 
ATOM     19  C   UNL     1      -4.058   0.091  24.411  0.00  0.00    +0.207 A 
BRANCH  19  23
ATOM      9  N   UNL     1      -3.235  -3.426  25.328  0.00  0.00    -0.221 NA
ATOM     23  C   UNL     1      -3.953  -1.338  24.344  0.00  0.00    +0.084 A 
ATOM     24  C   UNL     1      -3.356  -2.080  25.350  0.00  0.00    +0.226 A 
ATOM     25  C   UNL     1      -4.458  -2.022  23.243  0.00  0.00    +0.018 A 
ATOM     26  C   UNL     1      -4.353  -3.408  23.185  0.00  0.00    +0.021 A 
ATOM     28  C   UNL     1      -3.738  -4.057  24.244  0.00  0.00    +0.114 A 
BRANCH  24   2
ATOM      2  O   UNL     1      -2.842  -1.451  26.455  0.00  0.00    -0.474 OA
BRANCH   2  29
ATOM     29  C   UNL     1      -1.488  -1.021  26.374  0.00  0.00    +0.258 C 
BRANCH  29  31
ATOM     31  C   UNL     1      -1.052  -1.034  24.922  0.00  0.00    +0.200 C 
BRANCH  31   4
ATOM      4  O   UNL     1       0.229  -1.647  24.827  0.00  0.00    -0.380 OA
ATOM     32  C   UNL     1       0.311  -2.809  25.640  0.00  0.00    +0.194 C 
ENDBRANCH  31   4
ENDBRANCH  29  31
ENDBRANCH   2  29
ENDBRANCH  24   2
ENDBRANCH  19  23
ENDBRANCH  10  15
BRANCH   5  14
ATOM     14  C   UNL     1      -2.760   4.406  26.417  0.00  0.00    +0.120 C 
BRANCH  14  16
ATOM     16  C   UNL     1      -1.623   3.681  25.747  0.00  0.00    -0.033 A 
ATOM     17  C   UNL     1      -1.295   3.971  24.423  0.00  0.00    +0.007 A 
ATOM     18  C   UNL     1      -0.899   2.719  26.451  0.00  0.00    +0.007 A 
ATOM     20  C   UNL     1      -0.241   3.299  23.802  0.00  0.00    +0.023 A 
ATOM     21  C   UNL     1       0.155   2.047  25.830  0.00  0.00    +0.023 A 
ATOM     22  C   UNL     1       0.483   2.337  24.506  0.00  0.00    +0.033 A 
BRANCH  22   8
ATOM      3  O   UNL     1       0.456   0.141  22.446  0.00  0.00    -0.276 OA
ATOM      8  N   UNL     1       1.536   1.664  23.885  0.00  0.00    -0.286 N 
ATOM     27  C   UNL     1       1.465   0.642  22.929  0.00  0.00    +0.214 C 
ATOM     30  C   UNL     1       2.836   0.177  22.506  0.00  0.00    +0.109 C 
ATOM     33  H   UNL     1       2.468   1.959  24.170  0.00  0.00    +0.155 HD
ENDBRANCH  22   8
ENDBRANCH  14  16
ENDBRANCH   5  14
TORSDOF 9
ENDMDL
MODEL 2
REMARK VINA RESULT:       1.6      1.423      2.524
REMARK  Name = 45783427
REMARK  11 active torsions:
REMARK  status: ('A' for Active; 'I' for Inactive)
REMARK    1  A    between atoms: O_2  and  C_24
REMARK    2  A    between atoms: O_2  and  C_29
REMARK    3  A    between atoms: O_4  and  C_31
REMARK    4  A    between atoms: O_4  and  C_32
REMARK    5  A    between atoms: N_5  and  C_14
REMARK    6  A    between atoms: N_8  and  C_22
REMARK    7  A    between atoms: C_10  and  C_15
REMARK    8  A    between atoms: C_14  and  C_16
REMARK    9  A    between atoms: C_19  and  C_23
REMARK   10  A    between atoms: C_27  and  C_30
REMARK   11  A    between atoms: C_29  and  C_31
REMARK                            x       y       z     vdW  Elec       q    Type
REMARK                         _______ _______ _______ _____ _____    ______ ____
ROOT
ATOM      5  N   UNL     1      -3.988   4.106  25.749  0.00  0.00    -0.287 NA
ATOM     10  C   UNL     1      -5.069   3.181  26.143  0.00  0.00    +0.146 C 
ATOM     11  C   UNL     1      -6.365   3.877  25.685  0.00  0.00    +0.030 C 
ATOM     12  C   UNL     1      -5.916   5.209  25.103  0.00  0.00    +0.017 C 
ATOM     13  C   UNL     1      -4.570   5.449  25.755  0.00  0.00    +0.085 C 
ENDROOT
BRANCH  10  15
ATOM      1  O   UNL     1      -5.982   1.290  24.892  0.00  0.00    -0.336 OA
ATOM      6  N   UNL     1      -3.859   1.011  25.553  0.00  0.00    -0.190 NA
ATOM      7  N   UNL     1      -5.593   0.026  24.431  0.00  0.00    -0.056 NA
ATOM     15  C   UNL     1      -4.903   1.802  25.542  0.00  0.00    +0.245 A 
ATOM     19  C   UNL     1      -4.331  -0.066  24.860  0.00  0.00    +0.207 A 
BRANCH  19  23
ATOM      9  N   UNL     1      -1.439  -2.173  23.816  0.00  0.00    -0.221 NA
ATOM     23  C   UNL     1      -3.513  -1.218  24.610  0.00  0.00    +0.084 A 
ATOM     24  C   UNL     1      -2.243  -1.115  24.068  0.00  0.00    +0.226 A 
ATOM     25  C   UNL     1      -3.991  -2.489  24.913  0.00  0.00    +0.018 A 
ATOM     26  C   UNL     1      -3.192  -3.601  24.670  0.00  0.00    +0.021 A 
ATOM     28  C   UNL     1      -1.936  -3.391  24.124  0.00  0.00    +0.114 A 
BRANCH  24   2
ATOM      2  O   UNL     1      -1.729   0.117  23.751  0.00  0.00    -0.474 OA
BRANCH   2  29
ATOM     29  C   UNL     1      -2.631   1.058  23.182  0.00  0.00    +0.258 C 
BRANCH  29  31
ATOM     31  C   UNL     1      -2.072   1.540  21.857  0.00  0.00    +0.200 C 
BRANCH  31   4
ATOM      4  O   UNL     1      -2.798   2.689  21.437  0.00  0.00    -0.380 OA
ATOM     32  C   UNL     1      -3.696   3.134  22.445  0.00  0.00    +0.194 C 
ENDBRANCH  31   4
ENDBRANCH  29  31
ENDBRANCH   2  29
ENDBRANCH  24   2
ENDBRANCH  19  23
ENDBRANCH  10  15
BRANCH   5  14
ATOM     14  C   UNL     1      -2.813   4.014  26.606  0.00  0.00    +0.120 C 
BRANCH  14  16
ATOM     16  C   UNL     1      -1.623   3.460  25.868  0.00  0.00    -0.033 A 
ATOM     17  C   UNL     1      -0.955   2.340  26.364  0.00  0.00    +0.007 A 
ATOM     18  C   UNL     1      -1.188   4.067  24.691  0.00  0.00    +0.007 A 
ATOM     20  C   UNL     1       0.148   1.827  25.681  0.00  0.00    +0.023 A 
ATOM     21  C   UNL     1      -0.085   3.554  24.007  0.00  0.00    +0.023 A 
ATOM     22  C   UNL     1       0.583   2.434  24.503  0.00  0.00    +0.033 A 
BRANCH  22   8
ATOM      3  O   UNL     1       0.917  -0.144  22.984  0.00  0.00    -0.276 OA
ATOM      8  N   UNL     1       1.686   1.922  23.820  0.00  0.00    -0.286 N 
ATOM     27  C   UNL     1       1.788   0.708  23.128  0.00  0.00    +0.214 C 
ATOM     30  C   UNL     1       3.157   0.521  22.524  0.00  0.00    +0.109 C 
ATOM     33  H   UNL     1       2.517   2.510  23.834  0.00  0.00    +0.155 HD
ENDBRANCH  22   8
ENDBRANCH  14  16
ENDBRANCH   5  14
TORSDOF 9
ENDMDL
MODEL 3
REMARK VINA RESULT:       1.8      2.128      5.954
REMARK  Name = 45783427
REMARK  11 active torsions:
REMARK  status: ('A' for Active; 'I' for Inactive)
REMARK    1  A    between atoms: O_2  and  C_24
REMARK    2  A    between atoms: O_2  and  C_29
REMARK    3  A    between atoms: O_4  and  C_31
REMARK    4  A    between atoms: O_4  and  C_32
REMARK    5  A    between atoms: N_5  and  C_14
REMARK    6  A    between atoms: N_8  and  C_22
REMARK    7  A    between atoms: C_10  and  C_15
REMARK    8  A    between atoms: C_14  and  C_16
REMARK    9  A    between atoms: C_19  and  C_23
REMARK   10  A    between atoms: C_27  and  C_30
REMARK   11  A    between atoms: C_29  and  C_31
REMARK                            x       y       z     vdW  Elec       q    Type
REMARK                         _______ _______ _______ _____ _____    ______ ____
ROOT
ATOM      5  N   UNL     1      -4.456  -1.788  23.863  0.00  0.00    -0.287 NA
ATOM     10  C   UNL     1      -3.565  -2.245  24.947  0.00  0.00    +0.146 C 
ATOM     11  C   UNL     1      -3.326  -3.738  24.652  0.00  0.00    +0.030 C 
ATOM     12  C   UNL     1      -4.170  -4.040  23.422  0.00  0.00    +0.017 C 
ATOM     13  C   UNL     1      -5.228  -2.956  23.440  0.00  0.00    +0.085 C 
ENDROOT
BRANCH  10  15
ATOM      1  O   UNL     1      -1.906  -1.011  26.250  0.00  0.00    -0.336 OA
ATOM      6  N   UNL     1      -1.456  -1.114  24.057  0.00  0.00    -0.190 NA
ATOM      7  N   UNL     1      -0.706  -0.311  26.064  0.00  0.00    -0.056 NA
ATOM     15  C   UNL     1      -2.279  -1.450  25.018  0.00  0.00    +0.245 A 
ATOM     19  C   UNL     1      -0.507  -0.417  24.747  0.00  0.00    +0.207 A 
BRANCH  19  23
ATOM      9  N   UNL     1       1.934   2.113  23.510  0.00  0.00    -0.221 NA
ATOM     23  C   UNL     1       0.630   0.162  24.091  0.00  0.00    +0.084 A 
ATOM     24  C   UNL     1       0.877   1.525  24.114  0.00  0.00    +0.226 A 
ATOM     25  C   UNL     1       1.524  -0.650  23.402  0.00  0.00    +0.018 A 
ATOM     26  C   UNL     1       2.624  -0.082  22.768  0.00  0.00    +0.021 A 
ATOM     28  C   UNL     1       2.782   1.292  22.851  0.00  0.00    +0.114 A 
BRANCH  24   2
ATOM      2  O   UNL     1       0.023   2.368  24.779  0.00  0.00    -0.474 OA
BRANCH   2  29
ATOM     29  C   UNL     1       0.591   3.173  25.805  0.00  0.00    +0.258 C 
BRANCH  29  31
ATOM     31  C   UNL     1       0.541   2.412  27.116  0.00  0.00    +0.200 C 
BRANCH  31   4
ATOM      4  O   UNL     1       1.664   2.777  27.909  0.00  0.00    -0.380 OA
ATOM     32  C   UNL     1       1.473   2.430  29.274  0.00  0.00    +0.194 C 
ENDBRANCH  31   4
ENDBRANCH  29  31
ENDBRANCH   2  29
ENDBRANCH  24   2
ENDBRANCH  19  23
ENDBRANCH  10  15
BRANCH   5  14
ATOM     14  C   UNL     1      -5.314  -0.676  24.255  0.00  0.00    +0.120 C 
BRANCH  14  16
ATOM     16  C   UNL     1      -4.571   0.633  24.256  0.00  0.00    -0.033 A 
ATOM     17  C   UNL     1      -4.779   1.551  25.285  0.00  0.00    +0.007 A 
ATOM     18  C   UNL     1      -3.675   0.927  23.228  0.00  0.00    +0.007 A 
ATOM     20  C   UNL     1      -4.091   2.765  25.286  0.00  0.00    +0.023 A 
ATOM     21  C   UNL     1      -2.987   2.141  23.230  0.00  0.00    +0.023 A 
ATOM     22  C   UNL     1      -3.195   3.060  24.258  0.00  0.00    +0.033 A 
BRANCH  22   8
ATOM      3  O   UNL     1      -2.403   4.857  26.540  0.00  0.00    -0.276 OA
ATOM      8  N   UNL     1      -2.507   4.274  24.258  0.00  0.00    -0.286 N 
ATOM     27  C   UNL     1      -2.166   5.074  25.357  0.00  0.00    +0.214 C 
ATOM     30  C   UNL     1      -1.421   6.315  24.934  0.00  0.00    +0.109 C 
ATOM     33  H   UNL     1      -2.224   4.612  23.341  0.00  0.00    +0.155 HD
ENDBRANCH  22   8
ENDBRANCH  14  16
ENDBRANCH   5  14
TORSDOF 9
ENDMDL
MODEL 4
REMARK VINA RESULT:       2.1      2.693      6.123
REMARK  Name = 45783427
REMARK  11 active torsions:
REMARK  status: ('A' for Active; 'I' for Inactive)
REMARK    1  A    between atoms: O_2  and  C_24
REMARK    2  A    between atoms: O_2  and  C_29
REMARK    3  A    between atoms: O_4  and  C_31
REMARK    4  A    between atoms: O_4  and  C_32
REMARK    5  A    between atoms: N_5  and  C_14
REMARK    6  A    between atoms: N_8  and  C_22
REMARK    7  A    between atoms: C_10  and  C_15
REMARK    8  A    between atoms: C_14  and  C_16
REMARK    9  A    between atoms: C_19  and  C_23
REMARK   10  A    between atoms: C_27  and  C_30
REMARK   11  A    between atoms: C_29  and  C_31
REMARK                            x       y       z     vdW  Elec       q    Type
REMARK                         _______ _______ _______ _____ _____    ______ ____
ROOT
ATOM      5  N   UNL     1       0.440  -0.720  23.980  0.00  0.00    -0.287 NA
ATOM     10  C   UNL     1      -0.968  -1.094  23.735  0.00  0.00    +0.146 C 
ATOM     11  C   UNL     1      -1.301  -2.108  24.846  0.00  0.00    +0.030 C 
ATOM     12  C   UNL     1      -0.005  -2.284  25.625  0.00  0.00    +0.017 C 
ATOM     13  C   UNL     1       1.065  -1.868  24.637  0.00  0.00    +0.085 C 
ENDROOT
BRANCH  10  15
ATOM      1  O   UNL     1      -1.784   0.956  22.685  0.00  0.00    -0.336 OA
ATOM      6  N   UNL     1      -2.809   0.444  24.611  0.00  0.00    -0.190 NA
ATOM      7  N   UNL     1      -2.729   1.967  22.905  0.00  0.00    -0.056 NA
ATOM     15  C   UNL     1      -1.896   0.101  23.736  0.00  0.00    +0.245 A 
ATOM     19  C   UNL     1      -3.291   1.594  24.058  0.00  0.00    +0.207 A 
BRANCH  19  23
ATOM      9  N   UNL     1      -5.172   4.450  25.542  0.00  0.00    -0.221 NA
ATOM     23  C   UNL     1      -4.340   2.348  24.684  0.00  0.00    +0.084 A 
ATOM     24  C   UNL     1      -4.211   3.701  24.954  0.00  0.00    +0.226 A 
ATOM     25  C   UNL     1      -5.530   1.724  25.040  0.00  0.00    +0.018 A 
ATOM     26  C   UNL     1      -6.541   2.461  25.645  0.00  0.00    +0.021 A 
ATOM     28  C   UNL     1      -6.315   3.809  25.872  0.00  0.00    +0.114 A 
BRANCH  24   2
ATOM      2  O   UNL     1      -3.056   4.362  24.623  0.00  0.00    -0.474 OA
BRANCH   2  29
ATOM     29  C   UNL     1      -2.027   4.381  25.605  0.00  0.00    +0.258 C 
BRANCH  29  31
ATOM     31  C   UNL     1      -0.679   4.385  24.910  0.00  0.00    +0.200 C 
BRANCH  31   4
ATOM      4  O   UNL     1      -0.182   3.053  24.852  0.00  0.00    -0.380 OA
ATOM     32  C   UNL     1      -0.161   2.449  26.139  0.00  0.00    +0.194 C 
ENDBRANCH  31   4
ENDBRANCH  29  31
ENDBRANCH   2  29
ENDBRANCH  24   2
ENDBRANCH  19  23
ENDBRANCH  10  15
BRANCH   5  14
ATOM     14  C   UNL     1       1.149  -0.328  22.768  0.00  0.00    +0.120 C 
BRANCH  14  16
ATOM     16  C   UNL     1       2.628  -0.185  23.005  0.00  0.00    -0.033 A 
ATOM     17  C   UNL     1       3.354  -1.247  23.545  0.00  0.00    +0.007 A 
ATOM     18  C   UNL     1       3.273   1.010  22.686  0.00  0.00    +0.007 A 
ATOM     20  C   UNL     1       4.725  -1.115  23.765  0.00  0.00    +0.023 A 
ATOM     21  C   UNL     1       4.645   1.142  22.906  0.00  0.00    +0.023 A 
ATOM     22  C   UNL     1       5.370   0.080  23.446  0.00  0.00    +0.033 A 
BRANCH  22   8
ATOM      3  O   UNL     1       7.708  -1.209  22.055  0.00  0.00    -0.276 OA
ATOM      8  N   UNL     1       6.741   0.213  23.667  0.00  0.00    -0.286 N 
ATOM     27  C   UNL     1       7.792  -0.416  22.986  0.00  0.00    +0.214 C 
ATOM     30  C   UNL     1       9.137  -0.004  23.531  0.00  0.00    +0.109 C 
ATOM     33  H   UNL     1       7.000   0.849  24.419  0.00  0.00    +0.155 HD
ENDBRANCH  22   8
ENDBRANCH  14  16
ENDBRANCH   5  14
TORSDOF 9
ENDMDL
MODEL 5
REMARK VINA RESULT:       2.4      2.073      2.947
REMARK  Name = 45783427
REMARK  11 active torsions:
REMARK  status: ('A' for Active; 'I' for Inactive)
REMARK    1  A    between atoms: O_2  and  C_24
REMARK    2  A    between atoms: O_2  and  C_29
REMARK    3  A    between atoms: O_4  and  C_31
REMARK    4  A    between atoms: O_4  and  C_32
REMARK    5  A    between atoms: N_5  and  C_14
REMARK    6  A    between atoms: N_8  and  C_22
REMARK    7  A    between atoms: C_10  and  C_15
REMARK    8  A    between atoms: C_14  and  C_16
REMARK    9  A    between atoms: C_19  and  C_23
REMARK   10  A    between atoms: C_27  and  C_30
REMARK   11  A    between atoms: C_29  and  C_31
REMARK                            x       y       z     vdW  Elec       q    Type
REMARK                         _______ _______ _______ _____ _____    ______ ____
ROOT
ATOM      5  N   UNL     1      -3.951   4.118  24.189  0.00  0.00    -0.287 NA
ATOM     10  C   UNL     1      -4.240   3.249  25.348  0.00  0.00    +0.146 C 
ATOM     11  C   UNL     1      -5.552   3.805  25.934  0.00  0.00    +0.030 C 
ATOM     12  C   UNL     1      -5.888   5.017  25.077  0.00  0.00    +0.017 C 
ATOM     13  C   UNL     1      -4.552   5.418  24.486  0.00  0.00    +0.085 C 
ENDROOT
BRANCH  10  15
ATOM      1  O   UNL     1      -5.588   1.322  24.681  0.00  0.00    -0.336 OA
ATOM      6  N   UNL     1      -3.399   0.885  24.871  0.00  0.00    -0.190 NA
ATOM      7  N   UNL     1      -5.432  -0.033  24.364  0.00  0.00    -0.056 NA
ATOM     15  C   UNL     1      -4.343   1.788  24.967  0.00  0.00    +0.245 A 
ATOM     19  C   UNL     1      -4.115  -0.214  24.499  0.00  0.00    +0.207 A 
BRANCH  19  23
ATOM      9  N   UNL     1      -1.469  -2.800  24.048  0.00  0.00    -0.221 NA
ATOM     23  C   UNL     1      -3.484  -1.482  24.267  0.00  0.00    +0.084 A 
ATOM     24  C   UNL     1      -2.106  -1.627  24.262  0.00  0.00    +0.226 A 
ATOM     25  C   UNL     1      -4.258  -2.614  24.036  0.00  0.00    +0.018 A 
ATOM     26  C   UNL     1      -3.639  -3.839  23.813  0.00  0.00    +0.021 A 
ATOM     28  C   UNL     1      -2.254  -3.878  23.829  0.00  0.00    +0.114 A 
BRANCH  24   2
ATOM      2  O   UNL     1      -1.300  -0.540  24.484  0.00  0.00    -0.474 OA
BRANCH   2  29
ATOM     29  C   UNL     1       0.099  -0.735  24.310  0.00  0.00    +0.258 C 
BRANCH  29  31
ATOM     31  C   UNL     1       0.528  -0.100  23.001  0.00  0.00    +0.200 C 
BRANCH  31   4
ATOM      4  O   UNL     1       1.706   0.666  23.221  0.00  0.00    -0.380 OA
ATOM     32  C   UNL     1       2.791   0.189  22.437  0.00  0.00    +0.194 C 
ENDBRANCH  31   4
ENDBRANCH  29  31
ENDBRANCH   2  29
ENDBRANCH  24   2
ENDBRANCH  19  23
ENDBRANCH  10  15
BRANCH   5  14
ATOM     14  C   UNL     1      -2.527   4.226  23.894  0.00  0.00    +0.120 C 
BRANCH  14  16
ATOM     16  C   UNL     1      -1.680   3.684  25.014  0.00  0.00    -0.033 A 
ATOM     17  C   UNL     1      -0.558   2.907  24.726  0.00  0.00    +0.007 A 
ATOM     18  C   UNL     1      -2.018   3.957  26.339  0.00  0.00    +0.007 A 
ATOM     20  C   UNL     1       0.228   2.404  25.763  0.00  0.00    +0.023 A 
ATOM     21  C   UNL     1      -1.232   3.454  27.377  0.00  0.00    +0.023 A 
ATOM     22  C   UNL     1      -0.110   2.678  27.089  0.00  0.00    +0.033 A 
BRANCH  22   8
ATOM      3  O   UNL     1       2.451   3.716  28.284  0.00  0.00    -0.276 OA
ATOM      8  N   UNL     1       0.675   2.174  28.127  0.00  0.00    -0.286 N 
ATOM     27  C   UNL     1       1.866   2.700  28.644  0.00  0.00    +0.214 C 
ATOM     30  C   UNL     1       2.409   1.854  29.769  0.00  0.00    +0.109 C 
ATOM     33  H   UNL     1       0.330   1.317  28.555  0.00  0.00    +0.155 HD
ENDBRANCH  22   8
ENDBRANCH  14  16
ENDBRANCH   5  14
TORSDOF 9
ENDMDL
MODEL 6
REMARK VINA RESULT:       2.7      2.169      4.049
REMARK  Name = 45783427
REMARK  11 active torsions:
REMARK  status: ('A' for Active; 'I' for Inactive)
REMARK    1  A    between atoms: O_2  and  C_24
REMARK    2  A    between atoms: O_2  and  C_29
REMARK    3  A    between atoms: O_4  and  C_31
REMARK    4  A    between atoms: O_4  and  C_32
REMARK    5  A    between atoms: N_5  and  C_14
REMARK    6  A    between atoms: N_8  and  C_22
REMARK    7  A    between atoms: C_10  and  C_15
REMARK    8  A    between atoms: C_14  and  C_16
REMARK    9  A    between atoms: C_19  and  C_23
REMARK   10  A    between atoms: C_27  and  C_30
REMARK   11  A    between atoms: C_29  and  C_31
REMARK                            x       y       z     vdW  Elec       q    Type
REMARK                         _______ _______ _______ _____ _____    ______ ____
ROOT
ATOM      5  N   UNL     1      -4.581   3.257  24.807  0.00  0.00    -0.287 NA
ATOM     10  C   UNL     1      -4.071   1.955  25.280  0.00  0.00    +0.146 C 
ATOM     11  C   UNL     1      -5.299   1.025  25.261  0.00  0.00    +0.030 C 
ATOM     12  C   UNL     1      -6.459   1.907  24.824  0.00  0.00    +0.017 C 
ATOM     13  C   UNL     1      -5.996   3.306  25.175  0.00  0.00    +0.085 C 
ENDROOT
BRANCH  10  15
ATOM      1  O   UNL     1      -3.111   1.471  23.085  0.00  0.00    -0.336 OA
ATOM      6  N   UNL     1      -1.774   0.943  24.804  0.00  0.00    -0.190 NA
ATOM      7  N   UNL     1      -1.941   0.946  22.522  0.00  0.00    -0.056 NA
ATOM     15  C   UNL     1      -2.930   1.434  24.432  0.00  0.00    +0.245 A 
ATOM     19  C   UNL     1      -1.203   0.658  23.598  0.00  0.00    +0.207 A 
BRANCH  19  23
ATOM      9  N   UNL     1       1.704  -1.600  24.178  0.00  0.00    -0.221 NA
ATOM     23  C   UNL     1       0.109   0.086  23.503  0.00  0.00    +0.084 A 
ATOM     24  C   UNL     1       0.481  -1.029  24.237  0.00  0.00    +0.226 A 
ATOM     25  C   UNL     1       1.056   0.652  22.655  0.00  0.00    +0.018 A 
ATOM     26  C   UNL     1       2.325   0.091  22.568  0.00  0.00    +0.021 A 
ATOM     28  C   UNL     1       2.597  -1.024  23.344  0.00  0.00    +0.114 A 
BRANCH  24   2
ATOM      2  O   UNL     1      -0.418  -1.622  25.087  0.00  0.00    -0.474 OA
BRANCH   2  29
ATOM     29  C   UNL     1      -1.390  -2.476  24.495  0.00  0.00    +0.258 C 
BRANCH  29  31
ATOM     31  C   UNL     1      -2.679  -2.382  25.288  0.00  0.00    +0.200 C 
BRANCH  31   4
ATOM      4  O   UNL     1      -3.736  -2.950  24.525  0.00  0.00    -0.380 OA
ATOM     32  C   UNL     1      -4.329  -1.989  23.661  0.00  0.00    +0.194 C 
ENDBRANCH  31   4
ENDBRANCH  29  31
ENDBRANCH   2  29
ENDBRANCH  24   2
ENDBRANCH  19  23
ENDBRANCH  10  15
BRANCH   5  14
ATOM     14  C   UNL     1      -3.836   4.392  25.337  0.00  0.00    +0.120 C 
BRANCH  14  16
ATOM     16  C   UNL     1      -2.489   3.981  25.868  0.00  0.00    -0.033 A 
ATOM     17  C   UNL     1      -2.384   3.405  27.134  0.00  0.00    +0.007 A 
ATOM     18  C   UNL     1      -1.345   4.178  25.094  0.00  0.00    +0.007 A 
ATOM     20  C   UNL     1      -1.135   3.025  27.626  0.00  0.00    +0.023 A 
ATOM     21  C   UNL     1      -0.096   3.798  25.586  0.00  0.00    +0.023 A 
ATOM     22  C   UNL     1       0.008   3.222  26.852  0.00  0.00    +0.033 A 
BRANCH  22   8
ATOM      3  O   UNL     1       0.937   2.758  29.678  0.00  0.00    -0.276 OA
ATOM      8  N   UNL     1       1.258   2.842  27.344  0.00  0.00    -0.286 N 
ATOM     27  C   UNL     1       1.637   2.642  28.678  0.00  0.00    +0.214 C 
ATOM     30  C   UNL     1       3.085   2.236  28.791  0.00  0.00    +0.109 C 
ATOM     33  H   UNL     1       1.976   2.697  26.637  0.00  0.00    +0.155 HD
ENDBRANCH  22   8
ENDBRANCH  14  16
ENDBRANCH   5  14
TORSDOF 9
ENDMDL
MODEL 7
REMARK VINA RESULT:       2.9      2.389      5.702
REMARK  Name = 45783427
REMARK  11 active torsions:
REMARK  status: ('A' for Active; 'I' for Inactive)
REMARK    1  A    between atoms: O_2  and  C_24
REMARK    2  A    between atoms: O_2  and  C_29
REMARK    3  A    between atoms: O_4  and  C_31
REMARK    4  A    between atoms: O_4  and  C_32
REMARK    5  A    between atoms: N_5  and  C_14
REMARK    6  A    between atoms: N_8  and  C_22
REMARK    7  A    between atoms: C_10  and  C_15
REMARK    8  A    between atoms: C_14  and  C_16
REMARK    9  A    between atoms: C_19  and  C_23
REMARK   10  A    between atoms: C_27  and  C_30
REMARK   11  A    between atoms: C_29  and  C_31
REMARK                            x       y       z     vdW  Elec       q    Type
REMARK                         _______ _______ _______ _____ _____    ______ ____
ROOT
ATOM      5  N   UNL     1      -2.108  -1.474  23.916  0.00  0.00    -0.287 NA
ATOM     10  C   UNL     1      -3.525  -1.062  23.934  0.00  0.00    +0.146 C 
ATOM     11  C   UNL     1      -4.187  -1.983  24.976  0.00  0.00    +0.030 C 
ATOM     12  C   UNL     1      -3.079  -2.916  25.442  0.00  0.00    +0.017 C 
ATOM     13  C   UNL     1      -2.082  -2.885  24.301  0.00  0.00    +0.085 C 
ENDROOT
BRANCH  10  15
ATOM      1  O   UNL     1      -4.902   0.773  24.777  0.00  0.00    -0.336 OA
ATOM      6  N   UNL     1      -2.855   1.396  24.110  0.00  0.00    -0.190 NA
ATOM      7  N   UNL     1      -4.826   2.156  24.990  0.00  0.00    -0.056 NA
ATOM     15  C   UNL     1      -3.700   0.407  24.257  0.00  0.00    +0.245 A 
ATOM     19  C   UNL     1      -3.591   2.448  24.573  0.00  0.00    +0.207 A 
BRANCH  19  23
ATOM      9  N   UNL     1      -1.483   5.377  25.504  0.00  0.00    -0.221 NA
ATOM     23  C   UNL     1      -3.061   3.781  24.606  0.00  0.00    +0.084 A 
ATOM     24  C   UNL     1      -2.013   4.135  25.440  0.00  0.00    +0.226 A 
ATOM     25  C   UNL     1      -3.601   4.766  23.786  0.00  0.00    +0.018 A 
ATOM     26  C   UNL     1      -3.082   6.056  23.823  0.00  0.00    +0.021 A 
ATOM     28  C   UNL     1      -2.033   6.308  24.692  0.00  0.00    +0.114 A 
BRANCH  24   2
ATOM      2  O   UNL     1      -1.447   3.199  26.268  0.00  0.00    -0.474 OA
BRANCH   2  29
ATOM     29  C   UNL     1      -0.064   2.929  26.076  0.00  0.00    +0.258 C 
BRANCH  29  31
ATOM     31  C   UNL     1       0.489   2.270  27.325  0.00  0.00    +0.200 C 
BRANCH  31   4
ATOM      4  O   UNL     1       1.678   2.945  27.718  0.00  0.00    -0.380 OA
ATOM     32  C   UNL     1       2.071   2.582  29.035  0.00  0.00    +0.194 C 
ENDBRANCH  31   4
ENDBRANCH  29  31
ENDBRANCH   2  29
ENDBRANCH  24   2
ENDBRANCH  19  23
ENDBRANCH  10  15
BRANCH   5  14
ATOM     14  C   UNL     1      -1.459  -1.245  22.631  0.00  0.00    +0.120 C 
BRANCH  14  16
ATOM     16  C   UNL     1      -0.067  -0.697  22.795  0.00  0.00    -0.033 A 
ATOM     17  C   UNL     1       0.870  -0.855  21.774  0.00  0.00    +0.007 A 
ATOM     18  C   UNL     1       0.287  -0.032  23.970  0.00  0.00    +0.007 A 
ATOM     20  C   UNL     1       2.161  -0.347  21.926  0.00  0.00    +0.023 A 
ATOM     21  C   UNL     1       1.577   0.476  24.122  0.00  0.00    +0.023 A 
ATOM     22  C   UNL     1       2.514   0.317  23.101  0.00  0.00    +0.033 A 
BRANCH  22   8
ATOM      3  O   UNL     1       5.041  -1.023  24.040  0.00  0.00    -0.276 OA
ATOM      8  N   UNL     1       3.805   0.824  23.254  0.00  0.00    -0.286 N 
ATOM     27  C   UNL     1       4.951   0.152  23.699  0.00  0.00    +0.214 C 
ATOM     30  C   UNL     1       6.156   1.058  23.724  0.00  0.00    +0.109 C 
ATOM     33  H   UNL     1       3.918   1.806  23.010  0.00  0.00    +0.155 HD
ENDBRANCH  22   8
ENDBRANCH  14  16
ENDBRANCH   5  14
TORSDOF 9
ENDMDL
MODEL 8
REMARK VINA RESULT:       3.1      2.148      5.718
REMARK  Name = 45783427
REMARK  11 active torsions:
REMARK  status: ('A' for Active; 'I' for Inactive)
REMARK    1  A    between atoms: O_2  and  C_24
REMARK    2  A    between atoms: O_2  and  C_29
REMARK    3  A    between atoms: O_4  and  C_31
REMARK    4  A    between atoms: O_4  and  C_32
REMARK    5  A    between atoms: N_5  and  C_14
REMARK    6  A    between atoms: N_8  and  C_22
REMARK    7  A    between atoms: C_10  and  C_15
REMARK    8  A    between atoms: C_14  and  C_16
REMARK    9  A    between atoms: C_19  and  C_23
REMARK   10  A    between atoms: C_27  and  C_30
REMARK   11  A    between atoms: C_29  and  C_31
REMARK                            x       y       z     vdW  Elec       q    Type
REMARK                         _______ _______ _______ _____ _____    ______ ____
ROOT
ATOM      5  N   UNL     1      -1.046  -0.593  24.097  0.00  0.00    -0.287 NA
ATOM     10  C   UNL     1      -2.395  -1.161  23.903  0.00  0.00    +0.146 C 
ATOM     11  C   UNL     1      -2.408  -2.439  24.763  0.00  0.00    +0.030 C 
ATOM     12  C   UNL     1      -1.008  -2.536  25.351  0.00  0.00    +0.017 C 
ATOM     13  C   UNL     1      -0.162  -1.719  24.397  0.00  0.00    +0.085 C 
ENDROOT
BRANCH  10  15
ATOM      1  O   UNL     1      -4.745  -0.712  24.400  0.00  0.00    -0.336 OA
ATOM      6  N   UNL     1      -3.425   1.096  24.510  0.00  0.00    -0.190 NA
ATOM      7  N   UNL     1      -5.578   0.359  24.748  0.00  0.00    -0.056 NA
ATOM     15  C   UNL     1      -3.495  -0.192  24.279  0.00  0.00    +0.245 A 
ATOM     19  C   UNL     1      -4.727   1.388  24.793  0.00  0.00    +0.207 A 
BRANCH  19  23
ATOM      9  N   UNL     1      -4.704   5.098  25.153  0.00  0.00    -0.221 NA
ATOM     23  C   UNL     1      -5.146   2.721  25.120  0.00  0.00    +0.084 A 
ATOM     24  C   UNL     1      -4.350   3.826  24.862  0.00  0.00    +0.226 A 
ATOM     25  C   UNL     1      -6.384   2.936  25.715  0.00  0.00    +0.018 A 
ATOM     26  C   UNL     1      -6.784   4.231  26.027  0.00  0.00    +0.021 A 
ATOM     28  C   UNL     1      -5.914   5.268  25.729  0.00  0.00    +0.114 A 
BRANCH  24   2
ATOM      2  O   UNL     1      -3.120   3.665  24.278  0.00  0.00    -0.474 OA
BRANCH   2  29
ATOM     29  C   UNL     1      -2.080   4.523  24.732  0.00  0.00    +0.258 C 
BRANCH  29  31
ATOM     31  C   UNL     1      -0.839   3.695  25.006  0.00  0.00    +0.200 C 
BRANCH  31   4
ATOM      4  O   UNL     1      -1.039   2.939  26.195  0.00  0.00    -0.380 OA
ATOM     32  C   UNL     1       0.169   2.335  26.637  0.00  0.00    +0.194 C 
ENDBRANCH  31   4
ENDBRANCH  29  31
ENDBRANCH   2  29
ENDBRANCH  24   2
ENDBRANCH  19  23
ENDBRANCH  10  15
BRANCH   5  14
ATOM     14  C   UNL     1      -0.579   0.183  22.955  0.00  0.00    +0.120 C 
BRANCH  14  16
ATOM     16  C   UNL     1       0.924   0.238  22.890  0.00  0.00    -0.033 A 
ATOM     17  C   UNL     1       1.623   1.141  23.691  0.00  0.00    +0.007 A 
ATOM     18  C   UNL     1       1.616  -0.613  22.029  0.00  0.00    +0.007 A 
ATOM     20  C   UNL     1       3.016   1.192  23.631  0.00  0.00    +0.023 A 
ATOM     21  C   UNL     1       3.009  -0.562  21.968  0.00  0.00    +0.023 A 
ATOM     22  C   UNL     1       3.709   0.341  22.769  0.00  0.00    +0.033 A 
BRANCH  22   8
ATOM      3  O   UNL     1       5.791  -0.885  24.564  0.00  0.00    -0.276 OA
ATOM      8  N   UNL     1       5.102   0.393  22.707  0.00  0.00    -0.286 N 
ATOM     27  C   UNL     1       6.028  -0.198  23.576  0.00  0.00    +0.214 C 
ATOM     30  C   UNL     1       7.449   0.097  23.164  0.00  0.00    +0.109 C 
ATOM     33  H   UNL     1       5.482   0.931  21.931  0.00  0.00    +0.155 HD
ENDBRANCH  22   8
ENDBRANCH  14  16
ENDBRANCH   5  14
TORSDOF 9
ENDMDL
MODEL 9
REMARK VINA RESULT:       3.3      1.763      6.098
REMARK  Name = 45783427
REMARK  11 active torsions:
REMARK  status: ('A' for Active; 'I' for Inactive)
REMARK    1  A    between atoms: O_2  and  C_24
REMARK    2  A    between atoms: O_2  and  C_29
REMARK    3  A    between atoms: O_4  and  C_31
REMARK    4  A    between atoms: O_4  and  C_32
REMARK    5  A    between atoms: N_5  and  C_14
REMARK    6  A    between atoms: N_8  and  C_22
REMARK    7  A    between atoms: C_10  and  C_15
REMARK    8  A    between atoms: C_14  and  C_16
REMARK    9  A    between atoms: C_19  and  C_23
REMARK   10  A    between atoms: C_27  and  C_30
REMARK   11  A    between atoms: C_29  and  C_31
REMARK                            x       y       z     vdW  Elec       q    Type
REMARK                         _______ _______ _______ _____ _____    ______ ____
ROOT
ATOM      5  N   UNL     1      -4.514  -2.044  23.755  0.00  0.00    -0.287 NA
ATOM     10  C   UNL     1      -3.669  -2.556  24.853  0.00  0.00    +0.146 C 
ATOM     11  C   UNL     1      -3.358  -4.013  24.460  0.00  0.00    +0.030 C 
ATOM     12  C   UNL     1      -4.119  -4.245  23.162  0.00  0.00    +0.017 C 
ATOM     13  C   UNL     1      -5.216  -3.201  23.200  0.00  0.00    +0.085 C 
ENDROOT
BRANCH  10  15
ATOM      1  O   UNL     1      -1.273  -2.414  25.311  0.00  0.00    -0.336 OA
ATOM      6  N   UNL     1      -2.271  -0.427  25.036  0.00  0.00    -0.190 NA
ATOM      7  N   UNL     1      -0.269  -1.449  25.466  0.00  0.00    -0.056 NA
ATOM     15  C   UNL     1      -2.419  -1.728  25.060  0.00  0.00    +0.245 A 
ATOM     19  C   UNL     1      -0.936  -0.304  25.290  0.00  0.00    +0.207 A 
BRANCH  19  23
ATOM      9  N   UNL     1       1.062   2.692  24.329  0.00  0.00    -0.221 NA
ATOM     23  C   UNL     1      -0.297   0.979  25.360  0.00  0.00    +0.084 A 
ATOM     24  C   UNL     1       0.444   1.490  24.306  0.00  0.00    +0.226 A 
ATOM     25  C   UNL     1      -0.410   1.751  26.511  0.00  0.00    +0.018 A 
ATOM     26  C   UNL     1       0.212   2.993  26.571  0.00  0.00    +0.021 A 
ATOM     28  C   UNL     1       0.930   3.414  25.463  0.00  0.00    +0.114 A 
BRANCH  24   2
ATOM      2  O   UNL     1       0.585   0.765  23.150  0.00  0.00    -0.474 OA
BRANCH   2  29
ATOM     29  C   UNL     1       1.668  -0.157  23.102  0.00  0.00    +0.258 C 
BRANCH  29  31
ATOM     31  C   UNL     1       2.775   0.426  22.246  0.00  0.00    +0.200 C 
BRANCH  31   4
ATOM      4  O   UNL     1       3.732   1.056  23.089  0.00  0.00    -0.380 OA
ATOM     32  C   UNL     1       4.916   0.279  23.204  0.00  0.00    +0.194 C 
ENDBRANCH  31   4
ENDBRANCH  29  31
ENDBRANCH   2  29
ENDBRANCH  24   2
ENDBRANCH  19  23
ENDBRANCH  10  15
BRANCH   5  14
ATOM     14  C   UNL     1      -5.433  -0.995  24.179  0.00  0.00    +0.120 C 
BRANCH  14  16
ATOM     16  C   UNL     1      -4.767   0.354  24.214  0.00  0.00    -0.033 A 
ATOM     17  C   UNL     1      -5.090   1.265  25.219  0.00  0.00    +0.007 A 
ATOM     18  C   UNL     1      -3.827   0.693  23.240  0.00  0.00    +0.007 A 
ATOM     20  C   UNL     1      -4.473   2.516  25.252  0.00  0.00    +0.023 A 
ATOM     21  C   UNL     1      -3.210   1.944  23.273  0.00  0.00    +0.023 A 
ATOM     22  C   UNL     1      -3.534   2.856  24.278  0.00  0.00    +0.033 A 
BRANCH  22   8
ATOM      3  O   UNL     1      -2.643   4.538  26.610  0.00  0.00    -0.276 OA
ATOM      8  N   UNL     1      -2.917   4.107  24.309  0.00  0.00    -0.286 N 
ATOM     27  C   UNL     1      -2.524   4.849  25.430  0.00  0.00    +0.214 C 
ATOM     30  C   UNL     1      -1.890   6.160  25.038  0.00  0.00    +0.109 C 
ATOM     33  H   UNL     1      -2.736   4.524  23.398  0.00  0.00    +0.155 HD
ENDBRANCH  22   8
ENDBRANCH  14  16
ENDBRANCH   5  14
TORSDOF 9
ENDMDL
MODEL 10
REMARK VINA RESULT:       3.6      2.008      4.658
REMARK  Name = 45783427
REMARK  11 active torsions:
REMARK  status: ('A' for Active; 'I' for Inactive)
REMARK    1  A    between atoms: O_2  and  C_24
REMARK    2  A    between atoms: O_2  and  C_29
REMARK    3  A    between atoms: O_4  and  C_31
REMARK    4  A    between atoms: O_4  and  C_32
REMARK    5  A    between atoms: N_5  and  C_14
REMARK    6  A    between atoms: N_8  and  C_22
REMARK    7  A    between atoms: C_10  and  C_15
REMARK    8  A    between atoms: C_14  and  C_16
REMARK    9  A    between atoms: C_19  and  C_23
REMARK   10  A    between atoms: C_27  and  C_30
REMARK   11  A    between atoms: C_29  and  C_31
REMARK                            x       y       z     vdW  Elec       q    Type
REMARK                         _______ _______ _______ _____ _____    ______ ____
ROOT
ATOM      5  N   UNL     1      -2.881   5.000  24.520  0.00  0.00    -0.287 NA
ATOM     10  C   UNL     1      -1.503   4.604  24.169  0.00  0.00    +0.146 C 
ATOM     11  C   UNL     1      -0.626   5.778  24.644  0.00  0.00    +0.030 C 
ATOM     12  C   UNL     1      -1.604   6.809  25.190  0.00  0.00    +0.017 C 
ATOM     13  C   UNL     1      -2.909   6.463  24.501  0.00  0.00    +0.085 C 
ENDROOT
BRANCH  10  15
ATOM      1  O   UNL     1      -0.757   3.317  26.109  0.00  0.00    -0.336 OA
ATOM      6  N   UNL     1      -1.030   2.095  24.251  0.00  0.00    -0.190 NA
ATOM      7  N   UNL     1      -0.427   2.001  26.456  0.00  0.00    -0.056 NA
ATOM     15  C   UNL     1      -1.100   3.285  24.794  0.00  0.00    +0.245 A 
ATOM     19  C   UNL     1      -0.613   1.341  25.309  0.00  0.00    +0.207 A 
BRANCH  19  23
ATOM      9  N   UNL     1       0.428  -1.952  23.908  0.00  0.00    -0.221 NA
ATOM     23  C   UNL     1      -0.392  -0.071  25.187  0.00  0.00    +0.084 A 
ATOM     24  C   UNL     1       0.201  -0.628  24.065  0.00  0.00    +0.226 A 
ATOM     25  C   UNL     1      -0.777  -0.927  26.212  0.00  0.00    +0.018 A 
ATOM     26  C   UNL     1      -0.559  -2.295  26.087  0.00  0.00    +0.021 A 
ATOM     28  C   UNL     1       0.041  -2.753  24.925  0.00  0.00    +0.114 A 
BRANCH  24   2
ATOM      2  O   UNL     1       0.597   0.175  23.026  0.00  0.00    -0.474 OA
BRANCH   2  29
ATOM     29  C   UNL     1       1.708  -0.274  22.259  0.00  0.00    +0.258 C 
BRANCH  29  31
ATOM     31  C   UNL     1       2.940   0.509  22.669  0.00  0.00    +0.200 C 
BRANCH  31   4
ATOM      4  O   UNL     1       3.921  -0.394  23.165  0.00  0.00    -0.380 OA
ATOM     32  C   UNL     1       5.166   0.256  23.380  0.00  0.00    +0.194 C 
ENDBRANCH  31   4
ENDBRANCH  29  31
ENDBRANCH   2  29
ENDBRANCH  24   2
ENDBRANCH  19  23
ENDBRANCH  10  15
BRANCH   5  14
ATOM     14  C   UNL     1      -3.887   4.421  23.638  0.00  0.00    +0.120 C 
BRANCH  14  16
ATOM     16  C   UNL     1      -3.873   2.917  23.682  0.00  0.00    -0.033 A 
ATOM     17  C   UNL     1      -3.243   2.195  22.667  0.00  0.00    +0.007 A 
ATOM     18  C   UNL     1      -4.491   2.244  24.736  0.00  0.00    +0.007 A 
ATOM     20  C   UNL     1      -3.230   0.801  22.708  0.00  0.00    +0.023 A 
ATOM     21  C   UNL     1      -4.478   0.850  24.777  0.00  0.00    +0.023 A 
ATOM     22  C   UNL     1      -3.849   0.128  23.762  0.00  0.00    +0.033 A 
BRANCH  22   8
ATOM      3  O   UNL     1      -3.702  -1.758  26.104  0.00  0.00    -0.276 OA
ATOM      8  N   UNL     1      -3.837  -1.266  23.803  0.00  0.00    -0.286 N 
ATOM     27  C   UNL     1      -3.765  -2.099  24.928  0.00  0.00    +0.214 C 
ATOM     30  C   UNL     1      -3.777  -3.557  24.546  0.00  0.00    +0.109 C 
ATOM     33  H   UNL     1      -3.887  -1.727  22.896  0.00  0.00    +0.155 HD
ENDBRANCH  22   8
ENDBRANCH  14  16
ENDBRANCH   5  14
TORSDOF 9
ENDMDL
