MODEL 1
REMARK VINA RESULT:       4.1      0.000      0.000
REMARK  Name = 7135154
REMARK  12 active torsions:
REMARK  status: ('A' for Active; 'I' for Inactive)
REMARK    1  A    between atoms: O_2  and  C_15
REMARK    2  A    between atoms: O_3  and  C_20
REMARK    3  A    between atoms: N_8  and  C_26
REMARK    4  A    between atoms: N_8  and  C_27
REMARK    5  A    between atoms: C_10  and  C_18
REMARK    6  A    between atoms: C_12  and  C_20
REMARK    7  A    between atoms: C_12  and  C_21
REMARK    8  A    between atoms: C_13  and  C_23
REMARK    9  A    between atoms: C_23  and  C_24
REMARK   10  A    between atoms: C_26  and  C_29
REMARK   11  A    between atoms: C_27  and  C_30
REMARK   12  A    between atoms: C_28  and  C_31
REMARK                            x       y       z     vdW  Elec       q    Type
REMARK                         _______ _______ _______ _____ _____    ______ ____
ROOT
ATOM      1  S   UNL     1       0.506   2.282  25.733  0.00  0.00    -0.057 S 
ATOM      5  O   UNL     1       1.941  -0.197  22.105  0.00  0.00    -0.266 OA
ATOM      7  N   UNL     1      -0.232   1.106  23.550  0.00  0.00    -0.229 NA
ATOM      9  N   UNL     1       2.109   0.983  24.114  0.00  0.00    -0.258 N 
ATOM     10  C   UNL     1      -3.879   1.924  24.496  0.00  0.00    -0.019 C 
ATOM     11  C   UNL     1      -3.465   3.260  25.256  0.00  0.00    +0.011 C 
ATOM     12  C   UNL     1      -4.609   4.037  26.014  0.00  0.00    +0.021 C 
ATOM     13  C   UNL     1      -2.711   1.560  23.467  0.00  0.00    +0.054 C 
ATOM     14  C   UNL     1      -5.180   2.172  23.690  0.00  0.00    +0.010 C 
ATOM     15  C   UNL     1      -5.850   4.155  25.083  0.00  0.00    +0.123 C 
ATOM     16  C   UNL     1      -2.177   3.055  26.106  0.00  0.00    +0.049 C 
ATOM     17  C   UNL     1      -6.294   2.819  24.501  0.00  0.00    +0.032 C 
ATOM     18  C   UNL     1      -4.109   0.732  25.457  0.00  0.00    +0.012 C 
ATOM     19  C   UNL     1      -1.359   1.664  24.123  0.00  0.00    +0.058 A 
ATOM     21  C   UNL     1      -4.124   5.481  26.323  0.00  0.00    +0.016 C 
ATOM     22  C   UNL     1      -1.138   2.355  25.298  0.00  0.00    +0.015 A 
ATOM     25  C   UNL     1       0.808   1.362  24.314  0.00  0.00    +0.165 A 
ATOM     28  C   UNL     1       2.622   0.229  23.035  0.00  0.00    +0.285 C 
ATOM     37  H   UNL     1       2.759   1.284  24.835  0.00  0.00    +0.157 HD
ENDROOT
BRANCH  28  31
ATOM      6  O   UNL     1       4.447  -1.212  23.732  0.00  0.00    -0.458 OA
ATOM     31  C   UNL     1       4.065  -0.066  23.110  0.00  0.00    +0.189 A 
ATOM     32  C   UNL     1       5.162   0.624  22.651  0.00  0.00    +0.054 A 
ATOM     33  C   UNL     1       6.291  -0.148  23.014  0.00  0.00    +0.042 A 
ATOM     34  C   UNL     1       5.804  -1.254  23.669  0.00  0.00    +0.196 A 
ENDBRANCH  28  31
BRANCH  15   2
ATOM      2  O   UNL     1      -6.950   4.739  25.783  0.00  0.00    -0.391 OA
ATOM     35  H   UNL     1      -6.586   5.270  26.511  0.00  0.00    +0.210 HD
ENDBRANCH  15   2
BRANCH  12  20
ATOM     20  C   UNL     1      -5.000   3.430  27.379  0.00  0.00    +0.165 C 
BRANCH  20   3
ATOM      3  O   UNL     1      -6.090   2.560  27.168  0.00  0.00    -0.394 OA
ATOM     36  H   UNL     1      -6.759   2.764  27.844  0.00  0.00    +0.209 HD
ENDBRANCH  20   3
ENDBRANCH  12  20
BRANCH  13  23
ATOM     23  C   UNL     1      -2.887   0.213  22.754  0.00  0.00    +0.106 C 
BRANCH  23  24
ATOM      4  O   UNL     1      -4.792  -0.854  23.744  0.00  0.00    -0.276 OA
ATOM      8  N   UNL     1      -2.706  -1.704  24.300  0.00  0.00    -0.302 N 
ATOM     24  C   UNL     1      -3.563  -0.818  23.636  0.00  0.00    +0.216 C 
BRANCH   8  26
ATOM     26  C   UNL     1      -1.254  -1.642  24.156  0.00  0.00    +0.104 C 
ATOM     29  C   UNL     1      -0.560  -1.700  25.502  0.00  0.00    +0.024 C 
ENDBRANCH   8  26
BRANCH   8  27
ATOM     27  C   UNL     1      -3.199  -2.754  25.183  0.00  0.00    +0.104 C 
ATOM     30  C   UNL     1      -3.880  -3.860  24.405  0.00  0.00    +0.024 C 
ENDBRANCH   8  27
ENDBRANCH  23  24
ENDBRANCH  13  23
TORSDOF 8
ENDMDL
