MODEL 1
REMARK VINA RESULT:      -4.2      0.000      0.000
REMARK  Name = 45784263
REMARK  4 active torsions:
REMARK  status: ('A' for Active; 'I' for Inactive)
REMARK    1  A    between atoms: N_6  and  C_14
REMARK    2  A    between atoms: C_9  and  C_13
REMARK    3  A    between atoms: C_14  and  C_15
REMARK    4  A    between atoms: C_22  and  C_26
REMARK                            x       y       z     vdW  Elec       q    Type
REMARK                         _______ _______ _______ _____ _____    ______ ____
ROOT
ATOM      6  N   UNL     1      -6.127 -10.275  17.874  0.00  0.00    -0.297 NA
ATOM      9  C   UNL     1      -4.655 -10.774  16.118  0.00  0.00    +0.070 C 
ATOM     10  C   UNL     1      -4.020  -9.716  17.037  0.00  0.00    +0.028 C 
ATOM     11  C   UNL     1      -6.141 -10.777  16.499  0.00  0.00    +0.096 C 
ATOM     12  C   UNL     1      -5.177  -9.162  17.860  0.00  0.00    +0.085 C 
ENDROOT
BRANCH   9  13
ATOM      7  N   UNL     1      -5.439 -10.152  13.817  0.00  0.00    -0.342 N 
ATOM      8  N   UNL     1      -3.293 -10.703  13.991  0.00  0.00    -0.232 NA
ATOM     13  C   UNL     1      -4.424 -10.552  14.642  0.00  0.00    +0.113 A 
ATOM     16  C   UNL     1      -4.927 -10.036  12.550  0.00  0.00    +0.067 A 
ATOM     17  C   UNL     1      -3.586 -10.385  12.686  0.00  0.00    +0.089 A 
ATOM     18  C   UNL     1      -5.504  -9.667  11.334  0.00  0.00    +0.040 A 
ATOM     19  C   UNL     1      -2.757 -10.372  11.551  0.00  0.00    +0.030 A 
ATOM     22  C   UNL     1      -4.664  -9.659  10.216  0.00  0.00    +0.057 A 
ATOM     23  C   UNL     1      -3.315 -10.004  10.320  0.00  0.00    +0.014 A 
ATOM     28  H   UNL     1      -6.396  -9.972  14.088  0.00  0.00    +0.167 HD
BRANCH  22  26
ATOM      2  F   UNL     1      -5.557 -10.354   8.124  0.00  0.00    -0.166 F 
ATOM      3  F   UNL     1      -6.357  -8.517   8.970  0.00  0.00    -0.166 F 
ATOM      4  F   UNL     1      -4.361  -8.538   8.124  0.00  0.00    -0.166 F 
ATOM     26  C   UNL     1      -5.223  -9.272   8.885  0.00  0.00    +0.417 C 
ENDBRANCH  22  26
ENDBRANCH   9  13
BRANCH   6  14
ATOM     14  C   UNL     1      -7.448  -9.869  18.330  0.00  0.00    +0.119 C 
BRANCH  14  15
ATOM      1  F   UNL     1     -10.459  -6.594  16.322  0.00  0.00    -0.202 F 
ATOM      5  F   UNL     1     -10.692  -8.121  14.066  0.00  0.00    -0.202 F 
ATOM     15  C   UNL     1      -8.315  -9.402  17.191  0.00  0.00    -0.030 A 
ATOM     20  C   UNL     1      -8.999  -8.191  17.286  0.00  0.00    +0.046 A 
ATOM     21  C   UNL     1      -8.433 -10.181  16.039  0.00  0.00    +0.008 A 
ATOM     24  C   UNL     1      -9.802  -7.757  16.230  0.00  0.00    +0.159 A 
ATOM     25  C   UNL     1      -9.236  -9.748  14.984  0.00  0.00    +0.041 A 
ATOM     27  C   UNL     1      -9.920  -8.536  15.080  0.00  0.00    +0.158 A 
ENDBRANCH  14  15
ENDBRANCH   6  14
TORSDOF 4
ENDMDL
MODEL 2
REMARK VINA RESULT:      -2.4     15.191     16.626
REMARK  Name = 45784263
REMARK  4 active torsions:
REMARK  status: ('A' for Active; 'I' for Inactive)
REMARK    1  A    between atoms: N_6  and  C_14
REMARK    2  A    between atoms: C_9  and  C_13
REMARK    3  A    between atoms: C_14  and  C_15
REMARK    4  A    between atoms: C_22  and  C_26
REMARK                            x       y       z     vdW  Elec       q    Type
REMARK                         _______ _______ _______ _____ _____    ______ ____
ROOT
ATOM      6  N   UNL     1      -3.543  -0.303  24.621  0.00  0.00    -0.297 NA
ATOM      9  C   UNL     1      -1.480  -0.988  23.742  0.00  0.00    +0.070 C 
ATOM     10  C   UNL     1      -1.760  -1.747  25.051  0.00  0.00    +0.028 C 
ATOM     11  C   UNL     1      -2.468   0.186  23.755  0.00  0.00    +0.096 C 
ATOM     12  C   UNL     1      -2.861  -0.952  25.741  0.00  0.00    +0.085 C 
ENDROOT
BRANCH   9  13
ATOM      7  N   UNL     1       0.997  -1.377  23.875  0.00  0.00    -0.342 N 
ATOM      8  N   UNL     1       0.370   0.608  23.096  0.00  0.00    -0.232 NA
ATOM     13  C   UNL     1      -0.046  -0.550  23.558  0.00  0.00    +0.113 A 
ATOM     16  C   UNL     1       2.161  -0.708  23.599  0.00  0.00    +0.067 A 
ATOM     17  C   UNL     1       1.743   0.528  23.115  0.00  0.00    +0.089 A 
ATOM     18  C   UNL     1       3.503  -1.066  23.729  0.00  0.00    +0.040 A 
ATOM     19  C   UNL     1       2.708   1.475  22.733  0.00  0.00    +0.030 A 
ATOM     22  C   UNL     1       4.449  -0.111  23.343  0.00  0.00    +0.057 A 
ATOM     23  C   UNL     1       4.061   1.137  22.853  0.00  0.00    +0.014 A 
ATOM     28  H   UNL     1       0.925  -2.315  24.246  0.00  0.00    +0.167 HD
BRANCH  22  26
ATOM      2  F   UNL     1       6.124  -1.639  24.062  0.00  0.00    -0.166 F 
ATOM      3  F   UNL     1       6.542  -0.507  22.253  0.00  0.00    -0.166 F 
ATOM      4  F   UNL     1       6.611   0.476  24.184  0.00  0.00    -0.166 F 
ATOM     26  C   UNL     1       5.903  -0.436  23.458  0.00  0.00    +0.417 C 
ENDBRANCH  22  26
ENDBRANCH   9  13
BRANCH   6  14
ATOM     14  C   UNL     1      -4.432   0.764  25.057  0.00  0.00    +0.119 C 
BRANCH  14  15
ATOM      1  F   UNL     1      -0.493   3.469  26.053  0.00  0.00    -0.202 F 
ATOM      5  F   UNL     1      -1.794   5.739  25.259  0.00  0.00    -0.202 F 
ATOM     15  C   UNL     1      -3.727   2.093  25.111  0.00  0.00    -0.030 A 
ATOM     20  C   UNL     1      -2.411   2.167  25.566  0.00  0.00    +0.046 A 
ATOM     21  C   UNL     1      -4.390   3.252  24.705  0.00  0.00    +0.008 A 
ATOM     24  C   UNL     1      -1.757   3.399  25.616  0.00  0.00    +0.159 A 
ATOM     25  C   UNL     1      -3.737   4.483  24.754  0.00  0.00    +0.041 A 
ATOM     27  C   UNL     1      -2.421   4.556  25.210  0.00  0.00    +0.158 A 
ENDBRANCH  14  15
ENDBRANCH   6  14
TORSDOF 4
ENDMDL
MODEL 3
REMARK VINA RESULT:      -2.0     13.621     15.861
REMARK  Name = 45784263
REMARK  4 active torsions:
REMARK  status: ('A' for Active; 'I' for Inactive)
REMARK    1  A    between atoms: N_6  and  C_14
REMARK    2  A    between atoms: C_9  and  C_13
REMARK    3  A    between atoms: C_14  and  C_15
REMARK    4  A    between atoms: C_22  and  C_26
REMARK                            x       y       z     vdW  Elec       q    Type
REMARK                         _______ _______ _______ _____ _____    ______ ____
ROOT
ATOM      6  N   UNL     1      -3.733   2.248  24.813  0.00  0.00    -0.297 NA
ATOM      9  C   UNL     1      -1.478   2.587  24.264  0.00  0.00    +0.070 C 
ATOM     10  C   UNL     1      -2.370   3.106  23.122  0.00  0.00    +0.028 C 
ATOM     11  C   UNL     1      -2.406   1.706  25.111  0.00  0.00    +0.096 C 
ATOM     12  C   UNL     1      -3.733   2.472  23.367  0.00  0.00    +0.085 C 
ENDROOT
BRANCH   9  13
ATOM      7  N   UNL     1       0.988   2.134  24.383  0.00  0.00    -0.342 N 
ATOM      8  N   UNL     1      -0.142   0.947  22.881  0.00  0.00    -0.232 NA
ATOM     13  C   UNL     1      -0.228   1.868  23.815  0.00  0.00    +0.113 A 
ATOM     16  C   UNL     1       1.918   1.332  23.774  0.00  0.00    +0.067 A 
ATOM     17  C   UNL     1       1.188   0.601  22.841  0.00  0.00    +0.089 A 
ATOM     18  C   UNL     1       3.294   1.188  23.954  0.00  0.00    +0.040 A 
ATOM     19  C   UNL     1       1.855  -0.333  22.031  0.00  0.00    +0.030 A 
ATOM     22  C   UNL     1       3.941   0.253  23.139  0.00  0.00    +0.057 A 
ATOM     23  C   UNL     1       3.236  -0.496  22.194  0.00  0.00    +0.014 A 
ATOM     28  H   UNL     1       1.171   2.802  25.119  0.00  0.00    +0.167 HD
BRANCH  22  26
ATOM      2  F   UNL     1       6.051   1.168  23.744  0.00  0.00    -0.166 F 
ATOM      3  F   UNL     1       5.745  -0.945  24.157  0.00  0.00    -0.166 F 
ATOM      4  F   UNL     1       6.039  -0.274  22.117  0.00  0.00    -0.166 F 
ATOM     26  C   UNL     1       5.414   0.052  23.285  0.00  0.00    +0.417 C 
ENDBRANCH  22  26
ENDBRANCH   9  13
BRANCH   6  14
ATOM     14  C   UNL     1      -4.804   1.358  25.236  0.00  0.00    +0.119 C 
BRANCH  14  15
ATOM      1  F   UNL     1      -4.668  -2.820  22.715  0.00  0.00    -0.202 F 
ATOM      5  F   UNL     1      -3.336  -4.062  24.754  0.00  0.00    -0.202 F 
ATOM     15  C   UNL     1      -4.412  -0.090  25.107  0.00  0.00    -0.030 A 
ATOM     20  C   UNL     1      -4.728  -0.799  23.948  0.00  0.00    +0.046 A 
ATOM     21  C   UNL     1      -3.731  -0.724  26.147  0.00  0.00    +0.008 A 
ATOM     24  C   UNL     1      -4.365  -2.140  23.829  0.00  0.00    +0.159 A 
ATOM     25  C   UNL     1      -3.367  -2.066  26.028  0.00  0.00    +0.041 A 
ATOM     27  C   UNL     1      -3.684  -2.773  24.868  0.00  0.00    +0.158 A 
ENDBRANCH  14  15
ENDBRANCH   6  14
TORSDOF 4
ENDMDL
MODEL 4
REMARK VINA RESULT:      -1.8      3.609      4.558
REMARK  Name = 45784263
REMARK  4 active torsions:
REMARK  status: ('A' for Active; 'I' for Inactive)
REMARK    1  A    between atoms: N_6  and  C_14
REMARK    2  A    between atoms: C_9  and  C_13
REMARK    3  A    between atoms: C_14  and  C_15
REMARK    4  A    between atoms: C_22  and  C_26
REMARK                            x       y       z     vdW  Elec       q    Type
REMARK                         _______ _______ _______ _____ _____    ______ ____
ROOT
ATOM      6  N   UNL     1      -6.069 -10.707  15.021  0.00  0.00    -0.297 NA
ATOM      9  C   UNL     1      -3.765 -10.781  14.589  0.00  0.00    +0.070 C 
ATOM     10  C   UNL     1      -4.010 -10.145  15.968  0.00  0.00    +0.028 C 
ATOM     11  C   UNL     1      -5.134 -10.743  13.895  0.00  0.00    +0.096 C 
ATOM     12  C   UNL     1      -5.484  -9.758  15.969  0.00  0.00    +0.085 C 
ENDROOT
BRANCH   9  13
ATOM      7  N   UNL     1      -1.723  -9.340  14.362  0.00  0.00    -0.342 N 
ATOM      8  N   UNL     1      -2.496 -10.224  12.475  0.00  0.00    -0.232 NA
ATOM     13  C   UNL     1      -2.673 -10.129  13.774  0.00  0.00    +0.113 A 
ATOM     16  C   UNL     1      -0.878  -8.899  13.377  0.00  0.00    +0.067 A 
ATOM     17  C   UNL     1      -1.382  -9.464  12.209  0.00  0.00    +0.089 A 
ATOM     18  C   UNL     1       0.250  -8.077  13.406  0.00  0.00    +0.040 A 
ATOM     19  C   UNL     1      -0.735  -9.205  10.989  0.00  0.00    +0.030 A 
ATOM     22  C   UNL     1       0.881  -7.831  12.183  0.00  0.00    +0.057 A 
ATOM     23  C   UNL     1       0.399  -8.384  10.994  0.00  0.00    +0.014 A 
ATOM     28  H   UNL     1      -1.653  -9.120  15.347  0.00  0.00    +0.167 HD
BRANCH  22  26
ATOM      2  F   UNL     1       2.854  -7.165  11.035  0.00  0.00    -0.166 F 
ATOM      3  F   UNL     1       1.807  -5.625  12.157  0.00  0.00    -0.166 F 
ATOM      4  F   UNL     1       2.933  -7.152  13.207  0.00  0.00    -0.166 F 
ATOM     26  C   UNL     1       2.094  -6.960  12.149  0.00  0.00    +0.417 C 
ENDBRANCH  22  26
ENDBRANCH   9  13
BRANCH   6  14
ATOM     14  C   UNL     1      -7.413 -10.325  14.614  0.00  0.00    +0.119 C 
BRANCH  14  15
ATOM      1  F   UNL     1     -10.354  -7.152  16.874  0.00  0.00    -0.202 F 
ATOM      5  F   UNL     1     -10.593  -8.829  19.020  0.00  0.00    -0.202 F 
ATOM     15  C   UNL     1      -8.262  -9.926  15.792  0.00  0.00    -0.030 A 
ATOM     20  C   UNL     1      -8.928  -8.700  15.788  0.00  0.00    +0.046 A 
ATOM     21  C   UNL     1      -8.385 -10.781  16.887  0.00  0.00    +0.008 A 
ATOM     24  C   UNL     1      -9.715  -8.329  16.878  0.00  0.00    +0.159 A 
ATOM     25  C   UNL     1      -9.173 -10.411  17.977  0.00  0.00    +0.041 A 
ATOM     27  C   UNL     1      -9.837  -9.185  17.972  0.00  0.00    +0.158 A 
ENDBRANCH  14  15
ENDBRANCH   6  14
TORSDOF 4
ENDMDL
MODEL 5
REMARK VINA RESULT:      -0.9      3.660      5.184
REMARK  Name = 45784263
REMARK  4 active torsions:
REMARK  status: ('A' for Active; 'I' for Inactive)
REMARK    1  A    between atoms: N_6  and  C_14
REMARK    2  A    between atoms: C_9  and  C_13
REMARK    3  A    between atoms: C_14  and  C_15
REMARK    4  A    between atoms: C_22  and  C_26
REMARK                            x       y       z     vdW  Elec       q    Type
REMARK                         _______ _______ _______ _____ _____    ______ ____
ROOT
ATOM      6  N   UNL     1      -6.200 -10.637  15.070  0.00  0.00    -0.297 NA
ATOM      9  C   UNL     1      -3.907 -10.781  14.596  0.00  0.00    +0.070 C 
ATOM     10  C   UNL     1      -4.106 -10.185  16.001  0.00  0.00    +0.028 C 
ATOM     11  C   UNL     1      -5.284 -10.668  13.928  0.00  0.00    +0.096 C 
ATOM     12  C   UNL     1      -5.564  -9.744  16.040  0.00  0.00    +0.085 C 
ENDROOT
BRANCH   9  13
ATOM      7  N   UNL     1      -1.857  -9.350  14.376  0.00  0.00    -0.342 N 
ATOM      8  N   UNL     1      -2.614 -10.253  12.491  0.00  0.00    -0.232 NA
ATOM     13  C   UNL     1      -2.804 -10.142  13.786  0.00  0.00    +0.113 A 
ATOM     16  C   UNL     1      -1.000  -8.922  13.395  0.00  0.00    +0.067 A 
ATOM     17  C   UNL     1      -1.494  -9.499  12.228  0.00  0.00    +0.089 A 
ATOM     18  C   UNL     1       0.130  -8.105  13.427  0.00  0.00    +0.040 A 
ATOM     19  C   UNL     1      -0.834  -9.256  11.012  0.00  0.00    +0.030 A 
ATOM     22  C   UNL     1       0.775  -7.874  12.207  0.00  0.00    +0.057 A 
ATOM     23  C   UNL     1       0.304  -8.439  11.020  0.00  0.00    +0.014 A 
ATOM     28  H   UNL     1      -1.797  -9.119  15.358  0.00  0.00    +0.167 HD
BRANCH  22  26
ATOM      2  F   UNL     1       1.688  -5.684  12.052  0.00  0.00    -0.166 F 
ATOM      3  F   UNL     1       2.758  -7.105  13.302  0.00  0.00    -0.166 F 
ATOM      4  F   UNL     1       2.836  -7.290  11.143  0.00  0.00    -0.166 F 
ATOM     26  C   UNL     1       1.992  -7.008  12.177  0.00  0.00    +0.417 C 
ENDBRANCH  22  26
ENDBRANCH   9  13
BRANCH   6  14
ATOM     14  C   UNL     1      -7.535 -10.191  14.700  0.00  0.00    +0.119 C 
BRANCH  14  15
ATOM      1  F   UNL     1      -5.804  -8.252  10.568  0.00  0.00    -0.202 F 
ATOM      5  F   UNL     1      -7.952  -9.200   9.168  0.00  0.00    -0.202 F 
ATOM     15  C   UNL     1      -7.646  -9.926  13.222  0.00  0.00    -0.030 A 
ATOM     20  C   UNL     1      -6.654  -9.197  12.566  0.00  0.00    +0.046 A 
ATOM     21  C   UNL     1      -8.742 -10.411  12.506  0.00  0.00    +0.008 A 
ATOM     24  C   UNL     1      -6.757  -8.952  11.197  0.00  0.00    +0.159 A 
ATOM     25  C   UNL     1      -8.845 -10.166  11.137  0.00  0.00    +0.041 A 
ATOM     27  C   UNL     1      -7.853  -9.436  10.483  0.00  0.00    +0.158 A 
ENDBRANCH  14  15
ENDBRANCH   6  14
TORSDOF 4
ENDMDL
MODEL 6
REMARK VINA RESULT:      -0.6     14.780     16.275
REMARK  Name = 45784263
REMARK  4 active torsions:
REMARK  status: ('A' for Active; 'I' for Inactive)
REMARK    1  A    between atoms: N_6  and  C_14
REMARK    2  A    between atoms: C_9  and  C_13
REMARK    3  A    between atoms: C_14  and  C_15
REMARK    4  A    between atoms: C_22  and  C_26
REMARK                            x       y       z     vdW  Elec       q    Type
REMARK                         _______ _______ _______ _____ _____    ______ ____
ROOT
ATOM      6  N   UNL     1      -4.782   0.326  24.771  0.00  0.00    -0.297 NA
ATOM      9  C   UNL     1      -2.922  -0.999  24.236  0.00  0.00    +0.070 C 
ATOM     10  C   UNL     1      -3.392  -1.323  25.665  0.00  0.00    +0.028 C 
ATOM     11  C   UNL     1      -3.610   0.330  23.894  0.00  0.00    +0.096 C 
ATOM     12  C   UNL     1      -4.287  -0.156  26.061  0.00  0.00    +0.085 C 
ENDROOT
BRANCH   9  13
ATOM      7  N   UNL     1      -0.815   0.109  23.442  0.00  0.00    -0.342 N 
ATOM      8  N   UNL     1      -0.555  -1.860  24.440  0.00  0.00    -0.232 NA
ATOM     13  C   UNL     1      -1.423  -0.951  24.056  0.00  0.00    +0.113 A 
ATOM     16  C   UNL     1       0.535  -0.133  23.430  0.00  0.00    +0.067 A 
ATOM     17  C   UNL     1       0.671  -1.367  24.059  0.00  0.00    +0.089 A 
ATOM     18  C   UNL     1       1.616   0.600  22.938  0.00  0.00    +0.040 A 
ATOM     19  C   UNL     1       1.954  -1.919  24.213  0.00  0.00    +0.030 A 
ATOM     22  C   UNL     1       2.885   0.036  23.101  0.00  0.00    +0.057 A 
ATOM     23  C   UNL     1       3.054  -1.201  23.727  0.00  0.00    +0.014 A 
ATOM     28  H   UNL     1      -1.274   0.927  23.064  0.00  0.00    +0.167 HD
BRANCH  22  26
ATOM      2  F   UNL     1       4.302   0.564  21.266  0.00  0.00    -0.166 F 
ATOM      3  F   UNL     1       3.991   2.127  22.745  0.00  0.00    -0.166 F 
ATOM      4  F   UNL     1       5.243   0.422  23.221  0.00  0.00    -0.166 F 
ATOM     26  C   UNL     1       4.082   0.773  22.596  0.00  0.00    +0.417 C 
ENDBRANCH  22  26
ENDBRANCH   9  13
BRANCH   6  14
ATOM     14  C   UNL     1      -5.404   1.638  24.872  0.00  0.00    +0.119 C 
BRANCH  14  15
ATOM      1  F   UNL     1      -1.019   3.581  23.965  0.00  0.00    -0.202 F 
ATOM      5  F   UNL     1      -1.584   5.722  25.567  0.00  0.00    -0.202 F 
ATOM     15  C   UNL     1      -4.384   2.729  25.058  0.00  0.00    -0.030 A 
ATOM     20  C   UNL     1      -3.150   2.648  24.413  0.00  0.00    +0.046 A 
ATOM     21  C   UNL     1      -4.672   3.822  25.875  0.00  0.00    +0.008 A 
ATOM     24  C   UNL     1      -2.204   3.659  24.584  0.00  0.00    +0.159 A 
ATOM     25  C   UNL     1      -3.727   4.834  26.047  0.00  0.00    +0.041 A 
ATOM     27  C   UNL     1      -2.493   4.751  25.402  0.00  0.00    +0.158 A 
ENDBRANCH  14  15
ENDBRANCH   6  14
TORSDOF 4
ENDMDL
