MODEL 1
REMARK VINA RESULT:       0.2      0.000      0.000
REMARK  Name = 11866308
REMARK  10 active torsions:
REMARK  status: ('A' for Active; 'I' for Inactive)
REMARK    1  A    between atoms: O_1  and  C_10
REMARK    2  A    between atoms: O_2  and  C_11
REMARK    3  A    between atoms: N_6  and  C_12
REMARK    4  A    between atoms: N_7  and  C_17
REMARK    5  A    between atoms: N_8  and  C_22
REMARK    6  A    between atoms: C_14  and  C_16
REMARK    7  A    between atoms: C_17  and  C_19
REMARK    8  A    between atoms: C_17  and  C_20
REMARK    9  A    between atoms: C_19  and  C_21
REMARK   10  A    between atoms: C_32  and  C_33
REMARK                            x       y       z     vdW  Elec       q    Type
REMARK                         _______ _______ _______ _____ _____    ______ ____
ROOT
ATOM     10  C   UNL     1      -2.200  -2.218  24.797  0.00  0.00    +0.167 C 
ATOM     11  C   UNL     1      -3.580  -1.807  25.323  0.00  0.00    +0.149 C 
ATOM     12  C   UNL     1      -1.930  -1.630  23.399  0.00  0.00    +0.129 C 
ATOM     13  C   UNL     1      -3.760  -0.279  25.345  0.00  0.00    +0.074 C 
ATOM     14  C   UNL     1      -3.147   0.410  24.159  0.00  0.00    +0.015 C 
ATOM     15  C   UNL     1      -2.332  -0.186  23.275  0.00  0.00    +0.006 C 
ENDROOT
BRANCH  12   6
ATOM      4  O   UNL     1       0.242   0.021  24.272  0.00  0.00    -0.252 OA
ATOM      6  N   UNL     1      -0.542  -1.761  23.026  0.00  0.00    -0.290 N 
ATOM      8  N   UNL     1       1.702  -1.277  22.971  0.00  0.00    -0.269 N 
ATOM     18  C   UNL     1       0.462  -0.909  23.501  0.00  0.00    +0.304 C 
ATOM     34  H   UNL     1      -0.271  -2.559  22.459  0.00  0.00    +0.151 HD
ATOM     38  H   UNL     1       1.711  -2.075  22.342  0.00  0.00    +0.156 HD
BRANCH   8  22
ATOM     22  C   UNL     1       2.958  -0.671  23.203  0.00  0.00    +0.035 A 
ATOM     27  C   UNL     1       3.198   0.631  22.763  0.00  0.00    +0.023 A 
ATOM     28  C   UNL     1       3.959  -1.376  23.873  0.00  0.00    +0.023 A 
ATOM     30  C   UNL     1       4.438   1.227  22.993  0.00  0.00    +0.005 A 
ATOM     31  C   UNL     1       5.198  -0.779  24.102  0.00  0.00    +0.005 A 
ATOM     32  C   UNL     1       5.437   0.522  23.662  0.00  0.00    -0.050 A 
ATOM     33  C   UNL     1       6.763   1.160  23.907  0.00  0.00    +0.044 C 
ENDBRANCH   8  22
ENDBRANCH  12   6
BRANCH  14  16
ATOM      3  O   UNL     1      -3.203   2.371  22.868  0.00  0.00    -0.271 OA
ATOM      7  N   UNL     1      -4.089   2.413  25.024  0.00  0.00    -0.300 N 
ATOM     16  C   UNL     1      -3.473   1.821  23.935  0.00  0.00    +0.241 C 
ATOM     37  H   UNL     1      -4.341   1.837  25.822  0.00  0.00    +0.150 HD
BRANCH   7  17
ATOM     17  C   UNL     1      -4.502   3.798  25.041  0.00  0.00    +0.163 C 
BRANCH  17  20
ATOM      5  O   UNL     1      -6.540   4.858  25.832  0.00  0.00    -0.274 OA
ATOM      9  N   UNL     1      -6.148   2.667  26.402  0.00  0.00    -0.328 N 
ATOM     20  C   UNL     1      -5.820   3.863  25.797  0.00  0.00    +0.231 C 
ATOM     39  H   UNL     1      -7.009   2.569  26.929  0.00  0.00    +0.145 HD
ATOM     40  H   UNL     1      -5.553   1.846  26.346  0.00  0.00    +0.145 HD
ENDBRANCH  17  20
BRANCH  17  19
ATOM     19  C   UNL     1      -3.460   4.706  25.705  0.00  0.00    +0.067 C 
BRANCH  19  21
ATOM     21  C   UNL     1      -2.059   4.150  25.617  0.00  0.00    -0.045 A 
ATOM     23  C   UNL     1      -1.176   4.639  24.654  0.00  0.00    +0.004 A 
ATOM     24  C   UNL     1      -1.648   3.148  26.496  0.00  0.00    +0.004 A 
ATOM     25  C   UNL     1       0.118   4.126  24.571  0.00  0.00    +0.000 A 
ATOM     26  C   UNL     1      -0.354   2.636  26.413  0.00  0.00    +0.000 A 
ATOM     29  C   UNL     1       0.529   3.125  25.451  0.00  0.00    +0.000 A 
ENDBRANCH  19  21
ENDBRANCH  17  19
ENDBRANCH   7  17
ENDBRANCH  14  16
BRANCH  10   1
ATOM      1  O   UNL     1      -1.204  -1.758  25.712  0.00  0.00    -0.387 OA
ATOM     35  H   UNL     1      -0.495  -2.424  25.732  0.00  0.00    +0.210 HD
ENDBRANCH  10   1
BRANCH  11   2
ATOM      2  O   UNL     1      -4.606  -2.408  24.536  0.00  0.00    -0.389 OA
ATOM     36  H   UNL     1      -4.545  -2.037  23.639  0.00  0.00    +0.210 HD
ENDBRANCH  11   2
TORSDOF 9
ENDMDL
