MODEL 1
REMARK VINA RESULT:      -2.3      0.000      0.000
REMARK  Name = 56775328
REMARK  7 active torsions:
REMARK  status: ('A' for Active; 'I' for Inactive)
REMARK    1  A    between atoms: S_1  and  N_10
REMARK    2  A    between atoms: S_1  and  C_19
REMARK    3  A    between atoms: O_9  and  C_29
REMARK    4  A    between atoms: O_9  and  C_32
REMARK    5  A    between atoms: N_11  and  C_18
REMARK    6  A    between atoms: C_18  and  C_20
REMARK    7  A    between atoms: C_25  and  C_31
REMARK                            x       y       z     vdW  Elec       q    Type
REMARK                         _______ _______ _______ _____ _____    ______ ____
ROOT
ATOM      5  O   UNL     1      -3.101   5.303  24.704  0.00  0.00    -0.364 OA
ATOM      8  O   UNL     1       0.417   4.842  24.358  0.00  0.00    -0.273 OA
ATOM     10  N   UNL     1      -4.646   2.814  25.147  0.00  0.00    -0.172 NA
ATOM     11  N   UNL     1      -1.095   3.608  25.624  0.00  0.00    -0.288 N 
ATOM     12  C   UNL     1      -2.482   3.386  26.014  0.00  0.00    +0.122 C 
ATOM     13  C   UNL     1      -3.341   4.637  25.941  0.00  0.00    +0.156 C 
ATOM     14  C   UNL     1      -3.212   2.409  25.086  0.00  0.00    +0.134 C 
ATOM     15  C   UNL     1      -4.757   4.076  25.936  0.00  0.00    +0.143 C 
ATOM     16  C   UNL     1      -0.710   4.685  24.831  0.00  0.00    +0.242 C 
ATOM     17  C   UNL     1      -1.768   5.758  24.634  0.00  0.00    +0.256 C 
ENDROOT
BRANCH  10   1
ATOM      1  S   UNL     1      -5.810   1.607  25.416  0.00  0.00    +0.061 S 
ATOM      6  O   UNL     1      -6.806   1.647  24.362  0.00  0.00    -0.153 OA
ATOM      7  O   UNL     1      -6.214   1.629  26.810  0.00  0.00    -0.153 OA
BRANCH   1  19
ATOM     19  C   UNL     1      -4.832   0.155  25.167  0.00  0.00    +0.106 A 
ATOM     21  C   UNL     1      -4.017  -0.322  26.194  0.00  0.00    +0.032 A 
ATOM     22  C   UNL     1      -4.876  -0.513  23.944  0.00  0.00    +0.032 A 
ATOM     26  C   UNL     1      -3.246  -1.467  25.997  0.00  0.00    +0.047 A 
ATOM     27  C   UNL     1      -4.104  -1.658  23.747  0.00  0.00    +0.047 A 
ATOM     29  C   UNL     1      -3.288  -2.135  24.773  0.00  0.00    +0.120 A 
BRANCH  29   9
ATOM      9  O   UNL     1      -2.535  -3.252  24.582  0.00  0.00    -0.495 OA
ATOM     32  C   UNL     1      -1.119  -3.084  24.549  0.00  0.00    +0.277 C 
ENDBRANCH  29   9
ENDBRANCH   1  19
ENDBRANCH  10   1
BRANCH  11  18
ATOM     18  C   UNL     1      -0.141   2.558  25.954  0.00  0.00    +0.143 C 
BRANCH  18  20
ATOM     20  C   UNL     1       0.060   1.603  24.812  0.00  0.00    -0.030 A 
ATOM     23  C   UNL     1       1.328   1.440  24.254  0.00  0.00    +0.017 A 
ATOM     24  C   UNL     1      -1.022   0.878  24.311  0.00  0.00    +0.005 A 
ATOM     25  C   UNL     1       1.514   0.553  23.193  0.00  0.00    +0.055 A 
ATOM     28  C   UNL     1      -0.835  -0.009  23.250  0.00  0.00    +0.001 A 
ATOM     30  C   UNL     1       0.432  -0.172  22.693  0.00  0.00    +0.012 A 
BRANCH  25  31
ATOM      2  F   UNL     1       2.826   0.181  21.246  0.00  0.00    -0.166 F 
ATOM      3  F   UNL     1       3.691   1.454  22.781  0.00  0.00    -0.166 F 
ATOM      4  F   UNL     1       3.557  -0.687  23.100  0.00  0.00    -0.166 F 
ATOM     31  C   UNL     1       2.869   0.379  22.596  0.00  0.00    +0.417 C 
ENDBRANCH  25  31
ENDBRANCH  18  20
ENDBRANCH  11  18
TORSDOF 6
ENDMDL
MODEL 2
REMARK VINA RESULT:      -1.8      1.604      4.889
REMARK  Name = 56775328
REMARK  7 active torsions:
REMARK  status: ('A' for Active; 'I' for Inactive)
REMARK    1  A    between atoms: S_1  and  N_10
REMARK    2  A    between atoms: S_1  and  C_19
REMARK    3  A    between atoms: O_9  and  C_29
REMARK    4  A    between atoms: O_9  and  C_32
REMARK    5  A    between atoms: N_11  and  C_18
REMARK    6  A    between atoms: C_18  and  C_20
REMARK    7  A    between atoms: C_25  and  C_31
REMARK                            x       y       z     vdW  Elec       q    Type
REMARK                         _______ _______ _______ _____ _____    ______ ____
ROOT
ATOM      5  O   UNL     1      -3.869  -2.380  24.688  0.00  0.00    -0.364 OA
ATOM      8  O   UNL     1      -0.384  -2.827  25.290  0.00  0.00    -0.273 OA
ATOM     10  N   UNL     1      -4.904   0.325  25.314  0.00  0.00    -0.172 NA
ATOM     11  N   UNL     1      -1.512  -0.901  24.635  0.00  0.00    -0.288 N 
ATOM     12  C   UNL     1      -2.789  -0.261  24.341  0.00  0.00    +0.122 C 
ATOM     13  C   UNL     1      -3.853  -1.228  23.850  0.00  0.00    +0.156 C 
ATOM     14  C   UNL     1      -3.437   0.368  25.579  0.00  0.00    +0.134 C 
ATOM     15  C   UNL     1      -5.143  -0.445  24.058  0.00  0.00    +0.143 C 
ATOM     16  C   UNL     1      -1.408  -2.264  24.901  0.00  0.00    +0.242 C 
ATOM     17  C   UNL     1      -2.650  -3.082  24.592  0.00  0.00    +0.256 C 
ENDROOT
BRANCH  10   1
ATOM      1  S   UNL     1      -5.805   1.743  25.556  0.00  0.00    +0.061 S 
ATOM      6  O   UNL     1      -6.284   1.788  26.926  0.00  0.00    -0.153 OA
ATOM      7  O   UNL     1      -6.727   1.926  24.450  0.00  0.00    -0.153 OA
BRANCH   1  19
ATOM     19  C   UNL     1      -4.535   2.964  25.398  0.00  0.00    +0.106 A 
ATOM     21  C   UNL     1      -4.027   3.283  24.139  0.00  0.00    +0.032 A 
ATOM     22  C   UNL     1      -4.042   3.607  26.534  0.00  0.00    +0.032 A 
ATOM     26  C   UNL     1      -3.025   4.245  24.015  0.00  0.00    +0.047 A 
ATOM     27  C   UNL     1      -3.039   4.569  26.410  0.00  0.00    +0.047 A 
ATOM     29  C   UNL     1      -2.531   4.888  25.151  0.00  0.00    +0.120 A 
BRANCH  29   9
ATOM      9  O   UNL     1      -1.553   5.827  25.029  0.00  0.00    -0.495 OA
ATOM     32  C   UNL     1      -0.277   5.381  24.572  0.00  0.00    +0.277 C 
ENDBRANCH  29   9
ENDBRANCH   1  19
ENDBRANCH  10   1
BRANCH  11  18
ATOM     18  C   UNL     1      -0.361  -0.027  24.812  0.00  0.00    +0.143 C 
BRANCH  18  20
ATOM     20  C   UNL     1       0.580  -0.095  23.643  0.00  0.00    -0.030 A 
ATOM     23  C   UNL     1       1.891   0.363  23.776  0.00  0.00    +0.017 A 
ATOM     24  C   UNL     1       0.143  -0.616  22.425  0.00  0.00    +0.005 A 
ATOM     25  C   UNL     1       2.765   0.301  22.691  0.00  0.00    +0.055 A 
ATOM     28  C   UNL     1       1.018  -0.679  21.340  0.00  0.00    +0.001 A 
ATOM     30  C   UNL     1       2.328  -0.222  21.473  0.00  0.00    +0.012 A 
BRANCH  25  31
ATOM      2  F   UNL     1       4.273   2.139  22.643  0.00  0.00    -0.166 F 
ATOM      3  F   UNL     1       4.709   0.551  24.062  0.00  0.00    -0.166 F 
ATOM      4  F   UNL     1       5.036   0.227  21.943  0.00  0.00    -0.166 F 
ATOM     31  C   UNL     1       4.166   0.791  22.832  0.00  0.00    +0.417 C 
ENDBRANCH  25  31
ENDBRANCH  18  20
ENDBRANCH  11  18
TORSDOF 6
ENDMDL
MODEL 3
REMARK VINA RESULT:       0.5      3.622      6.541
REMARK  Name = 56775328
REMARK  7 active torsions:
REMARK  status: ('A' for Active; 'I' for Inactive)
REMARK    1  A    between atoms: S_1  and  N_10
REMARK    2  A    between atoms: S_1  and  C_19
REMARK    3  A    between atoms: O_9  and  C_29
REMARK    4  A    between atoms: O_9  and  C_32
REMARK    5  A    between atoms: N_11  and  C_18
REMARK    6  A    between atoms: C_18  and  C_20
REMARK    7  A    between atoms: C_25  and  C_31
REMARK                            x       y       z     vdW  Elec       q    Type
REMARK                         _______ _______ _______ _____ _____    ______ ____
ROOT
ATOM      5  O   UNL     1       0.102   3.580  25.417  0.00  0.00    -0.364 OA
ATOM      8  O   UNL     1      -3.231   4.752  25.891  0.00  0.00    -0.273 OA
ATOM     10  N   UNL     1       0.324   1.012  23.957  0.00  0.00    -0.172 NA
ATOM     11  N   UNL     1      -2.364   3.505  24.129  0.00  0.00    -0.288 N 
ATOM     12  C   UNL     1      -1.215   2.811  23.560  0.00  0.00    +0.122 C 
ATOM     13  C   UNL     1       0.121   3.381  24.007  0.00  0.00    +0.156 C 
ATOM     14  C   UNL     1      -1.129   1.345  23.997  0.00  0.00    +0.134 C 
ATOM     15  C   UNL     1       1.096   2.258  23.677  0.00  0.00    +0.143 C 
ATOM     16  C   UNL     1      -2.271   4.264  25.293  0.00  0.00    +0.242 C 
ATOM     17  C   UNL     1      -0.857   4.551  25.770  0.00  0.00    +0.256 C 
ENDROOT
BRANCH  10   1
ATOM      1  S   UNL     1       0.799  -0.410  23.160  0.00  0.00    +0.061 S 
ATOM      6  O   UNL     1       0.430  -0.330  21.759  0.00  0.00    -0.153 OA
ATOM      7  O   UNL     1       0.415  -1.562  23.956  0.00  0.00    -0.153 OA
BRANCH   1  19
ATOM     19  C   UNL     1       2.559  -0.260  23.255  0.00  0.00    +0.106 A 
ATOM     21  C   UNL     1       3.318  -1.293  23.804  0.00  0.00    +0.032 A 
ATOM     22  C   UNL     1       3.186   0.892  22.782  0.00  0.00    +0.032 A 
ATOM     26  C   UNL     1       4.706  -1.174  23.879  0.00  0.00    +0.047 A 
ATOM     27  C   UNL     1       4.574   1.011  22.857  0.00  0.00    +0.047 A 
ATOM     29  C   UNL     1       5.334  -0.022  23.406  0.00  0.00    +0.120 A 
BRANCH  29   9
ATOM      9  O   UNL     1       6.688   0.094  23.480  0.00  0.00    -0.495 OA
ATOM     32  C   UNL     1       7.462  -0.827  22.712  0.00  0.00    +0.277 C 
ENDBRANCH  29   9
ENDBRANCH   1  19
ENDBRANCH  10   1
BRANCH  11  18
ATOM     18  C   UNL     1      -3.662   3.235  23.528  0.00  0.00    +0.143 C 
BRANCH  18  20
ATOM     20  C   UNL     1      -4.347   2.063  24.172  0.00  0.00    -0.030 A 
ATOM     23  C   UNL     1      -3.823   0.780  24.020  0.00  0.00    +0.017 A 
ATOM     24  C   UNL     1      -5.507   2.260  24.921  0.00  0.00    +0.005 A 
ATOM     25  C   UNL     1      -4.459  -0.309  24.617  0.00  0.00    +0.055 A 
ATOM     28  C   UNL     1      -6.143   1.171  25.519  0.00  0.00    +0.001 A 
ATOM     30  C   UNL     1      -5.619  -0.112  25.368  0.00  0.00    +0.012 A 
BRANCH  25  31
ATOM      2  F   UNL     1      -2.646  -1.677  23.914  0.00  0.00    -0.166 F 
ATOM      3  F   UNL     1      -3.789  -2.370  25.628  0.00  0.00    -0.166 F 
ATOM      4  F   UNL     1      -4.646  -2.484  23.639  0.00  0.00    -0.166 F 
ATOM     31  C   UNL     1      -3.900  -1.681  24.454  0.00  0.00    +0.417 C 
ENDBRANCH  25  31
ENDBRANCH  18  20
ENDBRANCH  11  18
TORSDOF 6
ENDMDL
MODEL 4
REMARK VINA RESULT:       0.6      3.344      7.061
REMARK  Name = 56775328
REMARK  7 active torsions:
REMARK  status: ('A' for Active; 'I' for Inactive)
REMARK    1  A    between atoms: S_1  and  N_10
REMARK    2  A    between atoms: S_1  and  C_19
REMARK    3  A    between atoms: O_9  and  C_29
REMARK    4  A    between atoms: O_9  and  C_32
REMARK    5  A    between atoms: N_11  and  C_18
REMARK    6  A    between atoms: C_18  and  C_20
REMARK    7  A    between atoms: C_25  and  C_31
REMARK                            x       y       z     vdW  Elec       q    Type
REMARK                         _______ _______ _______ _____ _____    ______ ____
ROOT
ATOM      5  O   UNL     1      -1.663  -2.365  24.766  0.00  0.00    -0.364 OA
ATOM      8  O   UNL     1      -4.969  -2.842  23.520  0.00  0.00    -0.273 OA
ATOM     10  N   UNL     1      -0.534   0.334  24.301  0.00  0.00    -0.172 NA
ATOM     11  N   UNL     1      -3.990  -0.898  24.343  0.00  0.00    -0.288 N 
ATOM     12  C   UNL     1      -2.794  -0.247  24.863  0.00  0.00    +0.122 C 
ATOM     13  C   UNL     1      -1.841  -1.199  25.566  0.00  0.00    +0.156 C 
ATOM     14  C   UNL     1      -1.923   0.365  23.760  0.00  0.00    +0.134 C 
ATOM     15  C   UNL     1      -0.537  -0.413  25.593  0.00  0.00    +0.143 C 
ATOM     16  C   UNL     1      -4.039  -2.266  24.087  0.00  0.00    +0.242 C 
ATOM     17  C   UNL     1      -2.876  -3.072  24.641  0.00  0.00    +0.256 C 
ENDROOT
BRANCH  10   1
ATOM      1  S   UNL     1       0.394   1.753  24.209  0.00  0.00    +0.061 S 
ATOM      6  O   UNL     1       0.621   2.274  25.544  0.00  0.00    -0.153 OA
ATOM      7  O   UNL     1      -0.137   2.612  23.166  0.00  0.00    -0.153 OA
BRANCH   1  19
ATOM     19  C   UNL     1       1.930   1.097  23.628  0.00  0.00    +0.106 A 
ATOM     21  C   UNL     1       2.128  -0.283  23.587  0.00  0.00    +0.032 A 
ATOM     22  C   UNL     1       2.943   1.960  23.211  0.00  0.00    +0.032 A 
ATOM     26  C   UNL     1       3.340  -0.800  23.129  0.00  0.00    +0.047 A 
ATOM     27  C   UNL     1       4.156   1.443  22.753  0.00  0.00    +0.047 A 
ATOM     29  C   UNL     1       4.354   0.063  22.713  0.00  0.00    +0.120 A 
BRANCH  29   9
ATOM      9  O   UNL     1       5.536  -0.443  22.266  0.00  0.00    -0.495 OA
ATOM     32  C   UNL     1       6.646  -0.388  23.161  0.00  0.00    +0.277 C 
ENDBRANCH  29   9
ENDBRANCH   1  19
ENDBRANCH  10   1
BRANCH  11  18
ATOM     18  C   UNL     1      -5.088  -0.033  23.935  0.00  0.00    +0.143 C 
BRANCH  18  20
ATOM     20  C   UNL     1      -5.084   1.270  24.681  0.00  0.00    -0.030 A 
ATOM     23  C   UNL     1      -3.900   1.995  24.811  0.00  0.00    +0.017 A 
ATOM     24  C   UNL     1      -6.265   1.754  25.245  0.00  0.00    +0.005 A 
ATOM     25  C   UNL     1      -3.895   3.205  25.505  0.00  0.00    +0.055 A 
ATOM     28  C   UNL     1      -6.260   2.965  25.938  0.00  0.00    +0.001 A 
ATOM     30  C   UNL     1      -5.076   3.690  26.067  0.00  0.00    +0.012 A 
BRANCH  25  31
ATOM      2  F   UNL     1      -1.697   3.333  26.402  0.00  0.00    -0.166 F 
ATOM      3  F   UNL     1      -2.014   4.243  24.453  0.00  0.00    -0.166 F 
ATOM      4  F   UNL     1      -2.797   5.201  26.234  0.00  0.00    -0.166 F 
ATOM     31  C   UNL     1      -2.629   3.981  25.644  0.00  0.00    +0.417 C 
ENDBRANCH  25  31
ENDBRANCH  18  20
ENDBRANCH  11  18
TORSDOF 6
ENDMDL
