MODEL 1
REMARK VINA RESULT:       6.0      0.000      0.000
REMARK  Name = 26742464
REMARK  8 active torsions:
REMARK  status: ('A' for Active; 'I' for Inactive)
REMARK    1  A    between atoms: N_5  and  C_16
REMARK    2  A    between atoms: N_8  and  C_25
REMARK    3  A    between atoms: C_10  and  C_17
REMARK    4  A    between atoms: C_11  and  C_16
REMARK    5  A    between atoms: C_19  and  C_22
REMARK    6  A    between atoms: C_20  and  C_23
REMARK    7  A    between atoms: C_32  and  C_33
REMARK    8  A    between atoms: C_33  and  C_34
REMARK                            x       y       z     vdW  Elec       q    Type
REMARK                         _______ _______ _______ _____ _____    ______ ____
ROOT
ATOM      4  N   UNL     1      -5.482   1.409  24.101  0.00  0.00    -0.297 NA
ATOM      9  C   UNL     1      -4.625   2.243  26.415  0.00  0.00    +0.002 C 
ATOM     10  C   UNL     1      -3.947   3.038  25.265  0.00  0.00    +0.055 C 
ATOM     11  C   UNL     1      -5.056   0.253  24.933  0.00  0.00    +0.074 C 
ATOM     12  C   UNL     1      -4.356   0.736  26.221  0.00  0.00    +0.024 C 
ATOM     13  C   UNL     1      -6.146   2.455  26.265  0.00  0.00    +0.019 C 
ATOM     14  C   UNL     1      -4.350   2.354  23.928  0.00  0.00    +0.094 C 
ATOM     15  C   UNL     1      -6.566   2.114  24.825  0.00  0.00    +0.085 C 
ENDROOT
BRANCH  10  17
ATOM      6  N   UNL     1      -1.873   3.893  24.290  0.00  0.00    -0.237 NA
ATOM      7  N   UNL     1       0.235   3.781  25.454  0.00  0.00    -0.229 NA
ATOM     17  C   UNL     1      -2.449   3.294  25.353  0.00  0.00    +0.050 A 
ATOM     18  C   UNL     1      -1.759   2.915  26.486  0.00  0.00    +0.055 A 
ATOM     19  C   UNL     1      -0.406   3.186  26.481  0.00  0.00    +0.110 A 
ATOM     20  C   UNL     1      -0.548   4.104  24.405  0.00  0.00    +0.127 A 
ATOM     23  C   UNL     1       0.126   4.765  23.251  0.00  0.00    +0.088 C 
BRANCH  19  22
ATOM      2  O   UNL     1       1.762   3.063  27.418  0.00  0.00    -0.461 OA
ATOM     22  C   UNL     1       0.433   2.842  27.599  0.00  0.00    +0.153 A 
ATOM     24  C   UNL     1       0.194   2.324  28.850  0.00  0.00    +0.051 A 
ATOM     26  C   UNL     1       1.458   2.220  29.479  0.00  0.00    +0.042 A 
ATOM     27  C   UNL     1       2.379   2.682  28.567  0.00  0.00    +0.196 A 
ENDBRANCH  19  22
ENDBRANCH  10  17
BRANCH  11  16
ATOM     16  C   UNL     1      -4.192  -0.741  24.152  0.00  0.00    +0.124 C 
BRANCH  16   5
ATOM      1  O   UNL     1      -1.416  -1.296  24.583  0.00  0.00    -0.253 OA
ATOM      5  N   UNL     1      -3.083  -0.080  23.537  0.00  0.00    -0.298 N 
ATOM      8  N   UNL     1      -0.878   0.403  23.054  0.00  0.00    -0.269 N 
ATOM     21  C   UNL     1      -1.740  -0.409  23.798  0.00  0.00    +0.304 C 
ATOM     35  H   UNL     1      -3.275   0.670  22.879  0.00  0.00    +0.150 HD
ATOM     36  H   UNL     1      -1.312   1.094  22.448  0.00  0.00    +0.156 HD
BRANCH   8  25
ATOM     25  C   UNL     1       0.536   0.382  23.040  0.00  0.00    +0.035 A 
ATOM     28  C   UNL     1       1.254   1.279  23.832  0.00  0.00    +0.024 A 
ATOM     29  C   UNL     1       1.213  -0.535  22.236  0.00  0.00    +0.024 A 
ATOM     30  C   UNL     1       2.649   1.259  23.819  0.00  0.00    +0.013 A 
ATOM     31  C   UNL     1       2.607  -0.556  22.223  0.00  0.00    +0.013 A 
ATOM     32  C   UNL     1       3.325   0.342  23.015  0.00  0.00    +0.017 A 
BRANCH  32  33
ATOM      3  O   UNL     1       5.418   0.154  21.944  0.00  0.00    -0.292 OA
ATOM     33  C   UNL     1       4.779   0.320  23.001  0.00  0.00    +0.160 C 
ATOM     34  C   UNL     1       5.562   0.502  24.297  0.00  0.00    +0.091 C 
ENDBRANCH  32  33
ENDBRANCH   8  25
ENDBRANCH  16   5
ENDBRANCH  11  16
TORSDOF 6
ENDMDL
MODEL 2
REMARK VINA RESULT:       8.2      2.565      4.268
REMARK  Name = 26742464
REMARK  8 active torsions:
REMARK  status: ('A' for Active; 'I' for Inactive)
REMARK    1  A    between atoms: N_5  and  C_16
REMARK    2  A    between atoms: N_8  and  C_25
REMARK    3  A    between atoms: C_10  and  C_17
REMARK    4  A    between atoms: C_11  and  C_16
REMARK    5  A    between atoms: C_19  and  C_22
REMARK    6  A    between atoms: C_20  and  C_23
REMARK    7  A    between atoms: C_32  and  C_33
REMARK    8  A    between atoms: C_33  and  C_34
REMARK                            x       y       z     vdW  Elec       q    Type
REMARK                         _______ _______ _______ _____ _____    ______ ____
ROOT
ATOM      4  N   UNL     1      -3.072  -1.869  23.443  0.00  0.00    -0.297 NA
ATOM      9  C   UNL     1      -3.277  -1.054  25.908  0.00  0.00    +0.002 C 
ATOM     10  C   UNL     1      -4.222  -0.237  24.985  0.00  0.00    +0.055 C 
ATOM     11  C   UNL     1      -1.721  -1.610  24.007  0.00  0.00    +0.074 C 
ATOM     12  C   UNL     1      -1.828  -0.933  25.390  0.00  0.00    +0.024 C 
ATOM     13  C   UNL     1      -3.687  -2.535  25.767  0.00  0.00    +0.019 C 
ATOM     14  C   UNL     1      -3.898  -0.638  23.518  0.00  0.00    +0.094 C 
ATOM     15  C   UNL     1      -3.720  -2.911  24.275  0.00  0.00    +0.085 C 
ENDROOT
BRANCH  10  17
ATOM      6  N   UNL     1      -5.476   1.792  25.527  0.00  0.00    -0.237 NA
ATOM      7  N   UNL     1      -4.452   3.975  25.522  0.00  0.00    -0.229 NA
ATOM     17  C   UNL     1      -4.282   1.273  25.172  0.00  0.00    +0.050 A 
ATOM     18  C   UNL     1      -3.144   2.028  24.976  0.00  0.00    +0.055 A 
ATOM     19  C   UNL     1      -3.290   3.388  25.167  0.00  0.00    +0.110 A 
ATOM     20  C   UNL     1      -5.489   3.130  25.683  0.00  0.00    +0.127 A 
ATOM     23  C   UNL     1      -6.790   3.743  26.077  0.00  0.00    +0.088 C 
BRANCH  19  22
ATOM      2  O   UNL     1      -0.991   3.705  24.712  0.00  0.00    -0.461 OA
ATOM     22  C   UNL     1      -2.184   4.292  24.995  0.00  0.00    +0.153 A 
ATOM     24  C   UNL     1      -2.048   5.660  25.052  0.00  0.00    +0.051 A 
ATOM     26  C   UNL     1      -0.684   5.930  24.787  0.00  0.00    +0.042 A 
ATOM     27  C   UNL     1      -0.083   4.708  24.586  0.00  0.00    +0.196 A 
ENDBRANCH  19  22
ENDBRANCH  10  17
BRANCH  11  16
ATOM     16  C   UNL     1      -0.832  -0.814  23.049  0.00  0.00    +0.124 C 
BRANCH  16   5
ATOM      1  O   UNL     1       1.787  -1.176  21.950  0.00  0.00    -0.253 OA
ATOM      5  N   UNL     1       0.410  -0.471  23.670  0.00  0.00    -0.298 N 
ATOM      8  N   UNL     1       2.695  -0.249  23.907  0.00  0.00    -0.269 N 
ATOM     21  C   UNL     1       1.664  -0.679  23.067  0.00  0.00    +0.304 C 
ATOM     35  H   UNL     1       0.386  -0.060  24.598  0.00  0.00    +0.150 HD
ATOM     36  H   UNL     1       2.419   0.141  24.805  0.00  0.00    +0.156 HD
BRANCH   8  25
ATOM     25  C   UNL     1       4.087  -0.289  23.662  0.00  0.00    +0.035 A 
ATOM     28  C   UNL     1       4.810  -1.452  23.935  0.00  0.00    +0.024 A 
ATOM     29  C   UNL     1       4.738   0.832  23.147  0.00  0.00    +0.024 A 
ATOM     30  C   UNL     1       6.182  -1.492  23.692  0.00  0.00    +0.013 A 
ATOM     31  C   UNL     1       6.111   0.792  22.905  0.00  0.00    +0.013 A 
ATOM     32  C   UNL     1       6.833  -0.371  23.178  0.00  0.00    +0.017 A 
BRANCH  32  33
ATOM      3  O   UNL     1       8.760  -1.224  22.118  0.00  0.00    -0.292 OA
ATOM     33  C   UNL     1       8.265  -0.412  22.925  0.00  0.00    +0.160 C 
ATOM     34  C   UNL     1       9.201   0.548  23.650  0.00  0.00    +0.091 C 
ENDBRANCH  32  33
ENDBRANCH   8  25
ENDBRANCH  16   5
ENDBRANCH  11  16
TORSDOF 6
ENDMDL
MODEL 3
REMARK VINA RESULT:       8.6      2.102      4.321
REMARK  Name = 26742464
REMARK  8 active torsions:
REMARK  status: ('A' for Active; 'I' for Inactive)
REMARK    1  A    between atoms: N_5  and  C_16
REMARK    2  A    between atoms: N_8  and  C_25
REMARK    3  A    between atoms: C_10  and  C_17
REMARK    4  A    between atoms: C_11  and  C_16
REMARK    5  A    between atoms: C_19  and  C_22
REMARK    6  A    between atoms: C_20  and  C_23
REMARK    7  A    between atoms: C_32  and  C_33
REMARK    8  A    between atoms: C_33  and  C_34
REMARK                            x       y       z     vdW  Elec       q    Type
REMARK                         _______ _______ _______ _____ _____    ______ ____
ROOT
ATOM      4  N   UNL     1      -4.322   3.690  26.030  0.00  0.00    -0.297 NA
ATOM      9  C   UNL     1      -5.063   2.502  23.834  0.00  0.00    +0.002 C 
ATOM     10  C   UNL     1      -5.009   1.487  25.008  0.00  0.00    +0.055 C 
ATOM     11  C   UNL     1      -3.383   4.026  24.928  0.00  0.00    +0.074 C 
ATOM     12  C   UNL     1      -3.682   3.174  23.677  0.00  0.00    +0.024 C 
ATOM     13  C   UNL     1      -6.061   3.606  24.243  0.00  0.00    +0.019 C 
ATOM     14  C   UNL     1      -4.371   2.218  26.224  0.00  0.00    +0.094 C 
ATOM     15  C   UNL     1      -5.674   4.148  25.631  0.00  0.00    +0.085 C 
ENDROOT
BRANCH  10  17
ATOM      6  N   UNL     1      -5.117  -0.769  24.071  0.00  0.00    -0.237 NA
ATOM      7  N   UNL     1      -3.293  -2.332  24.271  0.00  0.00    -0.229 NA
ATOM     17  C   UNL     1      -4.376   0.127  24.756  0.00  0.00    +0.050 A 
ATOM     18  C   UNL     1      -3.103  -0.130  25.225  0.00  0.00    +0.055 A 
ATOM     19  C   UNL     1      -2.608  -1.389  24.950  0.00  0.00    +0.110 A 
ATOM     20  C   UNL     1      -4.523  -1.961  23.866  0.00  0.00    +0.127 A 
ATOM     23  C   UNL     1      -5.311  -2.978  23.111  0.00  0.00    +0.088 C 
BRANCH  19  22
ATOM      2  O   UNL     1      -0.822  -2.934  24.823  0.00  0.00    -0.461 OA
ATOM     22  C   UNL     1      -1.295  -1.788  25.381  0.00  0.00    +0.153 A 
ATOM     24  C   UNL     1      -0.375  -1.263  26.258  0.00  0.00    +0.051 A 
ATOM     26  C   UNL     1       0.734  -2.143  26.237  0.00  0.00    +0.042 A 
ATOM     27  C   UNL     1       0.413  -3.143  25.348  0.00  0.00    +0.196 A 
ENDBRANCH  19  22
ENDBRANCH  10  17
BRANCH  11  16
ATOM     16  C   UNL     1      -1.918   3.916  25.356  0.00  0.00    +0.124 C 
BRANCH  16   5
ATOM      1  O   UNL     1       0.559   2.558  25.828  0.00  0.00    -0.253 OA
ATOM      5  N   UNL     1      -1.162   3.162  24.405  0.00  0.00    -0.298 N 
ATOM      8  N   UNL     1       0.561   1.863  23.585  0.00  0.00    -0.269 N 
ATOM     21  C   UNL     1       0.052   2.520  24.710  0.00  0.00    +0.304 C 
ATOM     35  H   UNL     1      -1.518   3.091  23.456  0.00  0.00    +0.150 HD
ATOM     36  H   UNL     1       0.014   1.931  22.731  0.00  0.00    +0.156 HD
BRANCH   8  25
ATOM     25  C   UNL     1       1.754   1.109  23.487  0.00  0.00    +0.035 A 
ATOM     28  C   UNL     1       2.972   1.757  23.279  0.00  0.00    +0.024 A 
ATOM     29  C   UNL     1       1.712  -0.280  23.599  0.00  0.00    +0.024 A 
ATOM     30  C   UNL     1       4.148   1.014  23.182  0.00  0.00    +0.013 A 
ATOM     31  C   UNL     1       2.888  -1.023  23.502  0.00  0.00    +0.013 A 
ATOM     32  C   UNL     1       4.107  -0.375  23.294  0.00  0.00    +0.017 A 
BRANCH  32  33
ATOM      3  O   UNL     1       5.366  -2.361  23.489  0.00  0.00    -0.292 OA
ATOM     33  C   UNL     1       5.334  -1.150  23.193  0.00  0.00    +0.160 C 
ATOM     34  C   UNL     1       6.623  -0.489  22.718  0.00  0.00    +0.091 C 
ENDBRANCH  32  33
ENDBRANCH   8  25
ENDBRANCH  16   5
ENDBRANCH  11  16
TORSDOF 6
ENDMDL
MODEL 4
REMARK VINA RESULT:       8.7      1.979      3.574
REMARK  Name = 26742464
REMARK  8 active torsions:
REMARK  status: ('A' for Active; 'I' for Inactive)
REMARK    1  A    between atoms: N_5  and  C_16
REMARK    2  A    between atoms: N_8  and  C_25
REMARK    3  A    between atoms: C_10  and  C_17
REMARK    4  A    between atoms: C_11  and  C_16
REMARK    5  A    between atoms: C_19  and  C_22
REMARK    6  A    between atoms: C_20  and  C_23
REMARK    7  A    between atoms: C_32  and  C_33
REMARK    8  A    between atoms: C_33  and  C_34
REMARK                            x       y       z     vdW  Elec       q    Type
REMARK                         _______ _______ _______ _____ _____    ______ ____
ROOT
ATOM      4  N   UNL     1      -4.314   4.822  24.018  0.00  0.00    -0.297 NA
ATOM      9  C   UNL     1      -4.744   2.825  25.632  0.00  0.00    +0.002 C 
ATOM     10  C   UNL     1      -3.343   3.443  25.894  0.00  0.00    +0.055 C 
ATOM     11  C   UNL     1      -4.780   3.638  23.249  0.00  0.00    +0.074 C 
ATOM     12  C   UNL     1      -4.842   2.390  24.154  0.00  0.00    +0.024 C 
ATOM     13  C   UNL     1      -5.775   3.953  25.843  0.00  0.00    +0.019 C 
ATOM     14  C   UNL     1      -3.079   4.485  24.771  0.00  0.00    +0.094 C 
ATOM     15  C   UNL     1      -5.371   5.173  24.997  0.00  0.00    +0.085 C 
ENDROOT
BRANCH  10  17
ATOM      6  N   UNL     1      -1.086   3.003  26.729  0.00  0.00    -0.237 NA
ATOM      7  N   UNL     1      -0.022   0.854  26.483  0.00  0.00    -0.229 NA
ATOM     17  C   UNL     1      -2.166   2.499  26.094  0.00  0.00    +0.050 A 
ATOM     18  C   UNL     1      -2.247   1.202  25.631  0.00  0.00    +0.055 A 
ATOM     19  C   UNL     1      -1.134   0.417  25.855  0.00  0.00    +0.110 A 
ATOM     20  C   UNL     1      -0.066   2.139  26.888  0.00  0.00    +0.127 A 
ATOM     23  C   UNL     1       1.145   2.657  27.587  0.00  0.00    +0.088 C 
BRANCH  19  22
ATOM      2  O   UNL     1      -2.253  -1.456  24.945  0.00  0.00    -0.461 OA
ATOM     22  C   UNL     1      -1.084  -0.955  25.423  0.00  0.00    +0.153 A 
ATOM     24  C   UNL     1      -0.095  -1.909  25.381  0.00  0.00    +0.051 A 
ATOM     26  C   UNL     1      -0.694  -3.072  24.842  0.00  0.00    +0.042 A 
ATOM     27  C   UNL     1      -2.008  -2.746  24.592  0.00  0.00    +0.196 A 
ENDBRANCH  19  22
ENDBRANCH  10  17
BRANCH  11  16
ATOM     16  C   UNL     1      -3.941   3.391  21.994  0.00  0.00    +0.124 C 
BRANCH  16   5
ATOM      1  O   UNL     1      -1.121   3.368  22.493  0.00  0.00    -0.253 OA
ATOM      5  N   UNL     1      -3.111   2.238  22.152  0.00  0.00    -0.298 N 
ATOM      8  N   UNL     1      -1.182   1.021  22.504  0.00  0.00    -0.269 N 
ATOM     21  C   UNL     1      -1.727   2.304  22.396  0.00  0.00    +0.304 C 
ATOM     35  H   UNL     1      -3.542   1.321  22.079  0.00  0.00    +0.150 HD
ATOM     36  H   UNL     1      -1.825   0.241  22.398  0.00  0.00    +0.156 HD
BRANCH   8  25
ATOM     25  C   UNL     1       0.167   0.669  22.746  0.00  0.00    +0.035 A 
ATOM     28  C   UNL     1       0.695  -0.494  22.184  0.00  0.00    +0.024 A 
ATOM     29  C   UNL     1       0.969   1.485  23.543  0.00  0.00    +0.024 A 
ATOM     30  C   UNL     1       2.025  -0.841  22.422  0.00  0.00    +0.013 A 
ATOM     31  C   UNL     1       2.299   1.139  23.781  0.00  0.00    +0.013 A 
ATOM     32  C   UNL     1       2.827  -0.025  23.219  0.00  0.00    +0.017 A 
BRANCH  32  33
ATOM      3  O   UNL     1       4.540  -1.552  23.767  0.00  0.00    -0.292 OA
ATOM     33  C   UNL     1       4.214  -0.386  23.467  0.00  0.00    +0.160 C 
ATOM     34  C   UNL     1       5.312   0.666  23.362  0.00  0.00    +0.091 C 
ENDBRANCH  32  33
ENDBRANCH   8  25
ENDBRANCH  16   5
ENDBRANCH  11  16
TORSDOF 6
ENDMDL
