MODEL 1
REMARK VINA RESULT:      -0.6      0.000      0.000
REMARK  Name = 25313090
REMARK  8 active torsions:
REMARK  status: ('A' for Active; 'I' for Inactive)
REMARK    1  A    between atoms: O_2  and  C_23
REMARK    2  A    between atoms: N_5  and  C_18
REMARK    3  A    between atoms: N_6  and  C_24
REMARK    4  A    between atoms: C_7  and  C_15
REMARK    5  A    between atoms: C_8  and  C_17
REMARK    6  A    between atoms: C_9  and  C_16
REMARK    7  A    between atoms: C_15  and  C_18
REMARK    8  A    between atoms: C_17  and  C_23
REMARK                            x       y       z     vdW  Elec       q    Type
REMARK                         _______ _______ _______ _____ _____    ______ ____
ROOT
ATOM      1  O   UNL     1      -4.988   4.712  25.099  0.00  0.00    -0.275 OA
ATOM      4  N   UNL     1      -3.994   2.634  25.396  0.00  0.00    -0.301 N 
ATOM      7  C   UNL     1      -3.096   0.495  24.507  0.00  0.00    +0.011 C 
ATOM      8  C   UNL     1      -4.387  -0.208  24.998  0.00  0.00    +0.006 C 
ATOM     10  C   UNL     1      -2.825   1.746  25.361  0.00  0.00    +0.111 C 
ATOM     11  C   UNL     1      -5.572   0.769  25.068  0.00  0.00    +0.023 C 
ATOM     14  C   UNL     1      -5.222   2.009  25.888  0.00  0.00    +0.108 C 
ATOM     16  C   UNL     1      -3.997   3.981  25.035  0.00  0.00    +0.219 C 
ENDROOT
BRANCH  16   9
ATOM      9  C   UNL     1      -2.693   4.549  24.536  0.00  0.00    +0.075 C 
ATOM     12  C   UNL     1      -1.461   4.400  25.381  0.00  0.00    +0.013 C 
ATOM     13  C   UNL     1      -2.106   5.747  25.226  0.00  0.00    +0.013 C 
ENDBRANCH  16   9
BRANCH   7  15
ATOM     15  C   UNL     1      -3.115   0.860  23.017  0.00  0.00    +0.020 C 
BRANCH  15  18
ATOM     18  C   UNL     1      -1.908   1.712  22.652  0.00  0.00    +0.085 C 
BRANCH  18   5
ATOM      5  N   UNL     1      -0.692   1.107  23.194  0.00  0.00    -0.299 NA
ATOM      6  N   UNL     1       2.087   0.451  23.261  0.00  0.00    -0.327 N 
ATOM     19  C   UNL     1      -0.137   0.129  22.250  0.00  0.00    +0.103 C 
ATOM     20  C   UNL     1       0.309   2.139  23.489  0.00  0.00    +0.103 C 
ATOM     21  C   UNL     1       1.104  -0.552  22.831  0.00  0.00    +0.120 C 
ATOM     22  C   UNL     1       1.566   1.526  24.110  0.00  0.00    +0.120 C 
BRANCH   6  24
ATOM     24  C   UNL     1       3.422   0.049  23.390  0.00  0.00    +0.030 A 
ATOM     25  C   UNL     1       4.451   0.963  23.157  0.00  0.00    +0.023 A 
ATOM     26  C   UNL     1       3.724  -1.262  23.752  0.00  0.00    +0.023 A 
ATOM     27  C   UNL     1       5.781   0.564  23.287  0.00  0.00    +0.002 A 
ATOM     28  C   UNL     1       5.054  -1.662  23.884  0.00  0.00    +0.002 A 
ATOM     29  C   UNL     1       6.082  -0.749  23.651  0.00  0.00    +0.000 A 
ENDBRANCH   6  24
ENDBRANCH  18   5
ENDBRANCH  15  18
ENDBRANCH   7  15
BRANCH   8  17
ATOM     17  C   UNL     1      -4.753  -1.441  24.171  0.00  0.00    +0.124 C 
BRANCH  17  23
ATOM      3  O   UNL     1      -3.316  -3.300  23.521  0.00  0.00    -0.251 OA
ATOM     23  C   UNL     1      -3.772  -2.561  24.381  0.00  0.00    +0.305 C 
BRANCH  23   2
ATOM      2  O   UNL     1      -3.451  -2.647  25.697  0.00  0.00    -0.481 OA
ATOM     30  H   UNL     1      -3.347  -1.761  26.107  0.00  0.00    +0.295 HD
ENDBRANCH  23   2
ENDBRANCH  17  23
ENDBRANCH   8  17
TORSDOF 8
ENDMDL
MODEL 2
REMARK VINA RESULT:      -0.3      1.328      4.259
REMARK  Name = 25313090
REMARK  8 active torsions:
REMARK  status: ('A' for Active; 'I' for Inactive)
REMARK    1  A    between atoms: O_2  and  C_23
REMARK    2  A    between atoms: N_5  and  C_18
REMARK    3  A    between atoms: N_6  and  C_24
REMARK    4  A    between atoms: C_7  and  C_15
REMARK    5  A    between atoms: C_8  and  C_17
REMARK    6  A    between atoms: C_9  and  C_16
REMARK    7  A    between atoms: C_15  and  C_18
REMARK    8  A    between atoms: C_17  and  C_23
REMARK                            x       y       z     vdW  Elec       q    Type
REMARK                         _______ _______ _______ _____ _____    ______ ____
ROOT
ATOM      1  O   UNL     1      -3.992  -1.123  26.497  0.00  0.00    -0.275 OA
ATOM      4  N   UNL     1      -4.501   0.601  25.026  0.00  0.00    -0.301 N 
ATOM      7  C   UNL     1      -3.835   2.520  23.594  0.00  0.00    +0.011 C 
ATOM      8  C   UNL     1      -4.384   3.475  24.684  0.00  0.00    +0.006 C 
ATOM     10  C   UNL     1      -4.563   1.166  23.671  0.00  0.00    +0.111 C 
ATOM     11  C   UNL     1      -4.347   2.825  26.077  0.00  0.00    +0.023 C 
ATOM     14  C   UNL     1      -5.043   1.466  26.074  0.00  0.00    +0.108 C 
ATOM     16  C   UNL     1      -4.009  -0.662  25.353  0.00  0.00    +0.219 C 
ENDROOT
BRANCH  16   9
ATOM      9  C   UNL     1      -3.465  -1.490  24.217  0.00  0.00    +0.075 C 
ATOM     12  C   UNL     1      -3.683  -2.976  24.228  0.00  0.00    +0.013 C 
ATOM     13  C   UNL     1      -2.312  -2.416  24.474  0.00  0.00    +0.013 C 
ENDBRANCH  16   9
BRANCH   7  15
ATOM     15  C   UNL     1      -2.316   2.312  23.656  0.00  0.00    +0.020 C 
BRANCH  15  18
ATOM     18  C   UNL     1      -1.911   1.048  22.912  0.00  0.00    +0.085 C 
BRANCH  18   5
ATOM      5  N   UNL     1      -0.461   1.027  22.723  0.00  0.00    -0.299 NA
ATOM      6  N   UNL     1       2.222   0.182  23.220  0.00  0.00    -0.327 N 
ATOM     19  C   UNL     1       0.227   1.427  23.957  0.00  0.00    +0.103 C 
ATOM     20  C   UNL     1      -0.014  -0.310  22.314  0.00  0.00    +0.103 C 
ATOM     21  C   UNL     1       1.743   1.463  23.754  0.00  0.00    +0.120 C 
ATOM     22  C   UNL     1       1.494  -0.332  22.056  0.00  0.00    +0.120 C 
BRANCH   6  24
ATOM     24  C   UNL     1       3.574  -0.136  23.389  0.00  0.00    +0.030 A 
ATOM     25  C   UNL     1       4.555   0.822  23.127  0.00  0.00    +0.023 A 
ATOM     26  C   UNL     1       3.942  -1.410  23.822  0.00  0.00    +0.023 A 
ATOM     27  C   UNL     1       5.902   0.505  23.298  0.00  0.00    +0.002 A 
ATOM     28  C   UNL     1       5.290  -1.726  23.995  0.00  0.00    +0.002 A 
ATOM     29  C   UNL     1       6.269  -0.769  23.732  0.00  0.00    +0.000 A 
ENDBRANCH   6  24
ENDBRANCH  18   5
ENDBRANCH  15  18
ENDBRANCH   7  15
BRANCH   8  17
ATOM     17  C   UNL     1      -3.680   4.832  24.704  0.00  0.00    +0.124 C 
BRANCH  17  23
ATOM      3  O   UNL     1      -2.205   4.120  26.509  0.00  0.00    -0.251 OA
ATOM     23  C   UNL     1      -2.409   4.787  25.506  0.00  0.00    +0.305 C 
BRANCH  23   2
ATOM      2  O   UNL     1      -1.487   5.614  24.950  0.00  0.00    -0.481 OA
ATOM     30  H   UNL     1      -1.879   6.180  24.250  0.00  0.00    +0.295 HD
ENDBRANCH  23   2
ENDBRANCH  17  23
ENDBRANCH   8  17
TORSDOF 8
ENDMDL
MODEL 3
REMARK VINA RESULT:       1.2      1.389      4.526
REMARK  Name = 25313090
REMARK  8 active torsions:
REMARK  status: ('A' for Active; 'I' for Inactive)
REMARK    1  A    between atoms: O_2  and  C_23
REMARK    2  A    between atoms: N_5  and  C_18
REMARK    3  A    between atoms: N_6  and  C_24
REMARK    4  A    between atoms: C_7  and  C_15
REMARK    5  A    between atoms: C_8  and  C_17
REMARK    6  A    between atoms: C_9  and  C_16
REMARK    7  A    between atoms: C_15  and  C_18
REMARK    8  A    between atoms: C_17  and  C_23
REMARK                            x       y       z     vdW  Elec       q    Type
REMARK                         _______ _______ _______ _____ _____    ______ ____
ROOT
ATOM      1  O   UNL     1      -0.726  -1.931  25.402  0.00  0.00    -0.275 OA
ATOM      4  N   UNL     1      -2.545  -0.487  25.409  0.00  0.00    -0.301 N 
ATOM      7  C   UNL     1      -3.964   1.244  24.330  0.00  0.00    +0.011 C 
ATOM      8  C   UNL     1      -3.295   2.306  25.239  0.00  0.00    +0.006 C 
ATOM     10  C   UNL     1      -3.915  -0.134  25.013  0.00  0.00    +0.111 C 
ATOM     11  C   UNL     1      -1.884   1.874  25.671  0.00  0.00    +0.023 C 
ATOM     14  C   UNL     1      -1.897   0.480  26.295  0.00  0.00    +0.108 C 
ATOM     16  C   UNL     1      -1.868  -1.646  25.034  0.00  0.00    +0.219 C 
ENDROOT
BRANCH  16   9
ATOM      9  C   UNL     1      -2.603  -2.590  24.116  0.00  0.00    +0.075 C 
ATOM     12  C   UNL     1      -4.079  -2.407  23.911  0.00  0.00    +0.013 C 
ATOM     13  C   UNL     1      -3.572  -3.575  24.705  0.00  0.00    +0.013 C 
ENDBRANCH  16   9
BRANCH   7  15
ATOM     15  C   UNL     1      -3.362   1.163  22.921  0.00  0.00    +0.020 C 
BRANCH  15  18
ATOM     18  C   UNL     1      -2.162   2.089  22.789  0.00  0.00    +0.085 C 
BRANCH  18   5
ATOM      5  N   UNL     1      -0.961   1.419  23.286  0.00  0.00    -0.299 NA
ATOM      6  N   UNL     1       1.785   0.634  23.264  0.00  0.00    -0.327 N 
ATOM     19  C   UNL     1      -0.479   0.434  22.310  0.00  0.00    +0.103 C 
ATOM     20  C   UNL     1       0.094   2.398  23.570  0.00  0.00    +0.103 C 
ATOM     21  C   UNL     1       0.745  -0.314  22.843  0.00  0.00    +0.120 C 
ATOM     22  C   UNL     1       1.338   1.716  24.145  0.00  0.00    +0.120 C 
BRANCH   6  24
ATOM     24  C   UNL     1       3.103   0.169  23.347  0.00  0.00    +0.030 A 
ATOM     25  C   UNL     1       3.354  -1.158  23.699  0.00  0.00    +0.023 A 
ATOM     26  C   UNL     1       4.164   1.032  23.077  0.00  0.00    +0.023 A 
ATOM     27  C   UNL     1       4.667  -1.621  23.780  0.00  0.00    +0.002 A 
ATOM     28  C   UNL     1       5.478   0.568  23.156  0.00  0.00    +0.002 A 
ATOM     29  C   UNL     1       5.729  -0.758  23.508  0.00  0.00    +0.000 A 
ENDBRANCH   6  24
ENDBRANCH  18   5
ENDBRANCH  15  18
ENDBRANCH   7  15
BRANCH   8  17
ATOM     17  C   UNL     1      -3.263   3.700  24.612  0.00  0.00    +0.124 C 
BRANCH  17  23
ATOM      3  O   UNL     1      -1.480   5.282  25.122  0.00  0.00    -0.251 OA
ATOM     23  C   UNL     1      -2.484   4.671  25.456  0.00  0.00    +0.305 C 
BRANCH  23   2
ATOM      2  O   UNL     1      -3.063   4.781  26.679  0.00  0.00    -0.481 OA
ATOM     30  H   UNL     1      -2.650   4.179  27.335  0.00  0.00    +0.295 HD
ENDBRANCH  23   2
ENDBRANCH  17  23
ENDBRANCH   8  17
TORSDOF 8
ENDMDL
MODEL 4
REMARK VINA RESULT:       1.7      2.023      3.065
REMARK  Name = 25313090
REMARK  8 active torsions:
REMARK  status: ('A' for Active; 'I' for Inactive)
REMARK    1  A    between atoms: O_2  and  C_23
REMARK    2  A    between atoms: N_5  and  C_18
REMARK    3  A    between atoms: N_6  and  C_24
REMARK    4  A    between atoms: C_7  and  C_15
REMARK    5  A    between atoms: C_8  and  C_17
REMARK    6  A    between atoms: C_9  and  C_16
REMARK    7  A    between atoms: C_15  and  C_18
REMARK    8  A    between atoms: C_17  and  C_23
REMARK                            x       y       z     vdW  Elec       q    Type
REMARK                         _______ _______ _______ _____ _____    ______ ____
ROOT
ATOM      1  O   UNL     1      -0.351   5.272  24.638  0.00  0.00    -0.275 OA
ATOM      4  N   UNL     1      -2.045   4.020  25.615  0.00  0.00    -0.301 N 
ATOM      7  C   UNL     1      -3.746   2.209  25.538  0.00  0.00    +0.011 C 
ATOM      8  C   UNL     1      -4.839   3.295  25.366  0.00  0.00    +0.006 C 
ATOM     10  C   UNL     1      -2.532   2.802  26.277  0.00  0.00    +0.111 C 
ATOM     11  C   UNL     1      -4.274   4.569  24.717  0.00  0.00    +0.023 C 
ATOM     14  C   UNL     1      -3.045   5.077  25.468  0.00  0.00    +0.108 C 
ATOM     16  C   UNL     1      -0.741   4.229  25.168  0.00  0.00    +0.219 C 
ENDROOT
BRANCH  16   9
ATOM      9  C   UNL     1       0.228   3.090  25.354  0.00  0.00    +0.075 C 
ATOM     12  C   UNL     1      -0.124   1.979  26.301  0.00  0.00    +0.013 C 
ATOM     13  C   UNL     1       0.957   2.957  26.660  0.00  0.00    +0.013 C 
ENDBRANCH  16   9
BRANCH   7  15
ATOM     15  C   UNL     1      -3.303   1.558  24.222  0.00  0.00    +0.020 C 
BRANCH  15  18
ATOM     18  C   UNL     1      -3.062   0.067  24.408  0.00  0.00    +0.085 C 
BRANCH  18   5
ATOM      5  N   UNL     1      -1.743  -0.292  23.888  0.00  0.00    -0.299 NA
ATOM      6  N   UNL     1       1.102  -0.159  23.680  0.00  0.00    -0.327 N 
ATOM     19  C   UNL     1      -1.098   0.874  23.271  0.00  0.00    +0.103 C 
ATOM     20  C   UNL     1      -0.894  -0.823  24.960  0.00  0.00    +0.103 C 
ATOM     21  C   UNL     1       0.259   0.497  22.672  0.00  0.00    +0.120 C 
ATOM     22  C   UNL     1       0.471  -1.256  24.419  0.00  0.00    +0.120 C 
BRANCH   6  24
ATOM     24  C   UNL     1       2.487  -0.167  23.474  0.00  0.00    +0.030 A 
ATOM     25  C   UNL     1       3.114   0.943  22.905  0.00  0.00    +0.023 A 
ATOM     26  C   UNL     1       3.239  -1.282  23.840  0.00  0.00    +0.023 A 
ATOM     27  C   UNL     1       4.494   0.936  22.703  0.00  0.00    +0.002 A 
ATOM     28  C   UNL     1       4.620  -1.288  23.639  0.00  0.00    +0.002 A 
ATOM     29  C   UNL     1       5.247  -0.180  23.070  0.00  0.00    +0.000 A 
ENDBRANCH   6  24
ENDBRANCH  18   5
ENDBRANCH  15  18
ENDBRANCH   7  15
BRANCH   8  17
ATOM     17  C   UNL     1      -6.065   2.797  24.600  0.00  0.00    +0.124 C 
BRANCH  17  23
ATOM      3  O   UNL     1      -6.518   0.408  24.424  0.00  0.00    -0.251 OA
ATOM     23  C   UNL     1      -6.505   1.441  25.078  0.00  0.00    +0.305 C 
BRANCH  23   2
ATOM      2  O   UNL     1      -6.899   1.518  26.375  0.00  0.00    -0.481 OA
ATOM     30  H   UNL     1      -7.844   1.277  26.484  0.00  0.00    +0.295 HD
ENDBRANCH  23   2
ENDBRANCH  17  23
ENDBRANCH   8  17
TORSDOF 8
ENDMDL
MODEL 5
REMARK VINA RESULT:       2.7      1.573      4.521
REMARK  Name = 25313090
REMARK  8 active torsions:
REMARK  status: ('A' for Active; 'I' for Inactive)
REMARK    1  A    between atoms: O_2  and  C_23
REMARK    2  A    between atoms: N_5  and  C_18
REMARK    3  A    between atoms: N_6  and  C_24
REMARK    4  A    between atoms: C_7  and  C_15
REMARK    5  A    between atoms: C_8  and  C_17
REMARK    6  A    between atoms: C_9  and  C_16
REMARK    7  A    between atoms: C_15  and  C_18
REMARK    8  A    between atoms: C_17  and  C_23
REMARK                            x       y       z     vdW  Elec       q    Type
REMARK                         _______ _______ _______ _____ _____    ______ ____
ROOT
ATOM      1  O   UNL     1      -0.243  -2.167  25.405  0.00  0.00    -0.275 OA
ATOM      4  N   UNL     1      -2.069  -0.758  25.676  0.00  0.00    -0.301 N 
ATOM      7  C   UNL     1      -3.602   1.014  24.850  0.00  0.00    +0.011 C 
ATOM      8  C   UNL     1      -2.864   2.026  25.763  0.00  0.00    +0.006 C 
ATOM     10  C   UNL     1      -3.474  -0.405  25.432  0.00  0.00    +0.111 C 
ATOM     11  C   UNL     1      -1.414   1.591  26.033  0.00  0.00    +0.023 C 
ATOM     14  C   UNL     1      -1.353   0.160  26.561  0.00  0.00    +0.108 C 
ATOM     16  C   UNL     1      -1.417  -1.879  25.163  0.00  0.00    +0.219 C 
ENDROOT
BRANCH  16   9
ATOM      9  C   UNL     1      -2.223  -2.774  24.256  0.00  0.00    +0.075 C 
ATOM     12  C   UNL     1      -3.649  -2.412  23.954  0.00  0.00    +0.013 C 
ATOM     13  C   UNL     1      -3.344  -3.586  24.839  0.00  0.00    +0.013 C 
ENDBRANCH  16   9
BRANCH   7  15
ATOM     15  C   UNL     1      -3.133   1.036  23.390  0.00  0.00    +0.020 C 
BRANCH  15  18
ATOM     18  C   UNL     1      -2.279   2.265  23.112  0.00  0.00    +0.085 C 
BRANCH  18   5
ATOM      5  N   UNL     1      -0.914   1.857  22.783  0.00  0.00    -0.299 NA
ATOM      6  N   UNL     1       1.636   0.661  23.258  0.00  0.00    -0.327 N 
ATOM     19  C   UNL     1       0.048   2.496  23.689  0.00  0.00    +0.103 C 
ATOM     20  C   UNL     1      -0.780   0.397  22.863  0.00  0.00    +0.103 C 
ATOM     21  C   UNL     1       1.485   2.121  23.318  0.00  0.00    +0.120 C 
ATOM     22  C   UNL     1       0.628  -0.049  22.465  0.00  0.00    +0.120 C 
BRANCH   6  24
ATOM     24  C   UNL     1       2.924   0.128  23.382  0.00  0.00    +0.030 A 
ATOM     25  C   UNL     1       4.039   0.940  23.167  0.00  0.00    +0.023 A 
ATOM     26  C   UNL     1       3.094  -1.213  23.722  0.00  0.00    +0.023 A 
ATOM     27  C   UNL     1       5.323   0.410  23.293  0.00  0.00    +0.002 A 
ATOM     28  C   UNL     1       4.378  -1.743  23.850  0.00  0.00    +0.002 A 
ATOM     29  C   UNL     1       5.492  -0.932  23.635  0.00  0.00    +0.000 A 
ENDBRANCH   6  24
ENDBRANCH  18   5
ENDBRANCH  15  18
ENDBRANCH   7  15
BRANCH   8  17
ATOM     17  C   UNL     1      -2.906   3.459  25.231  0.00  0.00    +0.124 C 
BRANCH  17  23
ATOM      3  O   UNL     1      -5.208   3.809  25.953  0.00  0.00    -0.251 OA
ATOM     23  C   UNL     1      -4.316   3.973  25.135  0.00  0.00    +0.305 C 
BRANCH  23   2
ATOM      2  O   UNL     1      -4.471   4.669  23.979  0.00  0.00    -0.481 OA
ATOM     30  H   UNL     1      -4.214   4.138  23.195  0.00  0.00    +0.295 HD
ENDBRANCH  23   2
ENDBRANCH  17  23
ENDBRANCH   8  17
TORSDOF 8
ENDMDL
MODEL 6
REMARK VINA RESULT:       2.8      2.857      5.263
REMARK  Name = 25313090
REMARK  8 active torsions:
REMARK  status: ('A' for Active; 'I' for Inactive)
REMARK    1  A    between atoms: O_2  and  C_23
REMARK    2  A    between atoms: N_5  and  C_18
REMARK    3  A    between atoms: N_6  and  C_24
REMARK    4  A    between atoms: C_7  and  C_15
REMARK    5  A    between atoms: C_8  and  C_17
REMARK    6  A    between atoms: C_9  and  C_16
REMARK    7  A    between atoms: C_15  and  C_18
REMARK    8  A    between atoms: C_17  and  C_23
REMARK                            x       y       z     vdW  Elec       q    Type
REMARK                         _______ _______ _______ _____ _____    ______ ____
ROOT
ATOM      1  O   UNL     1      -0.542  -1.252  26.090  0.00  0.00    -0.275 OA
ATOM      4  N   UNL     1      -2.489  -1.021  24.846  0.00  0.00    -0.301 N 
ATOM      7  C   UNL     1      -3.977   0.278  23.338  0.00  0.00    +0.011 C 
ATOM      8  C   UNL     1      -4.887   0.578  24.556  0.00  0.00    +0.006 C 
ATOM     10  C   UNL     1      -3.214  -1.039  23.568  0.00  0.00    +0.111 C 
ATOM     11  C   UNL     1      -4.099   0.536  25.876  0.00  0.00    +0.023 C 
ATOM     14  C   UNL     1      -3.326  -0.773  26.019  0.00  0.00    +0.108 C 
ATOM     16  C   UNL     1      -1.122  -1.246  25.002  0.00  0.00    +0.219 C 
ENDROOT
BRANCH  16   9
ATOM      9  C   UNL     1      -0.329  -1.490  23.744  0.00  0.00    +0.075 C 
ATOM     12  C   UNL     1       1.105  -1.047  23.687  0.00  0.00    +0.013 C 
ATOM     13  C   UNL     1       0.062  -0.320  22.888  0.00  0.00    +0.013 C 
ENDBRANCH  16   9
BRANCH   7  15
ATOM     15  C   UNL     1      -2.999   1.409  22.998  0.00  0.00    +0.020 C 
BRANCH  15  18
ATOM     18  C   UNL     1      -3.339   2.673  23.775  0.00  0.00    +0.085 C 
BRANCH  18   5
ATOM      5  N   UNL     1      -2.212   3.051  24.627  0.00  0.00    -0.299 NA
ATOM      6  N   UNL     1      -0.320   2.730  26.742  0.00  0.00    -0.327 N 
ATOM     19  C   UNL     1      -2.639   3.163  26.027  0.00  0.00    +0.103 C 
ATOM     20  C   UNL     1      -1.128   2.068  24.512  0.00  0.00    +0.103 C 
ATOM     21  C   UNL     1      -1.480   3.613  26.920  0.00  0.00    +0.120 C 
ATOM     22  C   UNL     1       0.081   2.481  25.354  0.00  0.00    +0.120 C 
BRANCH   6  24
ATOM     24  C   UNL     1       0.640   2.694  27.760  0.00  0.00    +0.030 A 
ATOM     25  C   UNL     1       1.968   3.017  27.478  0.00  0.00    +0.023 A 
ATOM     26  C   UNL     1       0.270   2.337  29.055  0.00  0.00    +0.023 A 
ATOM     27  C   UNL     1       2.924   2.983  28.493  0.00  0.00    +0.002 A 
ATOM     28  C   UNL     1       1.226   2.304  30.071  0.00  0.00    +0.002 A 
ATOM     29  C   UNL     1       2.553   2.627  29.789  0.00  0.00    +0.000 A 
ENDBRANCH   6  24
ENDBRANCH  18   5
ENDBRANCH  15  18
ENDBRANCH   7  15
BRANCH   8  17
ATOM     17  C   UNL     1      -5.651   1.896  24.426  0.00  0.00    +0.124 C 
BRANCH  17  23
ATOM      3  O   UNL     1      -6.628   1.640  26.645  0.00  0.00    -0.251 OA
ATOM     23  C   UNL     1      -6.199   2.353  25.750  0.00  0.00    +0.305 C 
BRANCH  23   2
ATOM      2  O   UNL     1      -6.155   3.708  25.820  0.00  0.00    -0.481 OA
ATOM     30  H   UNL     1      -6.917   4.123  25.362  0.00  0.00    +0.295 HD
ENDBRANCH  23   2
ENDBRANCH  17  23
ENDBRANCH   8  17
TORSDOF 8
ENDMDL
