MODEL 1
REMARK VINA RESULT:      -6.0      0.000      0.000
REMARK  Name = 75536510
REMARK  8 active torsions:
REMARK  status: ('A' for Active; 'I' for Inactive)
REMARK    1  A    between atoms: O_2  and  C_9
REMARK    2  A    between atoms: N_4  and  C_8
REMARK    3  A    between atoms: N_4  and  C_13
REMARK    4  A    between atoms: N_5  and  C_12
REMARK    5  A    between atoms: N_6  and  C_17
REMARK    6  A    between atoms: C_10  and  C_12
REMARK    7  A    between atoms: C_13  and  C_14
REMARK    8  A    between atoms: C_15  and  C_19
REMARK                            x       y       z     vdW  Elec       q    Type
REMARK                         _______ _______ _______ _____ _____    ______ ____
ROOT
ATOM      1  O   UNL     1      -0.693   3.566  25.774  0.00  0.00    -0.371 OA
ATOM      8  C   UNL     1      -0.230   1.573  24.568  0.00  0.00    +0.111 C 
ATOM      9  C   UNL     1      -1.671   1.977  24.320  0.00  0.00    +0.164 C 
ATOM     10  C   UNL     1      -1.629   3.454  24.688  0.00  0.00    +0.165 C 
ATOM     11  C   UNL     1       0.091   2.362  25.827  0.00  0.00    +0.181 C 
ENDROOT
BRANCH   9   2
ATOM      2  O   UNL     1      -2.071   1.779  22.978  0.00  0.00    -0.388 OA
ATOM     21  H   UNL     1      -2.469   2.605  22.653  0.00  0.00    +0.210 HD
ENDBRANCH   9   2
BRANCH   8   4
ATOM      4  N   UNL     1      -0.047   0.140  24.736  0.00  0.00    -0.302 NA
ATOM     20  H   UNL     1       0.889  -0.036  25.104  0.00  0.00    +0.123 HD
BRANCH   4  13
ATOM     13  C   UNL     1      -1.029  -0.410  25.662  0.00  0.00    +0.156 C 
BRANCH  13  14
ATOM      6  N   UNL     1      -3.229  -1.441  25.011  0.00  0.00    -0.336 N 
ATOM      7  N   UNL     1      -1.405  -2.559  24.412  0.00  0.00    -0.239 NA
ATOM     14  C   UNL     1      -1.863  -1.487  25.020  0.00  0.00    +0.123 A 
ATOM     16  C   UNL     1      -3.672  -2.556  24.356  0.00  0.00    +0.106 A 
ATOM     17  C   UNL     1      -4.067  -0.414  25.582  0.00  0.00    +0.150 C 
ATOM     18  C   UNL     1      -2.528  -3.231  23.996  0.00  0.00    +0.130 A 
ENDBRANCH  13  14
ENDBRANCH   4  13
ENDBRANCH   8   4
BRANCH  10  12
ATOM     12  C   UNL     1      -2.979   4.006  25.116  0.00  0.00    +0.138 C 
BRANCH  12   5
ATOM      3  O   UNL     1      -5.789   4.296  25.783  0.00  0.00    -0.276 OA
ATOM      5  N   UNL     1      -4.005   3.009  25.017  0.00  0.00    -0.313 N 
ATOM     15  C   UNL     1      -5.333   3.237  25.360  0.00  0.00    +0.210 C 
ATOM     19  C   UNL     1      -6.204   2.030  25.137  0.00  0.00    +0.109 C 
ATOM     22  H   UNL     1      -3.738   2.088  24.680  0.00  0.00    +0.149 HD
ENDBRANCH  12   5
ENDBRANCH  10  12
TORSDOF 6
ENDMDL
MODEL 2
REMARK VINA RESULT:      -5.7      2.178      4.787
REMARK  Name = 75536510
REMARK  8 active torsions:
REMARK  status: ('A' for Active; 'I' for Inactive)
REMARK    1  A    between atoms: O_2  and  C_9
REMARK    2  A    between atoms: N_4  and  C_8
REMARK    3  A    between atoms: N_4  and  C_13
REMARK    4  A    between atoms: N_5  and  C_12
REMARK    5  A    between atoms: N_6  and  C_17
REMARK    6  A    between atoms: C_10  and  C_12
REMARK    7  A    between atoms: C_13  and  C_14
REMARK    8  A    between atoms: C_15  and  C_19
REMARK                            x       y       z     vdW  Elec       q    Type
REMARK                         _______ _______ _______ _____ _____    ______ ____
ROOT
ATOM      1  O   UNL     1       0.518   0.977  23.528  0.00  0.00    -0.371 OA
ATOM      8  C   UNL     1      -0.110   1.904  25.622  0.00  0.00    +0.111 C 
ATOM      9  C   UNL     1      -0.852   0.597  25.419  0.00  0.00    +0.164 C 
ATOM     10  C   UNL     1       0.024  -0.077  24.372  0.00  0.00    +0.165 C 
ATOM     11  C   UNL     1       0.318   2.232  24.202  0.00  0.00    +0.181 C 
ENDROOT
BRANCH   9   2
ATOM      2  O   UNL     1      -0.943  -0.170  26.604  0.00  0.00    -0.388 OA
ATOM     21  H   UNL     1      -0.725   0.405  27.358  0.00  0.00    +0.210 HD
ENDBRANCH   9   2
BRANCH   8   4
ATOM      4  N   UNL     1      -0.924   2.950  26.223  0.00  0.00    -0.302 NA
ATOM     20  H   UNL     1      -0.320   3.585  26.746  0.00  0.00    +0.123 HD
BRANCH   4  13
ATOM     13  C   UNL     1      -1.639   3.709  25.205  0.00  0.00    +0.156 C 
BRANCH  13  14
ATOM      6  N   UNL     1      -3.662   2.644  24.154  0.00  0.00    -0.336 N 
ATOM      7  N   UNL     1      -3.995   3.697  26.082  0.00  0.00    -0.239 NA
ATOM     14  C   UNL     1      -3.104   3.364  25.174  0.00  0.00    +0.123 A 
ATOM     16  C   UNL     1      -4.993   2.508  24.429  0.00  0.00    +0.106 A 
ATOM     17  C   UNL     1      -2.985   2.116  22.993  0.00  0.00    +0.150 C 
ATOM     18  C   UNL     1      -5.175   3.166  25.624  0.00  0.00    +0.130 A 
ENDBRANCH  13  14
ENDBRANCH   4  13
ENDBRANCH   8   4
BRANCH  10  12
ATOM     12  C   UNL     1      -0.721  -1.100  23.532  0.00  0.00    +0.138 C 
BRANCH  12   5
ATOM      3  O   UNL     1      -3.620  -1.161  23.676  0.00  0.00    -0.276 OA
ATOM      5  N   UNL     1      -1.536  -1.953  24.349  0.00  0.00    -0.313 N 
ATOM     15  C   UNL     1      -2.926  -1.913  24.354  0.00  0.00    +0.210 C 
ATOM     19  C   UNL     1      -3.530  -2.930  25.283  0.00  0.00    +0.109 C 
ATOM     22  H   UNL     1      -1.063  -2.616  24.957  0.00  0.00    +0.149 HD
ENDBRANCH  12   5
ENDBRANCH  10  12
TORSDOF 6
ENDMDL
MODEL 3
REMARK VINA RESULT:      -5.6      2.593      5.860
REMARK  Name = 75536510
REMARK  8 active torsions:
REMARK  status: ('A' for Active; 'I' for Inactive)
REMARK    1  A    between atoms: O_2  and  C_9
REMARK    2  A    between atoms: N_4  and  C_8
REMARK    3  A    between atoms: N_4  and  C_13
REMARK    4  A    between atoms: N_5  and  C_12
REMARK    5  A    between atoms: N_6  and  C_17
REMARK    6  A    between atoms: C_10  and  C_12
REMARK    7  A    between atoms: C_13  and  C_14
REMARK    8  A    between atoms: C_15  and  C_19
REMARK                            x       y       z     vdW  Elec       q    Type
REMARK                         _______ _______ _______ _____ _____    ______ ____
ROOT
ATOM      1  O   UNL     1      -0.405   0.561  25.244  0.00  0.00    -0.371 OA
ATOM      8  C   UNL     1      -2.289  -0.823  25.662  0.00  0.00    +0.111 C 
ATOM      9  C   UNL     1      -1.681  -1.207  24.326  0.00  0.00    +0.164 C 
ATOM     10  C   UNL     1      -0.273  -0.646  24.473  0.00  0.00    +0.165 C 
ATOM     11  C   UNL     1      -1.696   0.559  25.877  0.00  0.00    +0.181 C 
ENDROOT
BRANCH   9   2
ATOM      2  O   UNL     1      -1.672  -2.604  24.111  0.00  0.00    -0.388 OA
ATOM     21  H   UNL     1      -1.760  -3.047  24.973  0.00  0.00    +0.210 HD
ENDBRANCH   9   2
BRANCH   8   4
ATOM      4  N   UNL     1      -3.743  -0.822  25.662  0.00  0.00    -0.302 NA
ATOM     20  H   UNL     1      -4.077  -0.321  26.487  0.00  0.00    +0.123 HD
BRANCH   4  13
ATOM     13  C   UNL     1      -4.268  -0.170  24.469  0.00  0.00    +0.156 C 
BRANCH  13  14
ATOM      6  N   UNL     1      -3.874   2.265  23.972  0.00  0.00    -0.336 N 
ATOM      7  N   UNL     1      -5.343   1.815  25.577  0.00  0.00    -0.239 NA
ATOM     14  C   UNL     1      -4.516   1.298  24.695  0.00  0.00    +0.123 A 
ATOM     16  C   UNL     1      -4.321   3.476  24.421  0.00  0.00    +0.106 A 
ATOM     17  C   UNL     1      -2.902   2.063  22.924  0.00  0.00    +0.150 C 
ATOM     18  C   UNL     1      -5.227   3.173  25.411  0.00  0.00    +0.130 A 
ENDBRANCH  13  14
ENDBRANCH   4  13
ENDBRANCH   8   4
BRANCH  10  12
ATOM     12  C   UNL     1       0.392  -0.334  23.143  0.00  0.00    +0.138 C 
BRANCH  12   5
ATOM      3  O   UNL     1       2.513  -0.169  21.169  0.00  0.00    -0.276 OA
ATOM      5  N   UNL     1       1.717   0.180  23.330  0.00  0.00    -0.313 N 
ATOM     15  C   UNL     1       2.675   0.220  22.322  0.00  0.00    +0.210 C 
ATOM     19  C   UNL     1       3.971   0.831  22.781  0.00  0.00    +0.109 C 
ATOM     22  H   UNL     1       1.962   0.528  24.252  0.00  0.00    +0.149 HD
ENDBRANCH  12   5
ENDBRANCH  10  12
TORSDOF 6
ENDMDL
MODEL 4
REMARK VINA RESULT:      -5.4      1.967      4.666
REMARK  Name = 75536510
REMARK  8 active torsions:
REMARK  status: ('A' for Active; 'I' for Inactive)
REMARK    1  A    between atoms: O_2  and  C_9
REMARK    2  A    between atoms: N_4  and  C_8
REMARK    3  A    between atoms: N_4  and  C_13
REMARK    4  A    between atoms: N_5  and  C_12
REMARK    5  A    between atoms: N_6  and  C_17
REMARK    6  A    between atoms: C_10  and  C_12
REMARK    7  A    between atoms: C_13  and  C_14
REMARK    8  A    between atoms: C_15  and  C_19
REMARK                            x       y       z     vdW  Elec       q    Type
REMARK                         _______ _______ _______ _____ _____    ______ ____
ROOT
ATOM      1  O   UNL     1      -0.882   0.563  23.243  0.00  0.00    -0.371 OA
ATOM      8  C   UNL     1      -1.176   2.609  24.411  0.00  0.00    +0.111 C 
ATOM      9  C   UNL     1      -1.002   1.487  25.417  0.00  0.00    +0.164 C 
ATOM     10  C   UNL     1      -0.322   0.428  24.560  0.00  0.00    +0.165 C 
ATOM     11  C   UNL     1      -1.546   1.835  23.157  0.00  0.00    +0.181 C 
ENDROOT
BRANCH   9   2
ATOM      2  O   UNL     1      -0.205   1.863  26.523  0.00  0.00    -0.388 OA
ATOM     21  H   UNL     1      -0.311   2.820  26.665  0.00  0.00    +0.210 HD
ENDBRANCH   9   2
BRANCH   8   4
ATOM      4  N   UNL     1      -2.185   3.585  24.793  0.00  0.00    -0.302 NA
ATOM     20  H   UNL     1      -1.806   4.524  24.669  0.00  0.00    +0.123 HD
BRANCH   4  13
ATOM     13  C   UNL     1      -3.384   3.447  23.976  0.00  0.00    +0.156 C 
BRANCH  13  14
ATOM      6  N   UNL     1      -5.445   3.190  25.395  0.00  0.00    -0.336 N 
ATOM      7  N   UNL     1      -4.526   1.311  24.648  0.00  0.00    -0.239 NA
ATOM     14  C   UNL     1      -4.440   2.623  24.663  0.00  0.00    +0.123 A 
ATOM     16  C   UNL     1      -6.224   2.176  25.878  0.00  0.00    +0.106 A 
ATOM     17  C   UNL     1      -5.662   4.599  25.626  0.00  0.00    +0.150 C 
ATOM     18  C   UNL     1      -5.636   1.025  25.404  0.00  0.00    +0.130 A 
ENDBRANCH  13  14
ENDBRANCH   4  13
ENDBRANCH   8   4
BRANCH  10  12
ATOM     12  C   UNL     1      -0.539  -0.987  25.068  0.00  0.00    +0.138 C 
BRANCH  12   5
ATOM      3  O   UNL     1      -3.205  -1.375  26.150  0.00  0.00    -0.276 OA
ATOM      5  N   UNL     1      -1.659  -1.607  24.423  0.00  0.00    -0.313 N 
ATOM     15  C   UNL     1      -2.907  -1.751  25.020  0.00  0.00    +0.210 C 
ATOM     19  C   UNL     1      -3.909  -2.413  24.113  0.00  0.00    +0.109 C 
ATOM     22  H   UNL     1      -1.524  -1.960  23.480  0.00  0.00    +0.149 HD
ENDBRANCH  12   5
ENDBRANCH  10  12
TORSDOF 6
ENDMDL
MODEL 5
REMARK VINA RESULT:      -5.2      3.157      6.299
REMARK  Name = 75536510
REMARK  8 active torsions:
REMARK  status: ('A' for Active; 'I' for Inactive)
REMARK    1  A    between atoms: O_2  and  C_9
REMARK    2  A    between atoms: N_4  and  C_8
REMARK    3  A    between atoms: N_4  and  C_13
REMARK    4  A    between atoms: N_5  and  C_12
REMARK    5  A    between atoms: N_6  and  C_17
REMARK    6  A    between atoms: C_10  and  C_12
REMARK    7  A    between atoms: C_13  and  C_14
REMARK    8  A    between atoms: C_15  and  C_19
REMARK                            x       y       z     vdW  Elec       q    Type
REMARK                         _______ _______ _______ _____ _____    ______ ____
ROOT
ATOM      1  O   UNL     1       0.564   1.847  23.625  0.00  0.00    -0.371 OA
ATOM      8  C   UNL     1      -1.076   0.633  24.841  0.00  0.00    +0.111 C 
ATOM      9  C   UNL     1      -0.148  -0.348  24.149  0.00  0.00    +0.164 C 
ATOM     10  C   UNL     1       1.071   0.529  23.899  0.00  0.00    +0.165 C 
ATOM     11  C   UNL     1      -0.806   1.907  24.058  0.00  0.00    +0.181 C 
ENDROOT
BRANCH   9   2
ATOM      2  O   UNL     1       0.163  -1.467  24.954  0.00  0.00    -0.388 OA
ATOM     21  H   UNL     1       0.255  -1.165  25.875  0.00  0.00    +0.210 HD
ENDBRANCH   9   2
BRANCH   8   4
ATOM      4  N   UNL     1      -2.475   0.235  24.810  0.00  0.00    -0.302 NA
ATOM     20  H   UNL     1      -2.858   0.288  25.754  0.00  0.00    +0.123 HD
BRANCH   4  13
ATOM     13  C   UNL     1      -3.249   1.108  23.936  0.00  0.00    +0.156 C 
BRANCH  13  14
ATOM      6  N   UNL     1      -4.320   3.112  25.014  0.00  0.00    -0.336 N 
ATOM      7  N   UNL     1      -5.490   1.225  25.069  0.00  0.00    -0.239 NA
ATOM     14  C   UNL     1      -4.371   1.789  24.674  0.00  0.00    +0.123 A 
ATOM     16  C   UNL     1      -5.483   3.412  25.667  0.00  0.00    +0.106 A 
ATOM     17  C   UNL     1      -3.247   4.039  24.741  0.00  0.00    +0.150 C 
ATOM     18  C   UNL     1      -6.189   2.231  25.689  0.00  0.00    +0.130 A 
ENDBRANCH  13  14
ENDBRANCH   4  13
ENDBRANCH   8   4
BRANCH  10  12
ATOM     12  C   UNL     1       1.923   0.055  22.734  0.00  0.00    +0.138 C 
BRANCH  12   5
ATOM      3  O   UNL     1       4.068  -1.579  23.809  0.00  0.00    -0.276 OA
ATOM      5  N   UNL     1       3.298   0.426  22.908  0.00  0.00    -0.313 N 
ATOM     15  C   UNL     1       4.262  -0.426  23.434  0.00  0.00    +0.210 C 
ATOM     19  C   UNL     1       5.627   0.206  23.483  0.00  0.00    +0.109 C 
ATOM     22  H   UNL     1       3.571   1.365  22.632  0.00  0.00    +0.149 HD
ENDBRANCH  12   5
ENDBRANCH  10  12
TORSDOF 6
ENDMDL
MODEL 6
REMARK VINA RESULT:      -4.9      1.750      4.391
REMARK  Name = 75536510
REMARK  8 active torsions:
REMARK  status: ('A' for Active; 'I' for Inactive)
REMARK    1  A    between atoms: O_2  and  C_9
REMARK    2  A    between atoms: N_4  and  C_8
REMARK    3  A    between atoms: N_4  and  C_13
REMARK    4  A    between atoms: N_5  and  C_12
REMARK    5  A    between atoms: N_6  and  C_17
REMARK    6  A    between atoms: C_10  and  C_12
REMARK    7  A    between atoms: C_13  and  C_14
REMARK    8  A    between atoms: C_15  and  C_19
REMARK                            x       y       z     vdW  Elec       q    Type
REMARK                         _______ _______ _______ _____ _____    ______ ____
ROOT
ATOM      1  O   UNL     1      -1.242   1.975  22.920  0.00  0.00    -0.371 OA
ATOM      8  C   UNL     1      -3.332   2.468  23.933  0.00  0.00    +0.111 C 
ATOM      9  C   UNL     1      -2.256   2.457  25.002  0.00  0.00    +0.164 C 
ATOM     10  C   UNL     1      -1.005   2.663  24.160  0.00  0.00    +0.165 C 
ATOM     11  C   UNL     1      -2.650   1.705  22.810  0.00  0.00    +0.181 C 
ENDROOT
BRANCH   9   2
ATOM      2  O   UNL     1      -2.424   3.485  25.958  0.00  0.00    -0.388 OA
ATOM     21  H   UNL     1      -2.393   4.340  25.496  0.00  0.00    +0.210 HD
ENDBRANCH   9   2
BRANCH   8   4
ATOM      4  N   UNL     1      -4.582   1.856  24.355  0.00  0.00    -0.302 NA
ATOM     20  H   UNL     1      -5.011   1.387  23.557  0.00  0.00    +0.123 HD
BRANCH   4  13
ATOM     13  C   UNL     1      -4.356   0.878  25.413  0.00  0.00    +0.156 C 
BRANCH  13  14
ATOM      6  N   UNL     1      -2.894  -1.158  25.204  0.00  0.00    -0.336 N 
ATOM      7  N   UNL     1      -4.765  -1.166  24.008  0.00  0.00    -0.239 NA
ATOM     14  C   UNL     1      -4.031  -0.483  24.858  0.00  0.00    +0.123 A 
ATOM     16  C   UNL     1      -2.903  -2.348  24.532  0.00  0.00    +0.106 A 
ATOM     17  C   UNL     1      -1.862  -0.713  26.111  0.00  0.00    +0.150 C 
ATOM     18  C   UNL     1      -4.068  -2.330  23.800  0.00  0.00    +0.130 A 
ENDBRANCH  13  14
ENDBRANCH   4  13
ENDBRANCH   8   4
BRANCH  10  12
ATOM     12  C   UNL     1       0.256   2.122  24.814  0.00  0.00    +0.138 C 
BRANCH  12   5
ATOM      3  O   UNL     1       0.405  -0.573  23.746  0.00  0.00    -0.276 OA
ATOM      5  N   UNL     1       1.178   1.623  23.836  0.00  0.00    -0.313 N 
ATOM     15  C   UNL     1       1.177   0.309  23.379  0.00  0.00    +0.210 C 
ATOM     19  C   UNL     1       2.233   0.059  22.336  0.00  0.00    +0.109 C 
ATOM     22  H   UNL     1       1.867   2.270  23.464  0.00  0.00    +0.149 HD
ENDBRANCH  12   5
ENDBRANCH  10  12
TORSDOF 6
ENDMDL
MODEL 7
REMARK VINA RESULT:      -4.8      1.969      4.253
REMARK  Name = 75536510
REMARK  8 active torsions:
REMARK  status: ('A' for Active; 'I' for Inactive)
REMARK    1  A    between atoms: O_2  and  C_9
REMARK    2  A    between atoms: N_4  and  C_8
REMARK    3  A    between atoms: N_4  and  C_13
REMARK    4  A    between atoms: N_5  and  C_12
REMARK    5  A    between atoms: N_6  and  C_17
REMARK    6  A    between atoms: C_10  and  C_12
REMARK    7  A    between atoms: C_13  and  C_14
REMARK    8  A    between atoms: C_15  and  C_19
REMARK                            x       y       z     vdW  Elec       q    Type
REMARK                         _______ _______ _______ _____ _____    ______ ____
ROOT
ATOM      1  O   UNL     1      -2.970  -2.266  24.274  0.00  0.00    -0.371 OA
ATOM      8  C   UNL     1      -0.828  -1.523  24.980  0.00  0.00    +0.111 C 
ATOM      9  C   UNL     1      -1.871  -0.519  25.430  0.00  0.00    +0.164 C 
ATOM     10  C   UNL     1      -3.134  -1.369  25.385  0.00  0.00    +0.165 C 
ATOM     11  C   UNL     1      -1.582  -2.278  23.897  0.00  0.00    +0.181 C 
ENDROOT
BRANCH   9   2
ATOM      2  O   UNL     1      -1.621  -0.015  26.727  0.00  0.00    -0.388 OA
ATOM     21  H   UNL     1      -1.073  -0.661  27.206  0.00  0.00    +0.210 HD
ENDBRANCH   9   2
BRANCH   8   4
ATOM      4  N   UNL     1       0.399  -0.912  24.493  0.00  0.00    -0.302 NA
ATOM     20  H   UNL     1       0.978  -1.629  24.053  0.00  0.00    +0.123 HD
BRANCH   4  13
ATOM     13  C   UNL     1       0.114   0.131  23.515  0.00  0.00    +0.156 C 
BRANCH  13  14
ATOM      6  N   UNL     1      -1.220   2.248  23.773  0.00  0.00    -0.336 N 
ATOM      7  N   UNL     1       0.482   1.983  25.175  0.00  0.00    -0.239 NA
ATOM     14  C   UNL     1      -0.185   1.451  24.174  0.00  0.00    +0.123 A 
ATOM     16  C   UNL     1      -1.214   3.359  24.568  0.00  0.00    +0.106 A 
ATOM     17  C   UNL     1      -2.159   1.981  22.708  0.00  0.00    +0.150 C 
ATOM     18  C   UNL     1      -0.154   3.173  25.425  0.00  0.00    +0.130 A 
ENDBRANCH  13  14
ENDBRANCH   4  13
ENDBRANCH   8   4
BRANCH  10  12
ATOM     12  C   UNL     1      -4.402  -0.552  25.202  0.00  0.00    +0.138 C 
BRANCH  12   5
ATOM      3  O   UNL     1      -6.291   1.628  24.879  0.00  0.00    -0.276 OA
ATOM      5  N   UNL     1      -4.139   0.853  25.319  0.00  0.00    -0.313 N 
ATOM     15  C   UNL     1      -5.111   1.833  25.147  0.00  0.00    +0.210 C 
ATOM     19  C   UNL     1      -4.572   3.223  25.351  0.00  0.00    +0.109 C 
ATOM     22  H   UNL     1      -3.189   1.138  25.537  0.00  0.00    +0.149 HD
ENDBRANCH  12   5
ENDBRANCH  10  12
TORSDOF 6
ENDMDL
MODEL 8
REMARK VINA RESULT:      -4.6      3.007      5.670
REMARK  Name = 75536510
REMARK  8 active torsions:
REMARK  status: ('A' for Active; 'I' for Inactive)
REMARK    1  A    between atoms: O_2  and  C_9
REMARK    2  A    between atoms: N_4  and  C_8
REMARK    3  A    between atoms: N_4  and  C_13
REMARK    4  A    between atoms: N_5  and  C_12
REMARK    5  A    between atoms: N_6  and  C_17
REMARK    6  A    between atoms: C_10  and  C_12
REMARK    7  A    between atoms: C_13  and  C_14
REMARK    8  A    between atoms: C_15  and  C_19
REMARK                            x       y       z     vdW  Elec       q    Type
REMARK                         _______ _______ _______ _____ _____    ______ ____
ROOT
ATOM      1  O   UNL     1      -0.047   3.600  23.686  0.00  0.00    -0.371 OA
ATOM      8  C   UNL     1      -1.188   3.847  25.754  0.00  0.00    +0.111 C 
ATOM      9  C   UNL     1      -0.681   2.422  25.637  0.00  0.00    +0.164 C 
ATOM     10  C   UNL     1       0.416   2.586  24.594  0.00  0.00    +0.165 C 
ATOM     11  C   UNL     1      -1.136   4.305  24.306  0.00  0.00    +0.181 C 
ENDROOT
BRANCH   9   2
ATOM      2  O   UNL     1      -0.177   1.919  26.858  0.00  0.00    -0.388 OA
ATOM     21  H   UNL     1      -0.061   0.957  26.768  0.00  0.00    +0.210 HD
ENDBRANCH   9   2
BRANCH   8   4
ATOM      4  N   UNL     1      -2.519   3.948  26.332  0.00  0.00    -0.302 NA
ATOM     20  H   UNL     1      -2.559   4.769  26.937  0.00  0.00    +0.123 HD
BRANCH   4  13
ATOM     13  C   UNL     1      -3.534   4.076  25.293  0.00  0.00    +0.156 C 
BRANCH  13  14
ATOM      6  N   UNL     1      -4.424   1.834  24.582  0.00  0.00    -0.336 N 
ATOM      7  N   UNL     1      -5.610   2.921  26.114  0.00  0.00    -0.239 NA
ATOM     14  C   UNL     1      -4.540   2.958  25.351  0.00  0.00    +0.123 A 
ATOM     16  C   UNL     1      -5.489   1.027  24.873  0.00  0.00    +0.106 A 
ATOM     17  C   UNL     1      -3.378   1.535  23.633  0.00  0.00    +0.150 C 
ATOM     18  C   UNL     1      -6.207   1.719  25.820  0.00  0.00    +0.130 A 
ENDBRANCH  13  14
ENDBRANCH   4  13
ENDBRANCH   8   4
BRANCH  10  12
ATOM     12  C   UNL     1       0.713   1.308  23.828  0.00  0.00    +0.138 C 
BRANCH  12   5
ATOM      3  O   UNL     1       1.979  -0.222  21.710  0.00  0.00    -0.276 OA
ATOM      5  N   UNL     1       2.118   1.165  23.577  0.00  0.00    -0.313 N 
ATOM     15  C   UNL     1       2.638   0.408  22.533  0.00  0.00    +0.210 C 
ATOM     19  C   UNL     1       4.142   0.449  22.482  0.00  0.00    +0.109 C 
ATOM     22  H   UNL     1       2.760   1.644  24.202  0.00  0.00    +0.149 HD
ENDBRANCH  12   5
ENDBRANCH  10  12
TORSDOF 6
ENDMDL
MODEL 9
REMARK VINA RESULT:      -4.1     13.994     16.240
REMARK  Name = 75536510
REMARK  8 active torsions:
REMARK  status: ('A' for Active; 'I' for Inactive)
REMARK    1  A    between atoms: O_2  and  C_9
REMARK    2  A    between atoms: N_4  and  C_8
REMARK    3  A    between atoms: N_4  and  C_13
REMARK    4  A    between atoms: N_5  and  C_12
REMARK    5  A    between atoms: N_6  and  C_17
REMARK    6  A    between atoms: C_10  and  C_12
REMARK    7  A    between atoms: C_13  and  C_14
REMARK    8  A    between atoms: C_15  and  C_19
REMARK                            x       y       z     vdW  Elec       q    Type
REMARK                         _______ _______ _______ _____ _____    ______ ____
ROOT
ATOM      1  O   UNL     1      -7.919 -10.713  15.581  0.00  0.00    -0.371 OA
ATOM      8  C   UNL     1      -5.793 -10.610  14.528  0.00  0.00    +0.111 C 
ATOM      9  C   UNL     1      -5.782  -9.713  15.751  0.00  0.00    +0.164 C 
ATOM     10  C   UNL     1      -6.943 -10.291  16.549  0.00  0.00    +0.165 C 
ATOM     11  C   UNL     1      -7.284 -10.780  14.292  0.00  0.00    +0.181 C 
ENDROOT
BRANCH   9   2
ATOM      2  O   UNL     1      -4.565  -9.780  16.467  0.00  0.00    -0.388 OA
ATOM     21  H   UNL     1      -3.907  -9.231  16.005  0.00  0.00    +0.210 HD
ENDBRANCH   9   2
BRANCH   8   4
ATOM      4  N   UNL     1      -5.100 -10.043  13.382  0.00  0.00    -0.302 NA
ATOM     20  H   UNL     1      -4.628 -10.791  12.873  0.00  0.00    +0.123 HD
BRANCH   4  13
ATOM     13  C   UNL     1      -6.032  -9.375  12.482  0.00  0.00    +0.156 C 
BRANCH  13  14
ATOM      6  N   UNL     1      -6.252  -8.983  10.007  0.00  0.00    -0.336 N 
ATOM      7  N   UNL     1      -4.191  -9.298  10.772  0.00  0.00    -0.239 NA
ATOM     14  C   UNL     1      -5.463  -9.223  11.096  0.00  0.00    +0.123 A 
ATOM     16  C   UNL     1      -5.432  -8.899   8.917  0.00  0.00    +0.106 A 
ATOM     17  C   UNL     1      -7.689  -8.840   9.991  0.00  0.00    +0.150 C 
ATOM     18  C   UNL     1      -4.165  -9.097   9.414  0.00  0.00    +0.130 A 
ENDBRANCH  13  14
ENDBRANCH   4  13
ENDBRANCH   8   4
BRANCH  10  12
ATOM     12  C   UNL     1      -7.569  -9.293  17.507  0.00  0.00    +0.138 C 
BRANCH  12   5
ATOM      3  O   UNL     1     -10.396  -8.797  17.946  0.00  0.00    -0.276 OA
ATOM      5  N   UNL     1      -8.408  -8.359  16.814  0.00  0.00    -0.313 N 
ATOM     15  C   UNL     1      -9.759  -8.186  17.092  0.00  0.00    +0.210 C 
ATOM     19  C   UNL     1     -10.395  -7.125  16.234  0.00  0.00    +0.109 C 
ATOM     22  H   UNL     1      -7.983  -7.799  16.080  0.00  0.00    +0.149 HD
ENDBRANCH  12   5
ENDBRANCH  10  12
TORSDOF 6
ENDMDL
MODEL 10
REMARK VINA RESULT:      -3.9     17.025     18.844
REMARK  Name = 75536510
REMARK  8 active torsions:
REMARK  status: ('A' for Active; 'I' for Inactive)
REMARK    1  A    between atoms: O_2  and  C_9
REMARK    2  A    between atoms: N_4  and  C_8
REMARK    3  A    between atoms: N_4  and  C_13
REMARK    4  A    between atoms: N_5  and  C_12
REMARK    5  A    between atoms: N_6  and  C_17
REMARK    6  A    between atoms: C_10  and  C_12
REMARK    7  A    between atoms: C_13  and  C_14
REMARK    8  A    between atoms: C_15  and  C_19
REMARK                            x       y       z     vdW  Elec       q    Type
REMARK                         _______ _______ _______ _____ _____    ______ ____
ROOT
ATOM      1  O   UNL     1      -5.900  -9.849  12.154  0.00  0.00    -0.371 OA
ATOM      8  C   UNL     1      -6.276  -9.034   9.955  0.00  0.00    +0.111 C 
ATOM      9  C   UNL     1      -4.877  -9.615  10.034  0.00  0.00    +0.164 C 
ATOM     10  C   UNL     1      -5.003 -10.520  11.252  0.00  0.00    +0.165 C 
ATOM     11  C   UNL     1      -6.599  -8.825  11.426  0.00  0.00    +0.181 C 
ENDROOT
BRANCH   9   2
ATOM      2  O   UNL     1      -4.520 -10.339   8.873  0.00  0.00    -0.388 OA
ATOM     21  H   UNL     1      -4.929 -11.220   8.924  0.00  0.00    +0.210 HD
ENDBRANCH   9   2
BRANCH   8   4
ATOM      4  N   UNL     1      -6.357  -7.807   9.178  0.00  0.00    -0.302 NA
ATOM     20  H   UNL     1      -5.468  -7.656   8.700  0.00  0.00    +0.123 HD
BRANCH   4  13
ATOM     13  C   UNL     1      -7.420  -7.884   8.185  0.00  0.00    +0.156 C 
BRANCH  13  14
ATOM      6  N   UNL     1      -9.678  -7.201   9.060  0.00  0.00    -0.336 N 
ATOM      7  N   UNL     1      -8.460  -5.596   8.124  0.00  0.00    -0.239 NA
ATOM     14  C   UNL     1      -8.503  -6.870   8.443  0.00  0.00    +0.123 A 
ATOM     16  C   UNL     1     -10.432  -6.064   9.139  0.00  0.00    +0.106 A 
ATOM     17  C   UNL     1     -10.067  -8.504   9.546  0.00  0.00    +0.150 C 
ATOM     18  C   UNL     1      -9.660  -5.087   8.555  0.00  0.00    +0.130 A 
ENDBRANCH  13  14
ENDBRANCH   4  13
ENDBRANCH   8   4
BRANCH  10  12
ATOM     12  C   UNL     1      -3.678 -10.781  11.946  0.00  0.00    +0.138 C 
BRANCH  12   5
ATOM      3  O   UNL     1      -1.253  -9.794  13.201  0.00  0.00    -0.276 OA
ATOM      5  N   UNL     1      -2.610 -10.052  11.325  0.00  0.00    -0.313 N 
ATOM     15  C   UNL     1      -1.479  -9.616  12.007  0.00  0.00    +0.210 C 
ATOM     19  C   UNL     1      -0.505  -8.898  11.112  0.00  0.00    +0.109 C 
ATOM     22  H   UNL     1      -2.695  -9.845  10.334  0.00  0.00    +0.149 HD
ENDBRANCH  12   5
ENDBRANCH  10  12
TORSDOF 6
ENDMDL
