MODEL 1
REMARK VINA RESULT:       2.0      0.000      0.000
REMARK  Name = 45360924
REMARK  10 active torsions:
REMARK  status: ('A' for Active; 'I' for Inactive)
REMARK    1  A    between atoms: O_4  and  C_29
REMARK    2  A    between atoms: N_6  and  C_17
REMARK    3  A    between atoms: N_7  and  C_19
REMARK    4  A    between atoms: N_9  and  C_28
REMARK    5  A    between atoms: C_14  and  C_18
REMARK    6  A    between atoms: C_17  and  C_21
REMARK    7  A    between atoms: C_18  and  C_20
REMARK    8  A    between atoms: C_20  and  C_22
REMARK    9  A    between atoms: C_27  and  C_29
REMARK   10  A    between atoms: C_28  and  C_30
REMARK                            x       y       z     vdW  Elec       q    Type
REMARK                         _______ _______ _______ _____ _____    ______ ____
ROOT
ATOM      2  O   UNL     1      -1.101   1.990  23.620  0.00  0.00    -0.274 OA
ATOM      6  N   UNL     1       0.050  -0.442  23.857  0.00  0.00    -0.286 NA
ATOM      7  N   UNL     1      -3.171  -0.627  25.584  0.00  0.00    -0.296 NA
ATOM      8  N   UNL     1      -3.223   1.182  23.337  0.00  0.00    -0.312 N 
ATOM     10  C   UNL     1      -2.019  -1.214  24.863  0.00  0.00    +0.084 C 
ATOM     11  C   UNL     1      -1.412  -0.424  23.667  0.00  0.00    +0.161 C 
ATOM     12  C   UNL     1      -0.783  -1.453  25.750  0.00  0.00    +0.036 C 
ATOM     13  C   UNL     1       0.352  -1.553  24.753  0.00  0.00    +0.087 C 
ATOM     14  C   UNL     1      -4.400  -0.471  24.758  0.00  0.00    +0.074 C 
ATOM     15  C   UNL     1      -1.867   1.029  23.556  0.00  0.00    +0.232 C 
ATOM     16  C   UNL     1      -4.163   0.077  23.337  0.00  0.00    +0.123 C 
ATOM     19  C   UNL     1      -3.471  -1.394  26.805  0.00  0.00    +0.105 C 
ATOM     36  H   UNL     1      -3.587   2.123  23.232  0.00  0.00    +0.149 HD
ENDROOT
BRANCH   6  17
ATOM     17  C   UNL     1       0.794  -0.528  22.607  0.00  0.00    +0.120 C 
BRANCH  17  21
ATOM     21  C   UNL     1       2.273  -0.348  22.820  0.00  0.00    -0.033 A 
ATOM     23  C   UNL     1       3.025  -1.376  23.391  0.00  0.00    +0.006 A 
ATOM     24  C   UNL     1       2.893   0.843  22.445  0.00  0.00    +0.006 A 
ATOM     25  C   UNL     1       4.395  -1.210  23.589  0.00  0.00    +0.015 A 
ATOM     26  C   UNL     1       4.263   1.010  22.643  0.00  0.00    +0.015 A 
ATOM     27  C   UNL     1       5.015  -0.018  23.214  0.00  0.00    +0.059 A 
BRANCH  27  29
ATOM      5  O   UNL     1       7.333  -0.447  22.806  0.00  0.00    -0.245 OA
ATOM     29  C   UNL     1       6.444   0.156  23.418  0.00  0.00    +0.337 C 
BRANCH  29   4
ATOM      4  O   UNL     1       6.725   1.078  24.379  0.00  0.00    -0.477 OA
ATOM     38  H   UNL     1       6.129   0.992  25.153  0.00  0.00    +0.295 HD
ENDBRANCH  29   4
ENDBRANCH  27  29
ENDBRANCH  17  21
ENDBRANCH   6  17
BRANCH  14  18
ATOM     18  C   UNL     1      -5.404   0.470  25.457  0.00  0.00    +0.029 C 
BRANCH  18  20
ATOM     20  C   UNL     1      -5.778   1.627  24.548  0.00  0.00    +0.097 C 
BRANCH  20  22
ATOM      3  O   UNL     1      -4.668   3.726  24.071  0.00  0.00    -0.276 OA
ATOM      9  N   UNL     1      -4.744   2.960  26.261  0.00  0.00    -0.311 N 
ATOM     22  C   UNL     1      -5.008   2.887  24.901  0.00  0.00    +0.213 C 
ATOM     37  H   UNL     1      -5.038   2.208  26.878  0.00  0.00    +0.149 HD
BRANCH   9  28
ATOM     28  C   UNL     1      -4.023   4.064  26.849  0.00  0.00    +0.139 C 
BRANCH  28  30
ATOM      1  F   UNL     1       0.716   5.213  24.025  0.00  0.00    -0.205 F 
ATOM     30  C   UNL     1      -2.758   4.372  26.094  0.00  0.00    -0.030 A 
ATOM     31  C   UNL     1      -1.684   3.483  26.142  0.00  0.00    +0.008 A 
ATOM     32  C   UNL     1      -2.657   5.547  25.348  0.00  0.00    +0.008 A 
ATOM     33  C   UNL     1      -0.511   3.766  25.443  0.00  0.00    +0.038 A 
ATOM     34  C   UNL     1      -1.484   5.831  24.650  0.00  0.00    +0.038 A 
ATOM     35  C   UNL     1      -0.411   4.941  24.697  0.00  0.00    +0.123 A 
ENDBRANCH  28  30
ENDBRANCH   9  28
ENDBRANCH  20  22
ENDBRANCH  18  20
ENDBRANCH  14  18
TORSDOF 9
ENDMDL
MODEL 2
REMARK VINA RESULT:       2.3      2.532      3.199
REMARK  Name = 45360924
REMARK  10 active torsions:
REMARK  status: ('A' for Active; 'I' for Inactive)
REMARK    1  A    between atoms: O_4  and  C_29
REMARK    2  A    between atoms: N_6  and  C_17
REMARK    3  A    between atoms: N_7  and  C_19
REMARK    4  A    between atoms: N_9  and  C_28
REMARK    5  A    between atoms: C_14  and  C_18
REMARK    6  A    between atoms: C_17  and  C_21
REMARK    7  A    between atoms: C_18  and  C_20
REMARK    8  A    between atoms: C_20  and  C_22
REMARK    9  A    between atoms: C_27  and  C_29
REMARK   10  A    between atoms: C_28  and  C_30
REMARK                            x       y       z     vdW  Elec       q    Type
REMARK                         _______ _______ _______ _____ _____    ______ ____
ROOT
ATOM      2  O   UNL     1       0.254   2.130  23.947  0.00  0.00    -0.274 OA
ATOM      6  N   UNL     1      -0.404  -0.485  23.781  0.00  0.00    -0.286 NA
ATOM      7  N   UNL     1      -3.402   1.287  24.904  0.00  0.00    -0.296 NA
ATOM      8  N   UNL     1      -1.756   2.892  23.162  0.00  0.00    -0.312 N 
ATOM     10  C   UNL     1      -2.695   0.163  24.251  0.00  0.00    +0.084 C 
ATOM     11  C   UNL     1      -1.444   0.480  23.379  0.00  0.00    +0.161 C 
ATOM     12  C   UNL     1      -2.143  -0.885  25.235  0.00  0.00    +0.036 C 
ATOM     13  C   UNL     1      -1.083  -1.603  24.428  0.00  0.00    +0.087 C 
ATOM     14  C   UNL     1      -4.014   2.262  23.960  0.00  0.00    +0.074 C 
ATOM     15  C   UNL     1      -0.884   1.891  23.544  0.00  0.00    +0.232 C 
ATOM     16  C   UNL     1      -3.128   2.649  22.760  0.00  0.00    +0.123 C 
ATOM     19  C   UNL     1      -4.415   0.790  25.852  0.00  0.00    +0.105 C 
ATOM     36  H   UNL     1      -1.436   3.854  23.225  0.00  0.00    +0.149 HD
ENDROOT
BRANCH   6  17
ATOM     17  C   UNL     1       0.437  -0.921  22.674  0.00  0.00    +0.120 C 
BRANCH  17  21
ATOM     21  C   UNL     1       1.891  -0.616  22.920  0.00  0.00    -0.033 A 
ATOM     23  C   UNL     1       2.693  -1.542  23.589  0.00  0.00    +0.006 A 
ATOM     24  C   UNL     1       2.436   0.588  22.477  0.00  0.00    +0.006 A 
ATOM     25  C   UNL     1       4.040  -1.259  23.817  0.00  0.00    +0.015 A 
ATOM     26  C   UNL     1       3.782   0.871  22.705  0.00  0.00    +0.015 A 
ATOM     27  C   UNL     1       4.585  -0.054  23.374  0.00  0.00    +0.059 A 
BRANCH  27  29
ATOM      5  O   UNL     1       6.939  -0.269  23.005  0.00  0.00    -0.245 OA
ATOM     29  C   UNL     1       5.989   0.240  23.610  0.00  0.00    +0.337 C 
BRANCH  29   4
ATOM      4  O   UNL     1       6.171   1.162  24.595  0.00  0.00    -0.477 OA
ATOM     38  H   UNL     1       6.004   2.075  24.276  0.00  0.00    +0.295 HD
ENDBRANCH  29   4
ENDBRANCH  27  29
ENDBRANCH  17  21
ENDBRANCH   6  17
BRANCH  14  18
ATOM     18  C   UNL     1      -4.391   3.565  24.698  0.00  0.00    +0.029 C 
BRANCH  18  20
ATOM     20  C   UNL     1      -3.669   3.654  26.031  0.00  0.00    +0.097 C 
BRANCH  20  22
ATOM      3  O   UNL     1      -1.891   5.130  25.306  0.00  0.00    -0.276 OA
ATOM      9  N   UNL     1      -1.346   3.150  26.389  0.00  0.00    -0.311 N 
ATOM     22  C   UNL     1      -2.224   4.083  25.855  0.00  0.00    +0.213 C 
ATOM     37  H   UNL     1      -1.702   2.295  26.804  0.00  0.00    +0.149 HD
BRANCH   9  28
ATOM     28  C   UNL     1       0.087   3.327  26.347  0.00  0.00    +0.139 C 
BRANCH  28  30
ATOM      1  F   UNL     1       2.529   1.853  31.206  0.00  0.00    -0.205 F 
ATOM     30  C   UNL     1       0.738   2.933  27.645  0.00  0.00    -0.030 A 
ATOM     31  C   UNL     1       2.129   2.942  27.758  0.00  0.00    +0.008 A 
ATOM     32  C   UNL     1      -0.047   2.559  28.736  0.00  0.00    +0.008 A 
ATOM     33  C   UNL     1       2.735   2.577  28.961  0.00  0.00    +0.038 A 
ATOM     34  C   UNL     1       0.558   2.193  29.938  0.00  0.00    +0.038 A 
ATOM     35  C   UNL     1       1.948   2.203  30.051  0.00  0.00    +0.123 A 
ENDBRANCH  28  30
ENDBRANCH   9  28
ENDBRANCH  20  22
ENDBRANCH  18  20
ENDBRANCH  14  18
TORSDOF 9
ENDMDL
MODEL 3
REMARK VINA RESULT:       2.5      2.127      3.979
REMARK  Name = 45360924
REMARK  10 active torsions:
REMARK  status: ('A' for Active; 'I' for Inactive)
REMARK    1  A    between atoms: O_4  and  C_29
REMARK    2  A    between atoms: N_6  and  C_17
REMARK    3  A    between atoms: N_7  and  C_19
REMARK    4  A    between atoms: N_9  and  C_28
REMARK    5  A    between atoms: C_14  and  C_18
REMARK    6  A    between atoms: C_17  and  C_21
REMARK    7  A    between atoms: C_18  and  C_20
REMARK    8  A    between atoms: C_20  and  C_22
REMARK    9  A    between atoms: C_27  and  C_29
REMARK   10  A    between atoms: C_28  and  C_30
REMARK                            x       y       z     vdW  Elec       q    Type
REMARK                         _______ _______ _______ _____ _____    ______ ____
ROOT
ATOM      2  O   UNL     1      -1.715   2.311  21.414  0.00  0.00    -0.274 OA
ATOM      6  N   UNL     1       0.142   1.545  23.220  0.00  0.00    -0.286 NA
ATOM      7  N   UNL     1      -2.464   3.320  25.076  0.00  0.00    -0.296 NA
ATOM      8  N   UNL     1      -3.504   1.911  22.783  0.00  0.00    -0.312 N 
ATOM     10  C   UNL     1      -1.355   2.348  24.953  0.00  0.00    +0.084 C 
ATOM     11  C   UNL     1      -1.265   1.486  23.659  0.00  0.00    +0.161 C 
ATOM     12  C   UNL     1       0.045   2.988  25.011  0.00  0.00    +0.036 C 
ATOM     13  C   UNL     1       0.936   1.942  24.377  0.00  0.00    +0.087 C 
ATOM     14  C   UNL     1      -3.821   2.706  25.108  0.00  0.00    +0.074 C 
ATOM     15  C   UNL     1      -2.151   1.955  22.508  0.00  0.00    +0.232 C 
ATOM     16  C   UNL     1      -4.046   1.575  24.085  0.00  0.00    +0.123 C 
ATOM     19  C   UNL     1      -2.272   4.191  26.249  0.00  0.00    +0.105 C 
ATOM     36  H   UNL     1      -4.150   2.189  22.051  0.00  0.00    +0.149 HD
ENDROOT
BRANCH   6  17
ATOM     17  C   UNL     1       0.615   0.298  22.631  0.00  0.00    +0.120 C 
BRANCH  17  21
ATOM     21  C   UNL     1       2.080   0.075  22.891  0.00  0.00    -0.033 A 
ATOM     23  C   UNL     1       3.005   1.070  22.572  0.00  0.00    +0.006 A 
ATOM     24  C   UNL     1       2.514  -1.126  23.453  0.00  0.00    +0.006 A 
ATOM     25  C   UNL     1       4.362   0.863  22.814  0.00  0.00    +0.015 A 
ATOM     26  C   UNL     1       3.871  -1.333  23.695  0.00  0.00    +0.015 A 
ATOM     27  C   UNL     1       4.796  -0.338  23.376  0.00  0.00    +0.059 A 
BRANCH  27  29
ATOM      5  O   UNL     1       7.133  -0.219  22.876  0.00  0.00    -0.245 OA
ATOM     29  C   UNL     1       6.212  -0.554  23.629  0.00  0.00    +0.337 C 
BRANCH  29   4
ATOM      4  O   UNL     1       6.439  -1.182  24.815  0.00  0.00    -0.477 OA
ATOM     38  H   UNL     1       5.772  -0.938  25.492  0.00  0.00    +0.295 HD
ENDBRANCH  29   4
ENDBRANCH  27  29
ENDBRANCH  17  21
ENDBRANCH   6  17
BRANCH  14  18
ATOM     18  C   UNL     1      -4.904   3.777  24.860  0.00  0.00    +0.029 C 
BRANCH  18  20
ATOM     20  C   UNL     1      -6.258   3.295  25.351  0.00  0.00    +0.097 C 
BRANCH  20  22
ATOM      3  O   UNL     1      -6.644   2.008  27.366  0.00  0.00    -0.276 OA
ATOM      9  N   UNL     1      -5.352   1.091  25.669  0.00  0.00    -0.311 N 
ATOM     22  C   UNL     1      -6.125   2.083  26.256  0.00  0.00    +0.213 C 
ATOM     37  H   UNL     1      -4.936   1.243  24.756  0.00  0.00    +0.149 HD
BRANCH   9  28
ATOM     28  C   UNL     1      -5.077  -0.163  26.330  0.00  0.00    +0.139 C 
BRANCH  28  30
ATOM      1  F   UNL     1      -1.036  -3.079  23.700  0.00  0.00    -0.205 F 
ATOM     30  C   UNL     1      -3.998  -0.942  25.627  0.00  0.00    -0.030 A 
ATOM     31  C   UNL     1      -2.673  -0.838  26.052  0.00  0.00    +0.008 A 
ATOM     32  C   UNL     1      -4.322  -1.768  24.550  0.00  0.00    +0.008 A 
ATOM     33  C   UNL     1      -1.672  -1.560  25.401  0.00  0.00    +0.038 A 
ATOM     34  C   UNL     1      -3.322  -2.489  23.899  0.00  0.00    +0.038 A 
ATOM     35  C   UNL     1      -1.997  -2.385  24.324  0.00  0.00    +0.123 A 
ENDBRANCH  28  30
ENDBRANCH   9  28
ENDBRANCH  20  22
ENDBRANCH  18  20
ENDBRANCH  14  18
TORSDOF 9
ENDMDL
MODEL 4
REMARK VINA RESULT:       3.9      1.711      2.763
REMARK  Name = 45360924
REMARK  10 active torsions:
REMARK  status: ('A' for Active; 'I' for Inactive)
REMARK    1  A    between atoms: O_4  and  C_29
REMARK    2  A    between atoms: N_6  and  C_17
REMARK    3  A    between atoms: N_7  and  C_19
REMARK    4  A    between atoms: N_9  and  C_28
REMARK    5  A    between atoms: C_14  and  C_18
REMARK    6  A    between atoms: C_17  and  C_21
REMARK    7  A    between atoms: C_18  and  C_20
REMARK    8  A    between atoms: C_20  and  C_22
REMARK    9  A    between atoms: C_27  and  C_29
REMARK   10  A    between atoms: C_28  and  C_30
REMARK                            x       y       z     vdW  Elec       q    Type
REMARK                         _______ _______ _______ _____ _____    ______ ____
ROOT
ATOM      2  O   UNL     1      -1.907   1.150  22.449  0.00  0.00    -0.274 OA
ATOM      6  N   UNL     1       0.063   1.987  24.098  0.00  0.00    -0.286 NA
ATOM      7  N   UNL     1      -1.663  -0.743  25.818  0.00  0.00    -0.296 NA
ATOM      8  N   UNL     1      -1.659  -1.069  22.952  0.00  0.00    -0.312 N 
ATOM     10  C   UNL     1      -0.493   0.122  25.547  0.00  0.00    +0.084 C 
ATOM     11  C   UNL     1      -0.202   0.536  24.075  0.00  0.00    +0.161 C 
ATOM     12  C   UNL     1      -0.546   1.486  26.261  0.00  0.00    +0.036 C 
ATOM     13  C   UNL     1       0.424   2.335  25.468  0.00  0.00    +0.087 C 
ATOM     14  C   UNL     1      -1.583  -2.097  25.204  0.00  0.00    +0.074 C 
ATOM     15  C   UNL     1      -1.339   0.268  23.093  0.00  0.00    +0.232 C 
ATOM     16  C   UNL     1      -1.067  -2.123  23.752  0.00  0.00    +0.123 C 
ATOM     19  C   UNL     1      -1.909  -0.854  27.266  0.00  0.00    +0.105 C 
ATOM     36  H   UNL     1      -2.393  -1.318  22.295  0.00  0.00    +0.149 HD
ENDROOT
BRANCH   6  17
ATOM     17  C   UNL     1       1.079   2.404  23.140  0.00  0.00    +0.120 C 
BRANCH  17  21
ATOM     21  C   UNL     1       2.285   1.504  23.173  0.00  0.00    -0.033 A 
ATOM     23  C   UNL     1       3.566   2.054  23.126  0.00  0.00    +0.006 A 
ATOM     24  C   UNL     1       2.122   0.121  23.252  0.00  0.00    +0.006 A 
ATOM     25  C   UNL     1       4.684   1.221  23.157  0.00  0.00    +0.015 A 
ATOM     26  C   UNL     1       3.240  -0.712  23.283  0.00  0.00    +0.015 A 
ATOM     27  C   UNL     1       4.521  -0.162  23.237  0.00  0.00    +0.059 A 
BRANCH  27  29
ATOM      5  O   UNL     1       6.791  -0.767  22.783  0.00  0.00    -0.245 OA
ATOM     29  C   UNL     1       5.686  -1.032  23.270  0.00  0.00    +0.337 C 
BRANCH  29   4
ATOM      4  O   UNL     1       5.441  -2.207  23.911  0.00  0.00    -0.477 OA
ATOM     38  H   UNL     1       4.510  -2.495  23.803  0.00  0.00    +0.295 HD
ENDBRANCH  29   4
ENDBRANCH  27  29
ENDBRANCH  17  21
ENDBRANCH   6  17
BRANCH  14  18
ATOM     18  C   UNL     1      -2.969  -2.777  25.215  0.00  0.00    +0.029 C 
BRANCH  18  20
ATOM     20  C   UNL     1      -4.019  -1.846  25.795  0.00  0.00    +0.097 C 
BRANCH  20  22
ATOM      3  O   UNL     1      -4.436  -0.933  23.591  0.00  0.00    -0.276 OA
ATOM      9  N   UNL     1      -4.732   0.424  25.451  0.00  0.00    -0.311 N 
ATOM     22  C   UNL     1      -4.411  -0.762  24.807  0.00  0.00    +0.213 C 
ATOM     37  H   UNL     1      -4.660   0.490  26.462  0.00  0.00    +0.149 HD
BRANCH   9  28
ATOM     28  C   UNL     1      -5.137   1.608  24.730  0.00  0.00    +0.139 C 
BRANCH  28  30
ATOM      1  F   UNL     1      -1.406   5.793  25.298  0.00  0.00    -0.205 F 
ATOM     30  C   UNL     1      -4.141   2.726  24.883  0.00  0.00    -0.030 A 
ATOM     31  C   UNL     1      -3.534   3.278  23.754  0.00  0.00    +0.008 A 
ATOM     32  C   UNL     1      -3.822   3.210  26.152  0.00  0.00    +0.008 A 
ATOM     33  C   UNL     1      -2.611   4.314  23.893  0.00  0.00    +0.038 A 
ATOM     34  C   UNL     1      -2.899   4.245  26.292  0.00  0.00    +0.038 A 
ATOM     35  C   UNL     1      -2.293   4.797  25.163  0.00  0.00    +0.123 A 
ENDBRANCH  28  30
ENDBRANCH   9  28
ENDBRANCH  20  22
ENDBRANCH  18  20
ENDBRANCH  14  18
TORSDOF 9
ENDMDL
MODEL 5
REMARK VINA RESULT:       4.3      2.254      4.308
REMARK  Name = 45360924
REMARK  10 active torsions:
REMARK  status: ('A' for Active; 'I' for Inactive)
REMARK    1  A    between atoms: O_4  and  C_29
REMARK    2  A    between atoms: N_6  and  C_17
REMARK    3  A    between atoms: N_7  and  C_19
REMARK    4  A    between atoms: N_9  and  C_28
REMARK    5  A    between atoms: C_14  and  C_18
REMARK    6  A    between atoms: C_17  and  C_21
REMARK    7  A    between atoms: C_18  and  C_20
REMARK    8  A    between atoms: C_20  and  C_22
REMARK    9  A    between atoms: C_27  and  C_29
REMARK   10  A    between atoms: C_28  and  C_30
REMARK                            x       y       z     vdW  Elec       q    Type
REMARK                         _______ _______ _______ _____ _____    ______ ____
ROOT
ATOM      2  O   UNL     1      -1.391  -0.307  26.257  0.00  0.00    -0.274 OA
ATOM      6  N   UNL     1      -0.378  -0.706  23.785  0.00  0.00    -0.286 NA
ATOM      7  N   UNL     1      -1.389   2.806  23.954  0.00  0.00    -0.296 NA
ATOM      8  N   UNL     1      -0.501   1.786  26.503  0.00  0.00    -0.312 N 
ATOM     10  C   UNL     1      -0.585   1.684  23.421  0.00  0.00    +0.084 C 
ATOM     11  C   UNL     1      -0.082   0.595  24.413  0.00  0.00    +0.161 C 
ATOM     12  C   UNL     1      -1.318   0.839  22.361  0.00  0.00    +0.036 C 
ATOM     13  C   UNL     1      -0.548  -0.464  22.356  0.00  0.00    +0.087 C 
ATOM     14  C   UNL     1      -0.663   3.681  24.916  0.00  0.00    +0.074 C 
ATOM     15  C   UNL     1      -0.737   0.626  25.792  0.00  0.00    +0.232 C 
ATOM     16  C   UNL     1       0.196   2.933  25.954  0.00  0.00    +0.123 C 
ATOM     19  C   UNL     1      -1.957   3.612  22.860  0.00  0.00    +0.105 C 
ATOM     36  H   UNL     1      -0.890   1.862  27.438  0.00  0.00    +0.149 HD
ENDROOT
BRANCH   6  17
ATOM     17  C   UNL     1       0.635  -1.720  24.053  0.00  0.00    +0.120 C 
BRANCH  17  21
ATOM     21  C   UNL     1       2.027  -1.201  23.812  0.00  0.00    -0.033 A 
ATOM     23  C   UNL     1       3.130  -1.935  24.250  0.00  0.00    +0.006 A 
ATOM     24  C   UNL     1       2.214   0.012  23.150  0.00  0.00    +0.006 A 
ATOM     25  C   UNL     1       4.420  -1.454  24.027  0.00  0.00    +0.015 A 
ATOM     26  C   UNL     1       3.504   0.493  22.927  0.00  0.00    +0.015 A 
ATOM     27  C   UNL     1       4.607  -0.241  23.365  0.00  0.00    +0.059 A 
BRANCH  27  29
ATOM      5  O   UNL     1       6.779  -0.240  22.362  0.00  0.00    -0.245 OA
ATOM     29  C   UNL     1       5.952   0.261  23.131  0.00  0.00    +0.337 C 
BRANCH  29   4
ATOM      4  O   UNL     1       6.228   1.375  23.863  0.00  0.00    -0.477 OA
ATOM     38  H   UNL     1       6.301   2.174  23.298  0.00  0.00    +0.295 HD
ENDBRANCH  29   4
ENDBRANCH  27  29
ENDBRANCH  17  21
ENDBRANCH   6  17
BRANCH  14  18
ATOM     18  C   UNL     1      -1.657   4.572  25.691  0.00  0.00    +0.029 C 
BRANCH  18  20
ATOM     20  C   UNL     1      -3.030   4.531  25.046  0.00  0.00    +0.097 C 
BRANCH  20  22
ATOM      3  O   UNL     1      -4.416   3.765  26.879  0.00  0.00    -0.276 OA
ATOM      9  N   UNL     1      -4.201   2.431  24.990  0.00  0.00    -0.311 N 
ATOM     22  C   UNL     1      -3.954   3.560  25.759  0.00  0.00    +0.213 C 
ATOM     37  H   UNL     1      -3.757   2.327  24.083  0.00  0.00    +0.149 HD
BRANCH   9  28
ATOM     28  C   UNL     1      -5.050   1.357  25.448  0.00  0.00    +0.139 C 
BRANCH  28  30
ATOM      1  F   UNL     1      -2.963  -3.695  24.079  0.00  0.00    -0.205 F 
ATOM     30  C   UNL     1      -4.492   0.008  25.083  0.00  0.00    -0.030 A 
ATOM     31  C   UNL     1      -4.472  -0.401  23.749  0.00  0.00    +0.008 A 
ATOM     32  C   UNL     1      -3.997  -0.836  26.078  0.00  0.00    +0.008 A 
ATOM     33  C   UNL     1      -3.955  -1.651  23.409  0.00  0.00    +0.038 A 
ATOM     34  C   UNL     1      -3.481  -2.086  25.739  0.00  0.00    +0.038 A 
ATOM     35  C   UNL     1      -3.460  -2.494  24.405  0.00  0.00    +0.123 A 
ENDBRANCH  28  30
ENDBRANCH   9  28
ENDBRANCH  20  22
ENDBRANCH  18  20
ENDBRANCH  14  18
TORSDOF 9
ENDMDL
MODEL 6
REMARK VINA RESULT:       4.5      3.058      7.120
REMARK  Name = 45360924
REMARK  10 active torsions:
REMARK  status: ('A' for Active; 'I' for Inactive)
REMARK    1  A    between atoms: O_4  and  C_29
REMARK    2  A    between atoms: N_6  and  C_17
REMARK    3  A    between atoms: N_7  and  C_19
REMARK    4  A    between atoms: N_9  and  C_28
REMARK    5  A    between atoms: C_14  and  C_18
REMARK    6  A    between atoms: C_17  and  C_21
REMARK    7  A    between atoms: C_18  and  C_20
REMARK    8  A    between atoms: C_20  and  C_22
REMARK    9  A    between atoms: C_27  and  C_29
REMARK   10  A    between atoms: C_28  and  C_30
REMARK                            x       y       z     vdW  Elec       q    Type
REMARK                         _______ _______ _______ _____ _____    ______ ____
ROOT
ATOM      2  O   UNL     1       1.050   2.735  27.097  0.00  0.00    -0.274 OA
ATOM      6  N   UNL     1       0.269   3.832  24.756  0.00  0.00    -0.286 NA
ATOM      7  N   UNL     1       0.349   0.209  24.248  0.00  0.00    -0.296 NA
ATOM      8  N   UNL     1      -0.351   0.933  26.952  0.00  0.00    -0.312 N 
ATOM     10  C   UNL     1      -0.123   1.579  23.944  0.00  0.00    +0.084 C 
ATOM     11  C   UNL     1      -0.371   2.558  25.130  0.00  0.00    +0.161 C 
ATOM     12  C   UNL     1       0.842   2.389  23.057  0.00  0.00    +0.036 C 
ATOM     13  C   UNL     1       0.428   3.823  23.306  0.00  0.00    +0.087 C 
ATOM     14  C   UNL     1      -0.614  -0.612  25.034  0.00  0.00    +0.074 C 
ATOM     15  C   UNL     1       0.200   2.105  26.471  0.00  0.00    +0.232 C 
ATOM     16  C   UNL     1      -1.294   0.125  26.203  0.00  0.00    +0.123 C 
ATOM     19  C   UNL     1       0.735  -0.498  23.015  0.00  0.00    +0.105 C 
ATOM     36  H   UNL     1      -0.031   0.588  27.852  0.00  0.00    +0.149 HD
ENDROOT
BRANCH   6  17
ATOM     17  C   UNL     1      -0.462   5.004  25.220  0.00  0.00    +0.120 C 
BRANCH  17  21
ATOM     21  C   UNL     1      -1.921   4.705  25.438  0.00  0.00    -0.033 A 
ATOM     23  C   UNL     1      -2.314   3.877  26.489  0.00  0.00    +0.006 A 
ATOM     24  C   UNL     1      -2.881   5.258  24.590  0.00  0.00    +0.006 A 
ATOM     25  C   UNL     1      -3.666   3.600  26.691  0.00  0.00    +0.015 A 
ATOM     26  C   UNL     1      -4.233   4.981  24.791  0.00  0.00    +0.015 A 
ATOM     27  C   UNL     1      -4.625   4.152  25.843  0.00  0.00    +0.059 A 
BRANCH  27  29
ATOM      5  O   UNL     1      -6.492   2.804  26.493  0.00  0.00    -0.245 OA
ATOM     29  C   UNL     1      -6.035   3.865  26.053  0.00  0.00    +0.337 C 
BRANCH  29   4
ATOM      4  O   UNL     1      -6.837   4.910  25.709  0.00  0.00    -0.477 OA
ATOM     38  H   UNL     1      -6.395   5.518  25.080  0.00  0.00    +0.295 HD
ENDBRANCH  29   4
ENDBRANCH  27  29
ENDBRANCH  17  21
ENDBRANCH   6  17
BRANCH  14  18
ATOM     18  C   UNL     1       0.091  -1.857  25.617  0.00  0.00    +0.029 C 
BRANCH  18  20
ATOM     20  C   UNL     1      -0.775  -3.092  25.448  0.00  0.00    +0.097 C 
BRANCH  20  22
ATOM      3  O   UNL     1      -2.000  -3.221  23.362  0.00  0.00    -0.276 OA
ATOM      9  N   UNL     1      -2.945  -2.097  25.160  0.00  0.00    -0.311 N 
ATOM     22  C   UNL     1      -1.952  -2.828  24.525  0.00  0.00    +0.213 C 
ATOM     37  H   UNL     1      -2.815  -1.787  26.118  0.00  0.00    +0.149 HD
BRANCH   9  28
ATOM     28  C   UNL     1      -4.168  -1.716  24.494  0.00  0.00    +0.139 C 
BRANCH  28  30
ATOM      1  F   UNL     1      -3.867   3.497  22.375  0.00  0.00    -0.205 F 
ATOM     30  C   UNL     1      -4.089  -0.323  23.928  0.00  0.00    -0.030 A 
ATOM     31  C   UNL     1      -3.128  -0.016  22.964  0.00  0.00    +0.008 A 
ATOM     32  C   UNL     1      -4.974   0.661  24.368  0.00  0.00    +0.008 A 
ATOM     33  C   UNL     1      -3.053   1.273  22.439  0.00  0.00    +0.038 A 
ATOM     34  C   UNL     1      -4.898   1.951  23.844  0.00  0.00    +0.038 A 
ATOM     35  C   UNL     1      -3.938   2.257  22.880  0.00  0.00    +0.123 A 
ENDBRANCH  28  30
ENDBRANCH   9  28
ENDBRANCH  20  22
ENDBRANCH  18  20
ENDBRANCH  14  18
TORSDOF 9
ENDMDL
MODEL 7
REMARK VINA RESULT:       4.9      2.127      4.324
REMARK  Name = 45360924
REMARK  10 active torsions:
REMARK  status: ('A' for Active; 'I' for Inactive)
REMARK    1  A    between atoms: O_4  and  C_29
REMARK    2  A    between atoms: N_6  and  C_17
REMARK    3  A    between atoms: N_7  and  C_19
REMARK    4  A    between atoms: N_9  and  C_28
REMARK    5  A    between atoms: C_14  and  C_18
REMARK    6  A    between atoms: C_17  and  C_21
REMARK    7  A    between atoms: C_18  and  C_20
REMARK    8  A    between atoms: C_20  and  C_22
REMARK    9  A    between atoms: C_27  and  C_29
REMARK   10  A    between atoms: C_28  and  C_30
REMARK                            x       y       z     vdW  Elec       q    Type
REMARK                         _______ _______ _______ _____ _____    ______ ____
ROOT
ATOM      2  O   UNL     1      -1.799   0.292  23.234  0.00  0.00    -0.274 OA
ATOM      6  N   UNL     1       0.839   0.874  23.221  0.00  0.00    -0.286 NA
ATOM      7  N   UNL     1      -0.850   3.669  24.872  0.00  0.00    -0.296 NA
ATOM      8  N   UNL     1      -2.184   1.151  25.319  0.00  0.00    -0.312 N 
ATOM     10  C   UNL     1       0.319   2.803  24.598  0.00  0.00    +0.084 C 
ATOM     11  C   UNL     1       0.084   1.274  24.423  0.00  0.00    +0.161 C 
ATOM     12  C   UNL     1       1.072   3.162  23.304  0.00  0.00    +0.036 C 
ATOM     13  C   UNL     1       1.847   1.902  22.986  0.00  0.00    +0.087 C 
ATOM     14  C   UNL     1      -1.536   3.387  26.163  0.00  0.00    +0.074 C 
ATOM     15  C   UNL     1      -1.375   0.862  24.238  0.00  0.00    +0.232 C 
ATOM     16  C   UNL     1      -1.735   1.892  26.481  0.00  0.00    +0.123 C 
ATOM     19  C   UNL     1      -0.479   5.092  24.792  0.00  0.00    +0.105 C 
ATOM     36  H   UNL     1      -3.162   0.882  25.269  0.00  0.00    +0.149 HD
ENDROOT
BRANCH   6  17
ATOM     17  C   UNL     1       1.424  -0.457  23.323  0.00  0.00    +0.120 C 
BRANCH  17  21
ATOM     21  C   UNL     1       2.928  -0.414  23.266  0.00  0.00    -0.033 A 
ATOM     23  C   UNL     1       3.569   0.569  22.512  0.00  0.00    +0.006 A 
ATOM     24  C   UNL     1       3.680  -1.355  23.969  0.00  0.00    +0.006 A 
ATOM     25  C   UNL     1       4.962   0.608  22.459  0.00  0.00    +0.015 A 
ATOM     26  C   UNL     1       5.073  -1.316  23.916  0.00  0.00    +0.015 A 
ATOM     27  C   UNL     1       5.714  -0.333  23.161  0.00  0.00    +0.059 A 
BRANCH  27  29
ATOM      5  O   UNL     1       7.893   0.352  23.872  0.00  0.00    -0.245 OA
ATOM     29  C   UNL     1       7.167  -0.292  23.108  0.00  0.00    +0.337 C 
BRANCH  29   4
ATOM      4  O   UNL     1       7.674  -1.057  22.102  0.00  0.00    -0.477 OA
ATOM     38  H   UNL     1       7.150  -1.876  21.966  0.00  0.00    +0.295 HD
ENDBRANCH  29   4
ENDBRANCH  27  29
ENDBRANCH  17  21
ENDBRANCH   6  17
BRANCH  14  18
ATOM     18  C   UNL     1      -2.927   4.056  26.192  0.00  0.00    +0.029 C 
BRANCH  18  20
ATOM     20  C   UNL     1      -3.424   4.323  24.783  0.00  0.00    +0.097 C 
BRANCH  20  22
ATOM      3  O   UNL     1      -4.025   2.739  23.052  0.00  0.00    -0.276 OA
ATOM      9  N   UNL     1      -4.975   2.524  25.159  0.00  0.00    -0.311 N 
ATOM     22  C   UNL     1      -4.156   3.121  24.212  0.00  0.00    +0.213 C 
ATOM     37  H   UNL     1      -5.047   2.919  26.092  0.00  0.00    +0.149 HD
BRANCH   9  28
ATOM     28  C   UNL     1      -5.778   1.362  24.861  0.00  0.00    +0.139 C 
BRANCH  28  30
ATOM      1  F   UNL     1      -2.750  -3.386  25.048  0.00  0.00    -0.205 F 
ATOM     30  C   UNL     1      -4.969   0.094  24.912  0.00  0.00    -0.030 A 
ATOM     31  C   UNL     1      -4.868  -0.714  23.779  0.00  0.00    +0.008 A 
ATOM     32  C   UNL     1      -4.321  -0.275  26.091  0.00  0.00    +0.008 A 
ATOM     33  C   UNL     1      -4.119  -1.890  23.824  0.00  0.00    +0.038 A 
ATOM     34  C   UNL     1      -3.572  -1.450  26.137  0.00  0.00    +0.038 A 
ATOM     35  C   UNL     1      -3.471  -2.257  25.004  0.00  0.00    +0.123 A 
ENDBRANCH  28  30
ENDBRANCH   9  28
ENDBRANCH  20  22
ENDBRANCH  18  20
ENDBRANCH  14  18
TORSDOF 9
ENDMDL
