MODEL 1
REMARK VINA RESULT:      -5.2      0.000      0.000
REMARK  Name = 75536844
REMARK  5 active torsions:
REMARK  status: ('A' for Active; 'I' for Inactive)
REMARK    1  A    between atoms: O_2  and  C_7
REMARK    2  A    between atoms: O_3  and  C_10
REMARK    3  A    between atoms: N_5  and  C_6
REMARK    4  A    between atoms: C_8  and  C_10
REMARK    5  A    between atoms: C_11  and  C_12
REMARK                            x       y       z     vdW  Elec       q    Type
REMARK                         _______ _______ _______ _____ _____    ______ ____
ROOT
ATOM      1  O   UNL     1      -4.118   2.810  23.567  0.00  0.00    -0.370 OA
ATOM      6  C   UNL     1      -2.684   1.115  24.378  0.00  0.00    +0.130 C 
ATOM      7  C   UNL     1      -4.066   0.856  24.942  0.00  0.00    +0.168 C 
ATOM      8  C   UNL     1      -4.873   2.096  24.563  0.00  0.00    +0.174 C 
ATOM      9  C   UNL     1      -2.973   2.030  23.205  0.00  0.00    +0.185 C 
ENDROOT
BRANCH   6   5
ATOM      4  O   UNL     1       0.200   1.411  24.229  0.00  0.00    -0.276 OA
ATOM      5  N   UNL     1      -1.817   1.749  25.340  0.00  0.00    -0.308 N 
ATOM     11  C   UNL     1      -0.443   1.843  25.181  0.00  0.00    +0.210 C 
ATOM     12  C   UNL     1       0.217   2.575  26.320  0.00  0.00    +0.109 C 
ATOM     13  H   UNL     1      -2.236   2.110  26.193  0.00  0.00    +0.149 HD
ENDBRANCH   6   5
BRANCH   7   2
ATOM      2  O   UNL     1      -4.608  -0.281  24.267  0.00  0.00    -0.387 OA
ATOM     14  H   UNL     1      -5.287   0.044  23.652  0.00  0.00    +0.210 HD
ENDBRANCH   7   2
BRANCH   8  10
ATOM     10  C   UNL     1      -5.110   3.038  25.734  0.00  0.00    +0.190 C 
BRANCH  10   3
ATOM      3  O   UNL     1      -6.221   2.569  26.478  0.00  0.00    -0.392 OA
ATOM     15  H   UNL     1      -6.157   1.599  26.507  0.00  0.00    +0.210 HD
ENDBRANCH  10   3
ENDBRANCH   8  10
TORSDOF 4
ENDMDL
MODEL 2
REMARK VINA RESULT:      -5.2      1.720      4.065
REMARK  Name = 75536844
REMARK  5 active torsions:
REMARK  status: ('A' for Active; 'I' for Inactive)
REMARK    1  A    between atoms: O_2  and  C_7
REMARK    2  A    between atoms: O_3  and  C_10
REMARK    3  A    between atoms: N_5  and  C_6
REMARK    4  A    between atoms: C_8  and  C_10
REMARK    5  A    between atoms: C_11  and  C_12
REMARK                            x       y       z     vdW  Elec       q    Type
REMARK                         _______ _______ _______ _____ _____    ______ ____
ROOT
ATOM      1  O   UNL     1      -0.939   2.344  23.786  0.00  0.00    -0.370 OA
ATOM      6  C   UNL     1      -3.131   1.598  24.259  0.00  0.00    +0.130 C 
ATOM      7  C   UNL     1      -2.867   2.819  25.116  0.00  0.00    +0.168 C 
ATOM      8  C   UNL     1      -1.379   3.105  24.926  0.00  0.00    +0.174 C 
ATOM      9  C   UNL     1      -2.075   1.718  23.179  0.00  0.00    +0.185 C 
ENDROOT
BRANCH   6   5
ATOM      4  O   UNL     1      -4.352  -0.972  23.682  0.00  0.00    -0.276 OA
ATOM      5  N   UNL     1      -2.987   0.372  25.003  0.00  0.00    -0.308 N 
ATOM     11  C   UNL     1      -3.612  -0.813  24.648  0.00  0.00    +0.210 C 
ATOM     12  C   UNL     1      -3.271  -1.944  25.583  0.00  0.00    +0.109 C 
ATOM     13  H   UNL     1      -2.427   0.393  25.852  0.00  0.00    +0.149 HD
ENDBRANCH   6   5
BRANCH   7   2
ATOM      2  O   UNL     1      -3.626   3.903  24.579  0.00  0.00    -0.387 OA
ATOM     14  H   UNL     1      -4.350   4.087  25.202  0.00  0.00    +0.210 HD
ENDBRANCH   7   2
BRANCH   8  10
ATOM     10  C   UNL     1      -0.531   2.692  26.119  0.00  0.00    +0.190 C 
BRANCH  10   3
ATOM      3  O   UNL     1       0.597   1.974  25.648  0.00  0.00    -0.392 OA
ATOM     15  H   UNL     1       0.845   2.360  24.791  0.00  0.00    +0.210 HD
ENDBRANCH  10   3
ENDBRANCH   8  10
TORSDOF 4
ENDMDL
MODEL 3
REMARK VINA RESULT:      -5.1      1.798      4.353
REMARK  Name = 75536844
REMARK  5 active torsions:
REMARK  status: ('A' for Active; 'I' for Inactive)
REMARK    1  A    between atoms: O_2  and  C_7
REMARK    2  A    between atoms: O_3  and  C_10
REMARK    3  A    between atoms: N_5  and  C_6
REMARK    4  A    between atoms: C_8  and  C_10
REMARK    5  A    between atoms: C_11  and  C_12
REMARK                            x       y       z     vdW  Elec       q    Type
REMARK                         _______ _______ _______ _____ _____    ______ ____
ROOT
ATOM      1  O   UNL     1      -0.874   0.773  23.335  0.00  0.00    -0.370 OA
ATOM      6  C   UNL     1      -1.869   2.168  24.964  0.00  0.00    +0.130 C 
ATOM      7  C   UNL     1      -0.940   1.212  25.684  0.00  0.00    +0.168 C 
ATOM      8  C   UNL     1      -0.513   0.212  24.611  0.00  0.00    +0.174 C 
ATOM      9  C   UNL     1      -1.366   2.103  23.535  0.00  0.00    +0.185 C 
ENDROOT
BRANCH   6   5
ATOM      4  O   UNL     1      -4.229   3.842  24.727  0.00  0.00    -0.276 OA
ATOM      5  N   UNL     1      -3.247   1.757  25.056  0.00  0.00    -0.308 N 
ATOM     11  C   UNL     1      -4.313   2.634  24.929  0.00  0.00    +0.210 C 
ATOM     12  C   UNL     1      -5.644   1.939  25.043  0.00  0.00    +0.109 C 
ATOM     13  H   UNL     1      -3.440   0.781  25.264  0.00  0.00    +0.149 HD
ENDBRANCH   6   5
BRANCH   7   2
ATOM      2  O   UNL     1       0.202   1.953  26.116  0.00  0.00    -0.387 OA
ATOM     14  H   UNL     1       0.098   2.863  25.788  0.00  0.00    +0.210 HD
ENDBRANCH   7   2
BRANCH   8  10
ATOM     10  C   UNL     1      -1.204  -1.137  24.740  0.00  0.00    +0.190 C 
BRANCH  10   3
ATOM      3  O   UNL     1      -2.206  -1.042  25.737  0.00  0.00    -0.392 OA
ATOM     15  H   UNL     1      -2.350  -0.095  25.909  0.00  0.00    +0.210 HD
ENDBRANCH  10   3
ENDBRANCH   8  10
TORSDOF 4
ENDMDL
MODEL 4
REMARK VINA RESULT:      -5.0      2.003      2.822
REMARK  Name = 75536844
REMARK  5 active torsions:
REMARK  status: ('A' for Active; 'I' for Inactive)
REMARK    1  A    between atoms: O_2  and  C_7
REMARK    2  A    between atoms: O_3  and  C_10
REMARK    3  A    between atoms: N_5  and  C_6
REMARK    4  A    between atoms: C_8  and  C_10
REMARK    5  A    between atoms: C_11  and  C_12
REMARK                            x       y       z     vdW  Elec       q    Type
REMARK                         _______ _______ _______ _____ _____    ______ ____
ROOT
ATOM      1  O   UNL     1      -3.616   3.783  24.037  0.00  0.00    -0.370 OA
ATOM      6  C   UNL     1      -4.077   1.489  24.371  0.00  0.00    +0.130 C 
ATOM      7  C   UNL     1      -4.763   2.262  25.479  0.00  0.00    +0.168 C 
ATOM      8  C   UNL     1      -4.243   3.690  25.330  0.00  0.00    +0.174 C 
ATOM      9  C   UNL     1      -3.833   2.559  23.326  0.00  0.00    +0.185 C 
ENDROOT
BRANCH   6   5
ATOM      4  O   UNL     1      -3.697  -1.172  25.467  0.00  0.00    -0.276 OA
ATOM      5  N   UNL     1      -2.842   0.892  24.812  0.00  0.00    -0.308 N 
ATOM     11  C   UNL     1      -2.758  -0.394  25.324  0.00  0.00    +0.210 C 
ATOM     12  C   UNL     1      -1.347  -0.776  25.685  0.00  0.00    +0.109 C 
ATOM     13  H   UNL     1      -2.000   1.460  24.780  0.00  0.00    +0.149 HD
ENDBRANCH   6   5
BRANCH   7   2
ATOM      2  O   UNL     1      -6.168   2.244  25.220  0.00  0.00    -0.387 OA
ATOM     14  H   UNL     1      -6.410   1.329  24.998  0.00  0.00    +0.210 HD
ENDBRANCH   7   2
BRANCH   8  10
ATOM     10  C   UNL     1      -3.208   4.065  26.379  0.00  0.00    +0.190 C 
BRANCH  10   3
ATOM      3  O   UNL     1      -1.925   3.686  25.908  0.00  0.00    -0.392 OA
ATOM     15  H   UNL     1      -1.295   3.845  26.633  0.00  0.00    +0.210 HD
ENDBRANCH  10   3
ENDBRANCH   8  10
TORSDOF 4
ENDMDL
MODEL 5
REMARK VINA RESULT:      -4.9      2.011      4.796
REMARK  Name = 75536844
REMARK  5 active torsions:
REMARK  status: ('A' for Active; 'I' for Inactive)
REMARK    1  A    between atoms: O_2  and  C_7
REMARK    2  A    between atoms: O_3  and  C_10
REMARK    3  A    between atoms: N_5  and  C_6
REMARK    4  A    between atoms: C_8  and  C_10
REMARK    5  A    between atoms: C_11  and  C_12
REMARK                            x       y       z     vdW  Elec       q    Type
REMARK                         _______ _______ _______ _____ _____    ______ ____
ROOT
ATOM      1  O   UNL     1      -0.894   2.377  23.446  0.00  0.00    -0.370 OA
ATOM      6  C   UNL     1      -2.039   1.351  25.241  0.00  0.00    +0.130 C 
ATOM      7  C   UNL     1      -0.554   1.226  25.513  0.00  0.00    +0.168 C 
ATOM      8  C   UNL     1       0.112   1.703  24.224  0.00  0.00    +0.174 C 
ATOM      9  C   UNL     1      -2.095   2.471  24.221  0.00  0.00    +0.185 C 
ENDROOT
BRANCH   6   5
ATOM      4  O   UNL     1      -4.844   0.618  25.087  0.00  0.00    -0.276 OA
ATOM      5  N   UNL     1      -2.599   0.131  24.715  0.00  0.00    -0.308 N 
ATOM     11  C   UNL     1      -3.959  -0.131  24.683  0.00  0.00    +0.210 C 
ATOM     12  C   UNL     1      -4.272  -1.466  24.060  0.00  0.00    +0.109 C 
ATOM     13  H   UNL     1      -1.956  -0.585  24.388  0.00  0.00    +0.149 HD
ENDBRANCH   6   5
BRANCH   7   2
ATOM      2  O   UNL     1      -0.226   2.126  26.572  0.00  0.00    -0.387 OA
ATOM     14  H   UNL     1       0.417   1.675  27.147  0.00  0.00    +0.210 HD
ENDBRANCH   7   2
BRANCH   8  10
ATOM     10  C   UNL     1       0.670   0.567  23.380  0.00  0.00    +0.190 C 
BRANCH  10   3
ATOM      3  O   UNL     1       0.419  -0.660  24.046  0.00  0.00    -0.392 OA
ATOM     15  H   UNL     1       0.819  -0.592  24.931  0.00  0.00    +0.210 HD
ENDBRANCH  10   3
ENDBRANCH   8  10
TORSDOF 4
ENDMDL
MODEL 6
REMARK VINA RESULT:      -4.9      1.847      2.769
REMARK  Name = 75536844
REMARK  5 active torsions:
REMARK  status: ('A' for Active; 'I' for Inactive)
REMARK    1  A    between atoms: O_2  and  C_7
REMARK    2  A    between atoms: O_3  and  C_10
REMARK    3  A    between atoms: N_5  and  C_6
REMARK    4  A    between atoms: C_8  and  C_10
REMARK    5  A    between atoms: C_11  and  C_12
REMARK                            x       y       z     vdW  Elec       q    Type
REMARK                         _______ _______ _______ _____ _____    ______ ____
ROOT
ATOM      1  O   UNL     1      -3.114   3.428  25.778  0.00  0.00    -0.370 OA
ATOM      6  C   UNL     1      -2.939   1.677  24.200  0.00  0.00    +0.130 C 
ATOM      7  C   UNL     1      -4.095   2.561  23.779  0.00  0.00    +0.168 C 
ATOM      8  C   UNL     1      -4.287   3.525  24.948  0.00  0.00    +0.174 C 
ATOM      9  C   UNL     1      -2.157   2.580  25.133  0.00  0.00    +0.185 C 
ENDROOT
BRANCH   6   5
ATOM      4  O   UNL     1      -1.528  -0.849  24.438  0.00  0.00    -0.276 OA
ATOM      5  N   UNL     1      -3.386   0.484  24.873  0.00  0.00    -0.308 N 
ATOM     11  C   UNL     1      -2.638  -0.682  24.934  0.00  0.00    +0.210 C 
ATOM     12  C   UNL     1      -3.330  -1.765  25.719  0.00  0.00    +0.109 C 
ATOM     13  H   UNL     1      -4.314   0.491  25.289  0.00  0.00    +0.149 HD
ENDBRANCH   6   5
BRANCH   7   2
ATOM      2  O   UNL     1      -3.686   3.298  22.625  0.00  0.00    -0.387 OA
ATOM     14  H   UNL     1      -4.203   2.967  21.871  0.00  0.00    +0.210 HD
ENDBRANCH   7   2
BRANCH   8  10
ATOM     10  C   UNL     1      -5.496   3.192  25.809  0.00  0.00    +0.190 C 
BRANCH  10   3
ATOM      3  O   UNL     1      -6.206   2.125  25.201  0.00  0.00    -0.392 OA
ATOM     15  H   UNL     1      -5.759   1.300  25.459  0.00  0.00    +0.210 HD
ENDBRANCH  10   3
ENDBRANCH   8  10
TORSDOF 4
ENDMDL
MODEL 7
REMARK VINA RESULT:      -4.7      2.298      4.549
REMARK  Name = 75536844
REMARK  5 active torsions:
REMARK  status: ('A' for Active; 'I' for Inactive)
REMARK    1  A    between atoms: O_2  and  C_7
REMARK    2  A    between atoms: O_3  and  C_10
REMARK    3  A    between atoms: N_5  and  C_6
REMARK    4  A    between atoms: C_8  and  C_10
REMARK    5  A    between atoms: C_11  and  C_12
REMARK                            x       y       z     vdW  Elec       q    Type
REMARK                         _______ _______ _______ _____ _____    ______ ____
ROOT
ATOM      1  O   UNL     1      -2.246  -1.126  26.107  0.00  0.00    -0.370 OA
ATOM      6  C   UNL     1      -4.017  -0.494  24.674  0.00  0.00    +0.130 C 
ATOM      7  C   UNL     1      -3.193  -1.539  23.951  0.00  0.00    +0.168 C 
ATOM      8  C   UNL     1      -1.960  -1.731  24.832  0.00  0.00    +0.174 C 
ATOM      9  C   UNL     1      -3.613  -0.698  26.121  0.00  0.00    +0.185 C 
ENDROOT
BRANCH   6   5
ATOM      4  O   UNL     1      -5.631   1.894  25.020  0.00  0.00    -0.276 OA
ATOM      5  N   UNL     1      -3.713   0.842  24.226  0.00  0.00    -0.308 N 
ATOM     11  C   UNL     1      -4.550   1.926  24.439  0.00  0.00    +0.210 C 
ATOM     12  C   UNL     1      -3.981   3.207  23.889  0.00  0.00    +0.109 C 
ATOM     13  H   UNL     1      -2.859   0.982  23.694  0.00  0.00    +0.149 HD
ENDBRANCH   6   5
BRANCH   7   2
ATOM      2  O   UNL     1      -3.946  -2.752  23.928  0.00  0.00    -0.387 OA
ATOM     14  H   UNL     1      -4.883  -2.513  24.036  0.00  0.00    +0.210 HD
ENDBRANCH   7   2
BRANCH   8  10
ATOM     10  C   UNL     1      -0.712  -1.068  24.270  0.00  0.00    +0.190 C 
BRANCH  10   3
ATOM      3  O   UNL     1      -0.245  -0.110  25.207  0.00  0.00    -0.392 OA
ATOM     15  H   UNL     1       0.643  -0.393  25.487  0.00  0.00    +0.210 HD
ENDBRANCH  10   3
ENDBRANCH   8  10
TORSDOF 4
ENDMDL
MODEL 8
REMARK VINA RESULT:      -4.5      1.538      4.474
REMARK  Name = 75536844
REMARK  5 active torsions:
REMARK  status: ('A' for Active; 'I' for Inactive)
REMARK    1  A    between atoms: O_2  and  C_7
REMARK    2  A    between atoms: O_3  and  C_10
REMARK    3  A    between atoms: N_5  and  C_6
REMARK    4  A    between atoms: C_8  and  C_10
REMARK    5  A    between atoms: C_11  and  C_12
REMARK                            x       y       z     vdW  Elec       q    Type
REMARK                         _______ _______ _______ _____ _____    ______ ____
ROOT
ATOM      1  O   UNL     1      -1.249   0.499  25.838  0.00  0.00    -0.370 OA
ATOM      6  C   UNL     1      -2.672   1.268  24.115  0.00  0.00    +0.130 C 
ATOM      7  C   UNL     1      -1.274   1.769  23.814  0.00  0.00    +0.168 C 
ATOM      8  C   UNL     1      -0.468   1.429  25.066  0.00  0.00    +0.174 C 
ATOM      9  C   UNL     1      -2.415   0.136  25.088  0.00  0.00    +0.185 C 
ENDROOT
BRANCH   6   5
ATOM      4  O   UNL     1      -5.507   1.115  24.722  0.00  0.00    -0.276 OA
ATOM      5  N   UNL     1      -3.499   2.292  24.704  0.00  0.00    -0.308 N 
ATOM     11  C   UNL     1      -4.851   2.126  24.958  0.00  0.00    +0.210 C 
ATOM     12  C   UNL     1      -5.468   3.341  25.599  0.00  0.00    +0.109 C 
ATOM     13  H   UNL     1      -3.071   3.192  24.905  0.00  0.00    +0.149 HD
ENDBRANCH   6   5
BRANCH   7   2
ATOM      2  O   UNL     1      -0.768   1.016  22.710  0.00  0.00    -0.387 OA
ATOM     14  H   UNL     1       0.108   0.679  22.966  0.00  0.00    +0.210 HD
ENDBRANCH   7   2
BRANCH   8  10
ATOM     10  C   UNL     1      -0.182   2.638  25.942  0.00  0.00    +0.190 C 
BRANCH  10   3
ATOM      3  O   UNL     1       0.927   2.344  26.776  0.00  0.00    -0.392 OA
ATOM     15  H   UNL     1       0.597   1.788  27.503  0.00  0.00    +0.210 HD
ENDBRANCH  10   3
ENDBRANCH   8  10
TORSDOF 4
ENDMDL
MODEL 9
REMARK VINA RESULT:      -4.4      2.941      3.918
REMARK  Name = 75536844
REMARK  5 active torsions:
REMARK  status: ('A' for Active; 'I' for Inactive)
REMARK    1  A    between atoms: O_2  and  C_7
REMARK    2  A    between atoms: O_3  and  C_10
REMARK    3  A    between atoms: N_5  and  C_6
REMARK    4  A    between atoms: C_8  and  C_10
REMARK    5  A    between atoms: C_11  and  C_12
REMARK                            x       y       z     vdW  Elec       q    Type
REMARK                         _______ _______ _______ _____ _____    ______ ____
ROOT
ATOM      1  O   UNL     1      -1.539   2.364  24.155  0.00  0.00    -0.370 OA
ATOM      6  C   UNL     1      -0.366   0.346  23.782  0.00  0.00    +0.130 C 
ATOM      7  C   UNL     1      -0.844   0.340  25.219  0.00  0.00    +0.168 C 
ATOM      8  C   UNL     1      -1.388   1.749  25.448  0.00  0.00    +0.174 C 
ATOM      9  C   UNL     1      -1.258   1.391  23.142  0.00  0.00    +0.185 C 
ENDROOT
BRANCH   6   5
ATOM      4  O   UNL     1       1.505  -0.442  21.706  0.00  0.00    -0.276 OA
ATOM      5  N   UNL     1       1.026   0.705  23.675  0.00  0.00    -0.308 N 
ATOM     11  C   UNL     1       1.845   0.278  22.641  0.00  0.00    +0.210 C 
ATOM     12  C   UNL     1       3.246   0.818  22.759  0.00  0.00    +0.109 C 
ATOM     13  H   UNL     1       1.431   1.267  24.418  0.00  0.00    +0.149 HD
ENDBRANCH   6   5
BRANCH   7   2
ATOM      2  O   UNL     1      -1.915  -0.600  25.321  0.00  0.00    -0.387 OA
ATOM     14  H   UNL     1      -2.427  -0.371  26.116  0.00  0.00    +0.210 HD
ENDBRANCH   7   2
BRANCH   8  10
ATOM     10  C   UNL     1      -0.460   2.624  26.276  0.00  0.00    +0.190 C 
BRANCH  10   3
ATOM      3  O   UNL     1       0.864   2.132  26.147  0.00  0.00    -0.392 OA
ATOM     15  H   UNL     1       0.808   1.161  26.137  0.00  0.00    +0.210 HD
ENDBRANCH  10   3
ENDBRANCH   8  10
TORSDOF 4
ENDMDL
MODEL 10
REMARK VINA RESULT:      -4.1      2.381      3.209
REMARK  Name = 75536844
REMARK  5 active torsions:
REMARK  status: ('A' for Active; 'I' for Inactive)
REMARK    1  A    between atoms: O_2  and  C_7
REMARK    2  A    between atoms: O_3  and  C_10
REMARK    3  A    between atoms: N_5  and  C_6
REMARK    4  A    between atoms: C_8  and  C_10
REMARK    5  A    between atoms: C_11  and  C_12
REMARK                            x       y       z     vdW  Elec       q    Type
REMARK                         _______ _______ _______ _____ _____    ______ ____
ROOT
ATOM      1  O   UNL     1      -3.039   0.565  23.245  0.00  0.00    -0.370 OA
ATOM      6  C   UNL     1      -1.534   1.902  24.483  0.00  0.00    +0.130 C 
ATOM      7  C   UNL     1      -1.455   0.493  25.033  0.00  0.00    +0.168 C 
ATOM      8  C   UNL     1      -2.599  -0.251  24.347  0.00  0.00    +0.174 C 
ATOM      9  C   UNL     1      -2.161   1.690  23.120  0.00  0.00    +0.185 C 
ENDROOT
BRANCH   6   5
ATOM      4  O   UNL     1      -1.121   4.722  25.037  0.00  0.00    -0.276 OA
ATOM      5  N   UNL     1      -2.346   2.761  25.309  0.00  0.00    -0.308 N 
ATOM     11  C   UNL     1      -2.068   4.104  25.515  0.00  0.00    +0.210 C 
ATOM     12  C   UNL     1      -3.089   4.771  26.398  0.00  0.00    +0.109 C 
ATOM     13  H   UNL     1      -3.138   2.347  25.792  0.00  0.00    +0.149 HD
ENDBRANCH   6   5
BRANCH   7   2
ATOM      2  O   UNL     1      -0.210  -0.071  24.616  0.00  0.00    -0.387 OA
ATOM     14  H   UNL     1       0.301  -0.271  25.418  0.00  0.00    +0.210 HD
ENDBRANCH   7   2
BRANCH   8  10
ATOM     10  C   UNL     1      -3.793  -0.488  25.258  0.00  0.00    +0.190 C 
BRANCH  10   3
ATOM      3  O   UNL     1      -3.490  -1.561  26.134  0.00  0.00    -0.392 OA
ATOM     15  H   UNL     1      -2.537  -1.513  26.327  0.00  0.00    +0.210 HD
ENDBRANCH  10   3
ENDBRANCH   8  10
TORSDOF 4
ENDMDL
