MODEL 1
REMARK VINA RESULT:      -4.1      0.000      0.000
REMARK  Name = 38026427
REMARK  11 active torsions:
REMARK  status: ('A' for Active; 'I' for Inactive)
REMARK    1  A    between atoms: O_3  and  C_16
REMARK    2  A    between atoms: N_6  and  C_14
REMARK    3  A    between atoms: N_6  and  C_17
REMARK    4  A    between atoms: N_6  and  C_18
REMARK    5  A    between atoms: C_7  and  C_11
REMARK    6  A    between atoms: C_8  and  C_13
REMARK    7  A    between atoms: C_11  and  C_14
REMARK    8  A    between atoms: C_13  and  C_16
REMARK    9  A    between atoms: C_15  and  C_19
REMARK   10  A    between atoms: C_17  and  C_20
REMARK   11  A    between atoms: C_18  and  C_21
REMARK                            x       y       z     vdW  Elec       q    Type
REMARK                         _______ _______ _______ _____ _____    ______ ____
ROOT
ATOM      2  O   UNL     1      -1.613   4.064  26.018  0.00  0.00    -0.270 OA
ATOM      5  N   UNL     1      -1.096   2.752  24.151  0.00  0.00    -0.297 N 
ATOM      7  C   UNL     1      -0.637   0.525  23.150  0.00  0.00    +0.011 C 
ATOM      8  C   UNL     1       0.868   0.892  23.117  0.00  0.00    +0.006 C 
ATOM      9  C   UNL     1       1.222   1.921  24.205  0.00  0.00    +0.023 C 
ATOM     10  C   UNL     1      -1.492   1.805  23.100  0.00  0.00    +0.112 C 
ATOM     12  C   UNL     1       0.312   3.143  24.127  0.00  0.00    +0.108 C 
ATOM     15  C   UNL     1      -1.940   3.276  25.133  0.00  0.00    +0.247 C 
ENDROOT
BRANCH  15  19
ATOM      1  F   UNL     1      -7.307   1.691  25.102  0.00  0.00    -0.205 F 
ATOM     19  C   UNL     1      -3.347   2.860  25.125  0.00  0.00    +0.037 A 
ATOM     22  C   UNL     1      -4.340   3.752  25.529  0.00  0.00    +0.016 A 
ATOM     23  C   UNL     1      -3.692   1.573  24.713  0.00  0.00    +0.016 A 
ATOM     24  C   UNL     1      -5.677   3.358  25.523  0.00  0.00    +0.039 A 
ATOM     25  C   UNL     1      -5.030   1.178  24.707  0.00  0.00    +0.039 A 
ATOM     26  C   UNL     1      -6.023   2.070  25.111  0.00  0.00    +0.123 A 
ENDBRANCH  15  19
BRANCH   7  11
ATOM     11  C   UNL     1      -1.042  -0.338  24.352  0.00  0.00    +0.020 C 
BRANCH  11  14
ATOM     14  C   UNL     1      -1.663  -1.651  23.894  0.00  0.00    +0.084 C 
BRANCH  14   6
ATOM      6  N   UNL     1      -2.184  -2.380  25.044  0.00  0.00    -0.303 NA
BRANCH   6  17
ATOM     17  C   UNL     1      -3.544  -2.854  24.779  0.00  0.00    +0.081 C 
ATOM     20  C   UNL     1      -4.156  -2.132  23.591  0.00  0.00    +0.020 C 
ENDBRANCH   6  17
BRANCH   6  18
ATOM     18  C   UNL     1      -2.166  -1.536  26.240  0.00  0.00    +0.081 C 
ATOM     21  C   UNL     1      -3.567  -1.327  26.786  0.00  0.00    +0.020 C 
ENDBRANCH   6  18
ENDBRANCH  14   6
ENDBRANCH  11  14
ENDBRANCH   7  11
BRANCH   8  13
ATOM     13  C   UNL     1       1.786  -0.326  23.208  0.00  0.00    +0.124 C 
BRANCH  13  16
ATOM      4  O   UNL     1       3.580   0.877  22.078  0.00  0.00    -0.251 OA
ATOM     16  C   UNL     1       3.208   0.024  22.872  0.00  0.00    +0.305 C 
BRANCH  16   3
ATOM      3  O   UNL     1       4.055  -0.758  23.590  0.00  0.00    -0.481 OA
ATOM     27  H   UNL     1       3.622  -1.587  23.888  0.00  0.00    +0.295 HD
ENDBRANCH  16   3
ENDBRANCH  13  16
ENDBRANCH   8  13
TORSDOF 9
ENDMDL
MODEL 2
REMARK VINA RESULT:      -3.5      2.039      4.193
REMARK  Name = 38026427
REMARK  11 active torsions:
REMARK  status: ('A' for Active; 'I' for Inactive)
REMARK    1  A    between atoms: O_3  and  C_16
REMARK    2  A    between atoms: N_6  and  C_14
REMARK    3  A    between atoms: N_6  and  C_17
REMARK    4  A    between atoms: N_6  and  C_18
REMARK    5  A    between atoms: C_7  and  C_11
REMARK    6  A    between atoms: C_8  and  C_13
REMARK    7  A    between atoms: C_11  and  C_14
REMARK    8  A    between atoms: C_13  and  C_16
REMARK    9  A    between atoms: C_15  and  C_19
REMARK   10  A    between atoms: C_17  and  C_20
REMARK   11  A    between atoms: C_18  and  C_21
REMARK                            x       y       z     vdW  Elec       q    Type
REMARK                         _______ _______ _______ _____ _____    ______ ____
ROOT
ATOM      2  O   UNL     1      -4.749  -1.167  23.533  0.00  0.00    -0.270 OA
ATOM      5  N   UNL     1      -2.789  -0.909  24.785  0.00  0.00    -0.297 N 
ATOM      7  C   UNL     1      -0.530   0.088  25.061  0.00  0.00    +0.011 C 
ATOM      8  C   UNL     1       0.080  -1.284  24.673  0.00  0.00    +0.006 C 
ATOM      9  C   UNL     1      -0.877  -2.097  23.784  0.00  0.00    +0.023 C 
ATOM     10  C   UNL     1      -1.929  -0.114  25.672  0.00  0.00    +0.112 C 
ATOM     12  C   UNL     1      -2.256  -2.222  24.427  0.00  0.00    +0.108 C 
ATOM     15  C   UNL     1      -4.027  -0.508  24.279  0.00  0.00    +0.247 C 
ENDROOT
BRANCH  15  19
ATOM      1  F   UNL     1      -5.945   4.544  25.734  0.00  0.00    -0.205 F 
ATOM     19  C   UNL     1      -4.531   0.817  24.661  0.00  0.00    +0.037 A 
ATOM     22  C   UNL     1      -5.515   0.934  25.642  0.00  0.00    +0.016 A 
ATOM     23  C   UNL     1      -4.024   1.961  24.042  0.00  0.00    +0.016 A 
ATOM     24  C   UNL     1      -5.993   2.192  26.005  0.00  0.00    +0.039 A 
ATOM     25  C   UNL     1      -4.504   3.219  24.404  0.00  0.00    +0.039 A 
ATOM     26  C   UNL     1      -5.488   3.336  25.386  0.00  0.00    +0.123 A 
ENDBRANCH  15  19
BRANCH   7  11
ATOM     11  C   UNL     1      -0.595   1.090  23.902  0.00  0.00    +0.020 C 
BRANCH  11  14
ATOM     14  C   UNL     1       0.046   2.415  24.292  0.00  0.00    +0.084 C 
BRANCH  14   6
ATOM      6  N   UNL     1      -0.954   3.293  24.888  0.00  0.00    -0.303 NA
BRANCH   6  17
ATOM     17  C   UNL     1      -0.644   4.695  24.604  0.00  0.00    +0.081 C 
ATOM     20  C   UNL     1      -1.736   5.615  25.122  0.00  0.00    +0.020 C 
ENDBRANCH   6  17
BRANCH   6  18
ATOM     18  C   UNL     1      -1.037   3.075  26.333  0.00  0.00    +0.081 C 
ATOM     21  C   UNL     1       0.322   2.724  26.914  0.00  0.00    +0.020 C 
ENDBRANCH   6  18
ENDBRANCH  14   6
ENDBRANCH  11  14
ENDBRANCH   7  11
BRANCH   8  13
ATOM     13  C   UNL     1       1.456  -1.166  24.017  0.00  0.00    +0.124 C 
BRANCH  13  16
ATOM      4  O   UNL     1       0.620  -0.575  21.805  0.00  0.00    -0.251 OA
ATOM     16  C   UNL     1       1.393  -0.387  22.733  0.00  0.00    +0.305 C 
BRANCH  16   3
ATOM      3  O   UNL     1       2.341   0.585  22.740  0.00  0.00    -0.481 OA
ATOM     27  H   UNL     1       2.579   0.871  21.832  0.00  0.00    +0.295 HD
ENDBRANCH  16   3
ENDBRANCH  13  16
ENDBRANCH   8  13
TORSDOF 9
ENDMDL
MODEL 3
REMARK VINA RESULT:      -3.5      1.909      4.089
REMARK  Name = 38026427
REMARK  11 active torsions:
REMARK  status: ('A' for Active; 'I' for Inactive)
REMARK    1  A    between atoms: O_3  and  C_16
REMARK    2  A    between atoms: N_6  and  C_14
REMARK    3  A    between atoms: N_6  and  C_17
REMARK    4  A    between atoms: N_6  and  C_18
REMARK    5  A    between atoms: C_7  and  C_11
REMARK    6  A    between atoms: C_8  and  C_13
REMARK    7  A    between atoms: C_11  and  C_14
REMARK    8  A    between atoms: C_13  and  C_16
REMARK    9  A    between atoms: C_15  and  C_19
REMARK   10  A    between atoms: C_17  and  C_20
REMARK   11  A    between atoms: C_18  and  C_21
REMARK                            x       y       z     vdW  Elec       q    Type
REMARK                         _______ _______ _______ _____ _____    ______ ____
ROOT
ATOM      2  O   UNL     1      -4.726  -1.377  24.061  0.00  0.00    -0.270 OA
ATOM      5  N   UNL     1      -2.563  -0.706  24.649  0.00  0.00    -0.297 N 
ATOM      7  C   UNL     1      -0.500   0.584  24.142  0.00  0.00    +0.011 C 
ATOM      8  C   UNL     1       0.187  -0.746  23.741  0.00  0.00    +0.006 C 
ATOM      9  C   UNL     1      -0.837  -1.790  23.265  0.00  0.00    +0.023 C 
ATOM     10  C   UNL     1      -1.628   0.309  25.154  0.00  0.00    +0.112 C 
ATOM     12  C   UNL     1      -1.949  -1.983  24.292  0.00  0.00    +0.108 C 
ATOM     15  C   UNL     1      -3.939  -0.534  24.489  0.00  0.00    +0.247 C 
ENDROOT
BRANCH  15  19
ATOM      1  F   UNL     1      -6.156   4.409  25.893  0.00  0.00    -0.205 F 
ATOM     19  C   UNL     1      -4.520   0.762  24.857  0.00  0.00    +0.037 A 
ATOM     22  C   UNL     1      -4.172   1.911  24.146  0.00  0.00    +0.016 A 
ATOM     23  C   UNL     1      -5.422   0.846  25.918  0.00  0.00    +0.016 A 
ATOM     24  C   UNL     1      -4.723   3.142  24.496  0.00  0.00    +0.039 A 
ATOM     25  C   UNL     1      -5.973   2.079  26.268  0.00  0.00    +0.039 A 
ATOM     26  C   UNL     1      -5.625   3.227  25.557  0.00  0.00    +0.123 A 
ENDBRANCH  15  19
BRANCH   7  11
ATOM     11  C   UNL     1      -1.038   1.390  22.954  0.00  0.00    +0.020 C 
BRANCH  11  14
ATOM     14  C   UNL     1      -1.543   2.754  23.405  0.00  0.00    +0.084 C 
BRANCH  14   6
ATOM      6  N   UNL     1      -0.590   3.352  24.333  0.00  0.00    -0.303 NA
BRANCH   6  17
ATOM     17  C   UNL     1      -0.999   3.111  25.718  0.00  0.00    +0.081 C 
ATOM     20  C   UNL     1       0.187   2.712  26.579  0.00  0.00    +0.020 C 
ENDBRANCH   6  17
BRANCH   6  18
ATOM     18  C   UNL     1      -0.462   4.789  24.085  0.00  0.00    +0.081 C 
ATOM     21  C   UNL     1      -1.398   5.586  24.978  0.00  0.00    +0.020 C 
ENDBRANCH   6  18
ENDBRANCH  14   6
ENDBRANCH  11  14
ENDBRANCH   7  11
BRANCH   8  13
ATOM     13  C   UNL     1       1.293  -0.562  22.702  0.00  0.00    +0.124 C 
BRANCH  13  16
ATOM      4  O   UNL     1       2.412   1.425  23.560  0.00  0.00    -0.251 OA
ATOM     16  C   UNL     1       2.438   0.244  23.247  0.00  0.00    +0.305 C 
BRANCH  16   3
ATOM      3  O   UNL     1       3.542  -0.540  23.350  0.00  0.00    -0.481 OA
ATOM     27  H   UNL     1       4.339  -0.019  23.590  0.00  0.00    +0.295 HD
ENDBRANCH  16   3
ENDBRANCH  13  16
ENDBRANCH   8  13
TORSDOF 9
ENDMDL
MODEL 4
REMARK VINA RESULT:      -3.5      2.632      4.985
REMARK  Name = 38026427
REMARK  11 active torsions:
REMARK  status: ('A' for Active; 'I' for Inactive)
REMARK    1  A    between atoms: O_3  and  C_16
REMARK    2  A    between atoms: N_6  and  C_14
REMARK    3  A    between atoms: N_6  and  C_17
REMARK    4  A    between atoms: N_6  and  C_18
REMARK    5  A    between atoms: C_7  and  C_11
REMARK    6  A    between atoms: C_8  and  C_13
REMARK    7  A    between atoms: C_11  and  C_14
REMARK    8  A    between atoms: C_13  and  C_16
REMARK    9  A    between atoms: C_15  and  C_19
REMARK   10  A    between atoms: C_17  and  C_20
REMARK   11  A    between atoms: C_18  and  C_21
REMARK                            x       y       z     vdW  Elec       q    Type
REMARK                         _______ _______ _______ _____ _____    ______ ____
ROOT
ATOM      2  O   UNL     1      -5.979   0.976  26.334  0.00  0.00    -0.270 OA
ATOM      5  N   UNL     1      -4.550   2.099  24.862  0.00  0.00    -0.297 N 
ATOM      7  C   UNL     1      -2.291   2.972  24.305  0.00  0.00    +0.011 C 
ATOM      8  C   UNL     1      -2.795   4.394  24.659  0.00  0.00    +0.006 C 
ATOM      9  C   UNL     1      -3.952   4.348  25.672  0.00  0.00    +0.023 C 
ATOM     10  C   UNL     1      -3.473   2.090  23.862  0.00  0.00    +0.112 C 
ATOM     12  C   UNL     1      -5.069   3.425  25.193  0.00  0.00    +0.108 C 
ATOM     15  C   UNL     1      -5.082   0.973  25.493  0.00  0.00    +0.247 C 
ENDROOT
BRANCH  15  19
ATOM      1  F   UNL     1      -2.996  -4.037  24.128  0.00  0.00    -0.205 F 
ATOM     19  C   UNL     1      -4.536  -0.341  25.135  0.00  0.00    +0.037 A 
ATOM     22  C   UNL     1      -4.761  -0.867  23.863  0.00  0.00    +0.016 A 
ATOM     23  C   UNL     1      -3.789  -1.063  26.067  0.00  0.00    +0.016 A 
ATOM     24  C   UNL     1      -4.242  -2.116  23.523  0.00  0.00    +0.039 A 
ATOM     25  C   UNL     1      -3.271  -2.312  25.726  0.00  0.00    +0.039 A 
ATOM     26  C   UNL     1      -3.496  -2.839  24.454  0.00  0.00    +0.123 A 
ENDBRANCH  15  19
BRANCH   7  11
ATOM     11  C   UNL     1      -1.512   2.288  25.436  0.00  0.00    +0.020 C 
BRANCH  11  14
ATOM     14  C   UNL     1      -1.209   0.837  25.087  0.00  0.00    +0.084 C 
BRANCH  14   6
ATOM      6  N   UNL     1      -0.366   0.778  23.900  0.00  0.00    -0.303 NA
BRANCH   6  17
ATOM     17  C   UNL     1      -0.058  -0.611  23.554  0.00  0.00    +0.081 C 
ATOM     20  C   UNL     1      -0.193  -1.520  24.764  0.00  0.00    +0.020 C 
ENDBRANCH   6  17
BRANCH   6  18
ATOM     18  C   UNL     1       0.870   1.535  24.107  0.00  0.00    +0.081 C 
ATOM     21  C   UNL     1       2.016   0.946  23.303  0.00  0.00    +0.020 C 
ENDBRANCH   6  18
ENDBRANCH  14   6
ENDBRANCH  11  14
ENDBRANCH   7  11
BRANCH   8  13
ATOM     13  C   UNL     1      -1.683   5.320  25.151  0.00  0.00    +0.124 C 
BRANCH  13  16
ATOM      4  O   UNL     1       0.051   5.092  23.455  0.00  0.00    -0.251 OA
ATOM     16  C   UNL     1      -0.344   4.923  24.599  0.00  0.00    +0.305 C 
BRANCH  16   3
ATOM      3  O   UNL     1       0.395   4.330  25.572  0.00  0.00    -0.481 OA
ATOM     27  H   UNL     1       0.830   3.510  25.252  0.00  0.00    +0.295 HD
ENDBRANCH  16   3
ENDBRANCH  13  16
ENDBRANCH   8  13
TORSDOF 9
ENDMDL
MODEL 5
REMARK VINA RESULT:      -2.5      3.086      6.910
REMARK  Name = 38026427
REMARK  11 active torsions:
REMARK  status: ('A' for Active; 'I' for Inactive)
REMARK    1  A    between atoms: O_3  and  C_16
REMARK    2  A    between atoms: N_6  and  C_14
REMARK    3  A    between atoms: N_6  and  C_17
REMARK    4  A    between atoms: N_6  and  C_18
REMARK    5  A    between atoms: C_7  and  C_11
REMARK    6  A    between atoms: C_8  and  C_13
REMARK    7  A    between atoms: C_11  and  C_14
REMARK    8  A    between atoms: C_13  and  C_16
REMARK    9  A    between atoms: C_15  and  C_19
REMARK   10  A    between atoms: C_17  and  C_20
REMARK   11  A    between atoms: C_18  and  C_21
REMARK                            x       y       z     vdW  Elec       q    Type
REMARK                         _______ _______ _______ _____ _____    ______ ____
ROOT
ATOM      2  O   UNL     1      -1.267  -1.686  25.595  0.00  0.00    -0.270 OA
ATOM      5  N   UNL     1      -2.687  -0.466  24.192  0.00  0.00    -0.297 N 
ATOM      7  C   UNL     1      -3.704   1.700  23.520  0.00  0.00    +0.011 C 
ATOM      8  C   UNL     1      -5.019   1.250  24.206  0.00  0.00    +0.006 C 
ATOM      9  C   UNL     1      -4.752   0.240  25.335  0.00  0.00    +0.023 C 
ATOM     10  C   UNL     1      -2.896   0.466  23.075  0.00  0.00    +0.112 C 
ATOM     12  C   UNL     1      -3.911  -0.933  24.839  0.00  0.00    +0.108 C 
ATOM     15  C   UNL     1      -1.448  -0.911  24.658  0.00  0.00    +0.247 C 
ENDROOT
BRANCH  15  19
ATOM      1  F   UNL     1       3.157   0.959  22.086  0.00  0.00    -0.205 F 
ATOM     19  C   UNL     1      -0.241  -0.420  23.983  0.00  0.00    +0.037 A 
ATOM     22  C   UNL     1       0.467   0.657  24.516  0.00  0.00    +0.016 A 
ATOM     23  C   UNL     1       0.200  -1.032  22.809  0.00  0.00    +0.016 A 
ATOM     24  C   UNL     1       1.614   1.124  23.875  0.00  0.00    +0.039 A 
ATOM     25  C   UNL     1       1.347  -0.564  22.168  0.00  0.00    +0.039 A 
ATOM     26  C   UNL     1       2.055   0.513  22.701  0.00  0.00    +0.123 A 
ENDBRANCH  15  19
BRANCH   7  11
ATOM     11  C   UNL     1      -2.835   2.622  24.384  0.00  0.00    +0.020 C 
BRANCH  11  14
ATOM     14  C   UNL     1      -1.542   2.982  23.664  0.00  0.00    +0.084 C 
BRANCH  14   6
ATOM      6  N   UNL     1      -0.612   3.604  24.598  0.00  0.00    -0.303 NA
BRANCH   6  17
ATOM     17  C   UNL     1      -0.999   3.316  25.980  0.00  0.00    +0.081 C 
ATOM     20  C   UNL     1       0.142   2.671  26.747  0.00  0.00    +0.020 C 
ENDBRANCH   6  17
BRANCH   6  18
ATOM     18  C   UNL     1      -0.551   5.050  24.380  0.00  0.00    +0.081 C 
ATOM     21  C   UNL     1      -1.666   5.765  25.122  0.00  0.00    +0.020 C 
ENDBRANCH   6  18
ENDBRANCH  14   6
ENDBRANCH  11  14
ENDBRANCH   7  11
BRANCH   8  13
ATOM     13  C   UNL     1      -5.861   2.420  24.717  0.00  0.00    +0.124 C 
BRANCH  13  16
ATOM      4  O   UNL     1      -4.727   3.369  26.654  0.00  0.00    -0.251 OA
ATOM     16  C   UNL     1      -5.618   2.682  26.177  0.00  0.00    +0.305 C 
BRANCH  16   3
ATOM      3  O   UNL     1      -6.551   2.032  26.920  0.00  0.00    -0.481 OA
ATOM     27  H   UNL     1      -6.676   1.106  26.621  0.00  0.00    +0.295 HD
ENDBRANCH  16   3
ENDBRANCH  13  16
ENDBRANCH   8  13
TORSDOF 9
ENDMDL
MODEL 6
REMARK VINA RESULT:      -2.2      3.118      5.186
REMARK  Name = 38026427
REMARK  11 active torsions:
REMARK  status: ('A' for Active; 'I' for Inactive)
REMARK    1  A    between atoms: O_3  and  C_16
REMARK    2  A    between atoms: N_6  and  C_14
REMARK    3  A    between atoms: N_6  and  C_17
REMARK    4  A    between atoms: N_6  and  C_18
REMARK    5  A    between atoms: C_7  and  C_11
REMARK    6  A    between atoms: C_8  and  C_13
REMARK    7  A    between atoms: C_11  and  C_14
REMARK    8  A    between atoms: C_13  and  C_16
REMARK    9  A    between atoms: C_15  and  C_19
REMARK   10  A    between atoms: C_17  and  C_20
REMARK   11  A    between atoms: C_18  and  C_21
REMARK                            x       y       z     vdW  Elec       q    Type
REMARK                         _______ _______ _______ _____ _____    ______ ____
ROOT
ATOM      2  O   UNL     1       0.745   1.981  26.662  0.00  0.00    -0.270 OA
ATOM      5  N   UNL     1      -0.505   0.823  25.058  0.00  0.00    -0.297 N 
ATOM      7  C   UNL     1      -2.660  -0.167  24.316  0.00  0.00    +0.011 C 
ATOM      8  C   UNL     1      -2.091  -1.567  24.661  0.00  0.00    +0.006 C 
ATOM      9  C   UNL     1      -1.011  -1.485  25.754  0.00  0.00    +0.023 C 
ATOM     10  C   UNL     1      -1.508   0.801  23.985  0.00  0.00    +0.112 C 
ATOM     12  C   UNL     1       0.075  -0.478  25.385  0.00  0.00    +0.108 C 
ATOM     15  C   UNL     1      -0.090   1.957  25.760  0.00  0.00    +0.247 C 
ENDROOT
BRANCH  15  19
ATOM      1  F   UNL     1      -2.395   6.873  24.405  0.00  0.00    -0.205 F 
ATOM     19  C   UNL     1      -0.694   3.246  25.405  0.00  0.00    +0.037 A 
ATOM     22  C   UNL     1      -0.140   4.019  24.384  0.00  0.00    +0.016 A 
ATOM     23  C   UNL     1      -1.824   3.700  26.088  0.00  0.00    +0.016 A 
ATOM     24  C   UNL     1      -0.714   5.244  24.046  0.00  0.00    +0.039 A 
ATOM     25  C   UNL     1      -2.397   4.925  25.750  0.00  0.00    +0.039 A 
ATOM     26  C   UNL     1      -1.843   5.697  24.729  0.00  0.00    +0.123 A 
ENDBRANCH  15  19
BRANCH   7  11
ATOM     11  C   UNL     1      -3.556   0.427  25.410  0.00  0.00    +0.020 C 
BRANCH  11  14
ATOM     14  C   UNL     1      -4.767   1.121  24.801  0.00  0.00    +0.084 C 
BRANCH  14   6
ATOM      6  N   UNL     1      -4.608   2.567  24.895  0.00  0.00    -0.303 NA
BRANCH   6  17
ATOM     17  C   UNL     1      -5.631   3.142  25.771  0.00  0.00    +0.081 C 
ATOM     20  C   UNL     1      -6.408   2.056  26.495  0.00  0.00    +0.020 C 
ENDBRANCH   6  17
BRANCH   6  18
ATOM     18  C   UNL     1      -4.676   3.180  23.567  0.00  0.00    +0.081 C 
ATOM     21  C   UNL     1      -3.408   2.915  22.774  0.00  0.00    +0.020 C 
ENDBRANCH   6  18
ENDBRANCH  14   6
ENDBRANCH  11  14
ENDBRANCH   7  11
BRANCH   8  13
ATOM     13  C   UNL     1      -3.171  -2.578  25.045  0.00  0.00    +0.124 C 
BRANCH  13  16
ATOM      4  O   UNL     1      -5.082  -2.416  23.541  0.00  0.00    -0.251 OA
ATOM     16  C   UNL     1      -4.030  -2.945  23.868  0.00  0.00    +0.305 C 
BRANCH  16   3
ATOM      3  O   UNL     1      -3.464  -3.979  23.193  0.00  0.00    -0.481 OA
ATOM     27  H   UNL     1      -3.066  -4.638  23.802  0.00  0.00    +0.295 HD
ENDBRANCH  16   3
ENDBRANCH  13  16
ENDBRANCH   8  13
TORSDOF 9
ENDMDL
MODEL 7
REMARK VINA RESULT:      -1.9      2.222      5.310
REMARK  Name = 38026427
REMARK  11 active torsions:
REMARK  status: ('A' for Active; 'I' for Inactive)
REMARK    1  A    between atoms: O_3  and  C_16
REMARK    2  A    between atoms: N_6  and  C_14
REMARK    3  A    between atoms: N_6  and  C_17
REMARK    4  A    between atoms: N_6  and  C_18
REMARK    5  A    between atoms: C_7  and  C_11
REMARK    6  A    between atoms: C_8  and  C_13
REMARK    7  A    between atoms: C_11  and  C_14
REMARK    8  A    between atoms: C_13  and  C_16
REMARK    9  A    between atoms: C_15  and  C_19
REMARK   10  A    between atoms: C_17  and  C_20
REMARK   11  A    between atoms: C_18  and  C_21
REMARK                            x       y       z     vdW  Elec       q    Type
REMARK                         _______ _______ _______ _____ _____    ______ ____
ROOT
ATOM      2  O   UNL     1       0.420  -0.911  23.464  0.00  0.00    -0.270 OA
ATOM      5  N   UNL     1      -0.452   0.773  24.833  0.00  0.00    -0.297 N 
ATOM      7  C   UNL     1      -1.862   2.801  25.114  0.00  0.00    +0.011 C 
ATOM      8  C   UNL     1      -0.566   3.649  25.156  0.00  0.00    +0.006 C 
ATOM      9  C   UNL     1       0.583   2.966  24.394  0.00  0.00    +0.023 C 
ATOM     10  C   UNL     1      -1.566   1.365  25.586  0.00  0.00    +0.112 C 
ATOM     12  C   UNL     1       0.795   1.534  24.881  0.00  0.00    +0.108 C 
ATOM     15  C   UNL     1      -0.507  -0.414  24.101  0.00  0.00    +0.247 C 
ENDROOT
BRANCH  15  19
ATOM      1  F   UNL     1      -5.344  -3.226  24.002  0.00  0.00    -0.205 F 
ATOM     19  C   UNL     1      -1.776  -1.151  24.075  0.00  0.00    +0.037 A 
ATOM     22  C   UNL     1      -2.943  -0.516  23.653  0.00  0.00    +0.016 A 
ATOM     23  C   UNL     1      -1.814  -2.489  24.472  0.00  0.00    +0.016 A 
ATOM     24  C   UNL     1      -4.149  -1.216  23.629  0.00  0.00    +0.039 A 
ATOM     25  C   UNL     1      -3.020  -3.188  24.448  0.00  0.00    +0.039 A 
ATOM     26  C   UNL     1      -4.188  -2.553  24.026  0.00  0.00    +0.123 A 
ENDBRANCH  15  19
BRANCH   7  11
ATOM     11  C   UNL     1      -2.546   2.778  23.741  0.00  0.00    +0.020 C 
BRANCH  11  14
ATOM     14  C   UNL     1      -4.027   3.105  23.866  0.00  0.00    +0.084 C 
BRANCH  14   6
ATOM      6  N   UNL     1      -4.551   2.564  25.114  0.00  0.00    -0.303 NA
BRANCH   6  17
ATOM     17  C   UNL     1      -5.705   1.700  24.858  0.00  0.00    +0.081 C 
ATOM     20  C   UNL     1      -6.402   1.317  26.152  0.00  0.00    +0.020 C 
ENDBRANCH   6  17
BRANCH   6  18
ATOM     18  C   UNL     1      -4.921   3.644  26.030  0.00  0.00    +0.081 C 
ATOM     21  C   UNL     1      -5.847   4.642  25.357  0.00  0.00    +0.020 C 
ENDBRANCH   6  18
ENDBRANCH  14   6
ENDBRANCH  11  14
ENDBRANCH   7  11
BRANCH   8  13
ATOM     13  C   UNL     1      -0.767   5.080  24.658  0.00  0.00    +0.124 C 
BRANCH  13  16
ATOM      4  O   UNL     1      -2.581   5.505  26.228  0.00  0.00    -0.251 OA
ATOM     16  C   UNL     1      -2.076   5.651  25.125  0.00  0.00    +0.305 C 
BRANCH  16   3
ATOM      3  O   UNL     1      -2.642   6.375  24.126  0.00  0.00    -0.481 OA
ATOM     27  H   UNL     1      -2.296   7.293  24.099  0.00  0.00    +0.295 HD
ENDBRANCH  16   3
ENDBRANCH  13  16
ENDBRANCH   8  13
TORSDOF 9
ENDMDL
MODEL 8
REMARK VINA RESULT:      -0.9      3.214      5.302
REMARK  Name = 38026427
REMARK  11 active torsions:
REMARK  status: ('A' for Active; 'I' for Inactive)
REMARK    1  A    between atoms: O_3  and  C_16
REMARK    2  A    between atoms: N_6  and  C_14
REMARK    3  A    between atoms: N_6  and  C_17
REMARK    4  A    between atoms: N_6  and  C_18
REMARK    5  A    between atoms: C_7  and  C_11
REMARK    6  A    between atoms: C_8  and  C_13
REMARK    7  A    between atoms: C_11  and  C_14
REMARK    8  A    between atoms: C_13  and  C_16
REMARK    9  A    between atoms: C_15  and  C_19
REMARK   10  A    between atoms: C_17  and  C_20
REMARK   11  A    between atoms: C_18  and  C_21
REMARK                            x       y       z     vdW  Elec       q    Type
REMARK                         _______ _______ _______ _____ _____    ______ ____
ROOT
ATOM      2  O   UNL     1      -5.448   4.095  25.075  0.00  0.00    -0.270 OA
ATOM      5  N   UNL     1      -4.372   2.062  25.503  0.00  0.00    -0.297 N 
ATOM      7  C   UNL     1      -3.091   0.094  24.689  0.00  0.00    +0.011 C 
ATOM      8  C   UNL     1      -4.389  -0.746  24.795  0.00  0.00    +0.006 C 
ATOM      9  C   UNL     1      -5.644   0.132  24.652  0.00  0.00    +0.023 C 
ATOM     10  C   UNL     1      -3.145   1.273  25.680  0.00  0.00    +0.112 C 
ATOM     12  C   UNL     1      -5.614   1.303  25.630  0.00  0.00    +0.108 C 
ATOM     15  C   UNL     1      -4.425   3.430  25.229  0.00  0.00    +0.247 C 
ENDROOT
BRANCH  15  19
ATOM      1  F   UNL     1       0.410   6.210  24.766  0.00  0.00    -0.205 F 
ATOM     19  C   UNL     1      -3.157   4.159  25.108  0.00  0.00    +0.037 A 
ATOM     22  C   UNL     1      -1.978   3.593  25.593  0.00  0.00    +0.016 A 
ATOM     23  C   UNL     1      -3.131   5.419  24.508  0.00  0.00    +0.016 A 
ATOM     24  C   UNL     1      -0.773   4.285  25.478  0.00  0.00    +0.039 A 
ATOM     25  C   UNL     1      -1.926   6.111  24.394  0.00  0.00    +0.039 A 
ATOM     26  C   UNL     1      -0.746   5.545  24.878  0.00  0.00    +0.123 A 
ENDBRANCH  15  19
BRANCH   7  11
ATOM     11  C   UNL     1      -2.794   0.604  23.273  0.00  0.00    +0.020 C 
BRANCH  11  14
ATOM     14  C   UNL     1      -1.395   1.201  23.193  0.00  0.00    +0.084 C 
BRANCH  14   6
ATOM      6  N   UNL     1      -0.539   0.595  24.205  0.00  0.00    -0.303 NA
BRANCH   6  17
ATOM     17  C   UNL     1       0.752   1.283  24.266  0.00  0.00    +0.081 C 
ATOM     20  C   UNL     1       1.717   0.734  23.229  0.00  0.00    +0.020 C 
ENDBRANCH   6  17
BRANCH   6  18
ATOM     18  C   UNL     1      -0.341  -0.829  23.926  0.00  0.00    +0.081 C 
ATOM     21  C   UNL     1      -0.310  -1.640  25.210  0.00  0.00    +0.020 C 
ENDBRANCH   6  18
ENDBRANCH  14   6
ENDBRANCH  11  14
ENDBRANCH   7  11
BRANCH   8  13
ATOM     13  C   UNL     1      -4.432  -1.913  23.810  0.00  0.00    +0.124 C 
BRANCH  13  16
ATOM      4  O   UNL     1      -2.730  -3.612  23.413  0.00  0.00    -0.251 OA
ATOM     16  C   UNL     1      -3.450  -2.988  24.180  0.00  0.00    +0.305 C 
BRANCH  16   3
ATOM      3  O   UNL     1      -3.468  -3.182  25.524  0.00  0.00    -0.481 OA
ATOM     27  H   UNL     1      -2.933  -2.509  25.997  0.00  0.00    +0.295 HD
ENDBRANCH  16   3
ENDBRANCH  13  16
ENDBRANCH   8  13
TORSDOF 9
ENDMDL
MODEL 9
REMARK VINA RESULT:      -0.6      2.053      3.659
REMARK  Name = 38026427
REMARK  11 active torsions:
REMARK  status: ('A' for Active; 'I' for Inactive)
REMARK    1  A    between atoms: O_3  and  C_16
REMARK    2  A    between atoms: N_6  and  C_14
REMARK    3  A    between atoms: N_6  and  C_17
REMARK    4  A    between atoms: N_6  and  C_18
REMARK    5  A    between atoms: C_7  and  C_11
REMARK    6  A    between atoms: C_8  and  C_13
REMARK    7  A    between atoms: C_11  and  C_14
REMARK    8  A    between atoms: C_13  and  C_16
REMARK    9  A    between atoms: C_15  and  C_19
REMARK   10  A    between atoms: C_17  and  C_20
REMARK   11  A    between atoms: C_18  and  C_21
REMARK                            x       y       z     vdW  Elec       q    Type
REMARK                         _______ _______ _______ _____ _____    ______ ____
ROOT
ATOM      2  O   UNL     1      -3.692   3.662  22.942  0.00  0.00    -0.270 OA
ATOM      5  N   UNL     1      -2.811   1.502  23.118  0.00  0.00    -0.297 N 
ATOM      7  C   UNL     1      -1.370  -0.142  24.299  0.00  0.00    +0.011 C 
ATOM      8  C   UNL     1      -0.317   0.031  23.174  0.00  0.00    +0.006 C 
ATOM      9  C   UNL     1      -0.426   1.412  22.505  0.00  0.00    +0.023 C 
ATOM     10  C   UNL     1      -2.775   0.180  23.756  0.00  0.00    +0.112 C 
ATOM     12  C   UNL     1      -1.851   1.685  22.031  0.00  0.00    +0.108 C 
ATOM     15  C   UNL     1      -3.662   2.552  23.469  0.00  0.00    +0.247 C 
ENDROOT
BRANCH  15  19
ATOM      1  F   UNL     1      -7.285   1.711  27.650  0.00  0.00    -0.205 F 
ATOM     19  C   UNL     1      -4.612   2.331  24.565  0.00  0.00    +0.037 A 
ATOM     22  C   UNL     1      -5.188   1.074  24.747  0.00  0.00    +0.016 A 
ATOM     23  C   UNL     1      -4.939   3.379  25.427  0.00  0.00    +0.016 A 
ATOM     24  C   UNL     1      -6.091   0.864  25.788  0.00  0.00    +0.039 A 
ATOM     25  C   UNL     1      -5.843   3.169  26.468  0.00  0.00    +0.039 A 
ATOM     26  C   UNL     1      -6.419   1.911  26.650  0.00  0.00    +0.123 A 
ENDBRANCH  15  19
BRANCH   7  11
ATOM     11  C   UNL     1      -1.082   0.689  25.555  0.00  0.00    +0.020 C 
BRANCH  11  14
ATOM     14  C   UNL     1       0.059   1.667  25.309  0.00  0.00    +0.084 C 
BRANCH  14   6
ATOM      6  N   UNL     1      -0.059   2.804  26.213  0.00  0.00    -0.303 NA
BRANCH   6  17
ATOM     17  C   UNL     1       0.070   2.371  27.606  0.00  0.00    +0.081 C 
ATOM     20  C   UNL     1       1.437   2.724  28.166  0.00  0.00    +0.020 C 
ENDBRANCH   6  17
BRANCH   6  18
ATOM     18  C   UNL     1      -1.336   3.491  26.013  0.00  0.00    +0.081 C 
ATOM     21  C   UNL     1      -1.168   4.720  25.137  0.00  0.00    +0.020 C 
ENDBRANCH   6  18
ENDBRANCH  14   6
ENDBRANCH  11  14
ENDBRANCH   7  11
BRANCH   8  13
ATOM     13  C   UNL     1       1.113  -0.229  23.645  0.00  0.00    +0.124 C 
BRANCH  13  16
ATOM      4  O   UNL     1       2.207  -0.212  21.468  0.00  0.00    -0.251 OA
ATOM     16  C   UNL     1       2.122   0.197  22.616  0.00  0.00    +0.305 C 
BRANCH  16   3
ATOM      3  O   UNL     1       2.955   1.128  23.150  0.00  0.00    -0.481 OA
ATOM     27  H   UNL     1       2.568   1.551  23.946  0.00  0.00    +0.295 HD
ENDBRANCH  16   3
ENDBRANCH  13  16
ENDBRANCH   8  13
TORSDOF 9
ENDMDL
