MODEL 1
REMARK VINA RESULT:      -0.4      0.000      0.000
REMARK  Name = 75367694
REMARK  5 active torsions:
REMARK  status: ('A' for Active; 'I' for Inactive)
REMARK    1  A    between atoms: S_1  and  C_19
REMARK    2  A    between atoms: S_1  and  C_23
REMARK    3  A    between atoms: O_3  and  C_10
REMARK    4  A    between atoms: O_3  and  C_16
REMARK    5  A    between atoms: N_8  and  C_22
REMARK                            x       y       z     vdW  Elec       q    Type
REMARK                         _______ _______ _______ _____ _____    ______ ____
ROOT
ATOM      2  O   UNL     1      -1.911   5.349  24.591  0.00  0.00    -0.375 OA
ATOM      4  O   UNL     1      -4.215   1.728  23.106  0.00  0.00    -0.252 OA
ATOM      7  N   UNL     1      -3.877   3.202  24.858  0.00  0.00    -0.280 N 
ATOM      8  N   UNL     1      -3.747   0.874  25.216  0.00  0.00    -0.268 N 
ATOM     10  C   UNL     1      -1.973   3.689  26.410  0.00  0.00    +0.216 C 
ATOM     11  C   UNL     1      -3.484   3.519  26.238  0.00  0.00    +0.156 C 
ATOM     12  C   UNL     1      -1.224   4.263  25.206  0.00  0.00    +0.206 C 
ATOM     13  C   UNL     1      -4.071   4.366  23.988  0.00  0.00    +0.137 C 
ATOM     14  C   UNL     1      -2.744   4.938  23.506  0.00  0.00    +0.179 C 
ATOM     15  C   UNL     1      -3.972   1.904  24.303  0.00  0.00    +0.307 C 
ATOM     28  H   UNL     1      -3.510   1.111  26.172  0.00  0.00    +0.156 HD
ENDROOT
BRANCH   8  22
ATOM      9  N   UNL     1      -3.315  -2.763  25.752  0.00  0.00    -0.261 NA
ATOM     22  C   UNL     1      -3.772  -0.521  24.972  0.00  0.00    +0.053 A 
ATOM     24  C   UNL     1      -4.254  -1.030  23.771  0.00  0.00    +0.026 A 
ATOM     25  C   UNL     1      -3.318  -1.421  25.922  0.00  0.00    +0.134 A 
ATOM     26  C   UNL     1      -4.267  -2.405  23.559  0.00  0.00    +0.021 A 
ATOM     27  C   UNL     1      -3.790  -3.221  24.573  0.00  0.00    +0.111 A 
ENDBRANCH   8  22
BRANCH  10   3
ATOM      3  O   UNL     1      -1.398   2.427  26.749  0.00  0.00    -0.485 OA
BRANCH   3  16
ATOM     16  C   UNL     1      -0.598   1.846  25.803  0.00  0.00    +0.121 A 
ATOM     17  C   UNL     1       0.377   2.603  25.154  0.00  0.00    +0.047 A 
ATOM     18  C   UNL     1      -0.760   0.497  25.487  0.00  0.00    +0.047 A 
ATOM     19  C   UNL     1       1.029   0.661  23.872  0.00  0.00    +0.088 A 
ATOM     20  C   UNL     1       1.191   2.010  24.188  0.00  0.00    +0.030 A 
ATOM     21  C   UNL     1       0.054  -0.095  24.521  0.00  0.00    +0.030 A 
BRANCH  19   1
ATOM      1  S   UNL     1       2.051  -0.081  22.667  0.00  0.00    -0.006 S 
ATOM      5  O   UNL     1       2.671  -1.268  23.239  0.00  0.00    -0.170 OA
ATOM      6  O   UNL     1       1.284  -0.189  21.434  0.00  0.00    -0.170 OA
ATOM     23  C   UNL     1       3.351   1.104  22.399  0.00  0.00    +0.200 C 
ENDBRANCH  19   1
ENDBRANCH   3  16
ENDBRANCH  10   3
TORSDOF 4
ENDMDL
MODEL 2
REMARK VINA RESULT:       0.2      2.844      4.928
REMARK  Name = 75367694
REMARK  5 active torsions:
REMARK  status: ('A' for Active; 'I' for Inactive)
REMARK    1  A    between atoms: S_1  and  C_19
REMARK    2  A    between atoms: S_1  and  C_23
REMARK    3  A    between atoms: O_3  and  C_10
REMARK    4  A    between atoms: O_3  and  C_16
REMARK    5  A    between atoms: N_8  and  C_22
REMARK                            x       y       z     vdW  Elec       q    Type
REMARK                         _______ _______ _______ _____ _____    ______ ____
ROOT
ATOM      2  O   UNL     1      -4.915   4.249  26.233  0.00  0.00    -0.375 OA
ATOM      4  O   UNL     1      -0.718   2.545  26.546  0.00  0.00    -0.252 OA
ATOM      7  N   UNL     1      -2.064   4.167  25.593  0.00  0.00    -0.280 N 
ATOM      8  N   UNL     1      -0.711   2.791  24.235  0.00  0.00    -0.268 N 
ATOM     10  C   UNL     1      -3.965   4.146  23.962  0.00  0.00    +0.216 C 
ATOM     11  C   UNL     1      -2.685   4.834  24.439  0.00  0.00    +0.156 C 
ATOM     12  C   UNL     1      -4.802   3.467  25.048  0.00  0.00    +0.206 C 
ATOM     13  C   UNL     1      -2.582   4.583  26.899  0.00  0.00    +0.137 C 
ATOM     14  C   UNL     1      -3.922   3.928  27.209  0.00  0.00    +0.179 C 
ATOM     15  C   UNL     1      -1.117   3.118  25.529  0.00  0.00    +0.307 C 
ATOM     28  H   UNL     1      -1.125   3.285  23.453  0.00  0.00    +0.156 HD
ENDROOT
BRANCH   8  22
ATOM      9  N   UNL     1       2.467   1.220  23.172  0.00  0.00    -0.261 NA
ATOM     22  C   UNL     1       0.217   1.795  23.844  0.00  0.00    +0.053 A 
ATOM     24  C   UNL     1      -0.162   0.462  23.744  0.00  0.00    +0.026 A 
ATOM     25  C   UNL     1       1.532   2.120  23.550  0.00  0.00    +0.134 A 
ATOM     26  C   UNL     1       0.773  -0.494  23.359  0.00  0.00    +0.021 A 
ATOM     27  C   UNL     1       2.063  -0.067  23.086  0.00  0.00    +0.111 A 
ENDBRANCH   8  22
BRANCH  10   3
ATOM      3  O   UNL     1      -3.631   3.178  22.968  0.00  0.00    -0.485 OA
BRANCH   3  16
ATOM     16  C   UNL     1      -3.588   1.873  23.376  0.00  0.00    +0.121 A 
ATOM     17  C   UNL     1      -3.076   0.894  22.525  0.00  0.00    +0.047 A 
ATOM     18  C   UNL     1      -4.059   1.522  24.641  0.00  0.00    +0.047 A 
ATOM     19  C   UNL     1      -3.503  -0.788  24.206  0.00  0.00    +0.088 A 
ATOM     20  C   UNL     1      -3.033  -0.438  22.941  0.00  0.00    +0.030 A 
ATOM     21  C   UNL     1      -4.016   0.191  25.057  0.00  0.00    +0.030 A 
BRANCH  19   1
ATOM      1  S   UNL     1      -3.445  -2.454  24.727  0.00  0.00    -0.006 S 
ATOM      5  O   UNL     1      -3.502  -2.496  26.182  0.00  0.00    -0.170 OA
ATOM      6  O   UNL     1      -4.418  -3.203  23.944  0.00  0.00    -0.170 OA
ATOM     23  C   UNL     1      -1.822  -3.009  24.256  0.00  0.00    +0.200 C 
ENDBRANCH  19   1
ENDBRANCH   3  16
ENDBRANCH  10   3
TORSDOF 4
ENDMDL
MODEL 3
REMARK VINA RESULT:       1.5      2.506      4.595
REMARK  Name = 75367694
REMARK  5 active torsions:
REMARK  status: ('A' for Active; 'I' for Inactive)
REMARK    1  A    between atoms: S_1  and  C_19
REMARK    2  A    between atoms: S_1  and  C_23
REMARK    3  A    between atoms: O_3  and  C_10
REMARK    4  A    between atoms: O_3  and  C_16
REMARK    5  A    between atoms: N_8  and  C_22
REMARK                            x       y       z     vdW  Elec       q    Type
REMARK                         _______ _______ _______ _____ _____    ______ ____
ROOT
ATOM      2  O   UNL     1      -5.560   1.820  24.679  0.00  0.00    -0.375 OA
ATOM      4  O   UNL     1      -2.675   4.141  27.308  0.00  0.00    -0.252 OA
ATOM      7  N   UNL     1      -3.073   3.263  25.204  0.00  0.00    -0.280 N 
ATOM      8  N   UNL     1      -1.074   2.755  26.350  0.00  0.00    -0.268 N 
ATOM     10  C   UNL     1      -3.292   0.949  24.272  0.00  0.00    +0.216 C 
ATOM     11  C   UNL     1      -2.753   2.369  24.083  0.00  0.00    +0.156 C 
ATOM     12  C   UNL     1      -4.604   0.831  25.049  0.00  0.00    +0.206 C 
ATOM     13  C   UNL     1      -4.379   3.921  25.116  0.00  0.00    +0.137 C 
ATOM     14  C   UNL     1      -5.512   2.981  25.510  0.00  0.00    +0.179 C 
ATOM     15  C   UNL     1      -2.287   3.444  26.367  0.00  0.00    +0.307 C 
ATOM     28  H   UNL     1      -0.855   2.168  25.554  0.00  0.00    +0.156 HD
ENDROOT
BRANCH   8  22
ATOM      9  N   UNL     1       2.266   2.841  27.943  0.00  0.00    -0.261 NA
ATOM     22  C   UNL     1      -0.077   2.733  27.356  0.00  0.00    +0.053 A 
ATOM     24  C   UNL     1      -0.414   2.593  28.697  0.00  0.00    +0.026 A 
ATOM     25  C   UNL     1       1.265   2.853  27.034  0.00  0.00    +0.134 A 
ATOM     26  C   UNL     1       0.587   2.576  29.663  0.00  0.00    +0.021 A 
ATOM     27  C   UNL     1       1.901   2.702  29.237  0.00  0.00    +0.111 A 
ENDBRANCH   8  22
BRANCH  10   3
ATOM      3  O   UNL     1      -2.300   0.157  24.924  0.00  0.00    -0.485 OA
BRANCH   3  16
ATOM     16  C   UNL     1      -1.043   0.183  24.383  0.00  0.00    +0.121 A 
ATOM     17  C   UNL     1      -0.350  -1.008  24.173  0.00  0.00    +0.047 A 
ATOM     18  C   UNL     1      -0.457   1.402  24.042  0.00  0.00    +0.047 A 
ATOM     19  C   UNL     1       1.518   0.238  23.281  0.00  0.00    +0.088 A 
ATOM     20  C   UNL     1       0.932  -0.981  23.622  0.00  0.00    +0.030 A 
ATOM     21  C   UNL     1       0.825   1.429  23.491  0.00  0.00    +0.030 A 
BRANCH  19   1
ATOM      1  S   UNL     1       3.121   0.270  22.587  0.00  0.00    -0.006 S 
ATOM      5  O   UNL     1       3.023  -0.012  21.162  0.00  0.00    -0.170 OA
ATOM      6  O   UNL     1       3.780   1.487  23.040  0.00  0.00    -0.170 OA
ATOM     23  C   UNL     1       3.954  -1.114  23.333  0.00  0.00    +0.200 C 
ENDBRANCH  19   1
ENDBRANCH   3  16
ENDBRANCH  10   3
TORSDOF 4
ENDMDL
MODEL 4
REMARK VINA RESULT:       1.8      1.758      2.412
REMARK  Name = 75367694
REMARK  5 active torsions:
REMARK  status: ('A' for Active; 'I' for Inactive)
REMARK    1  A    between atoms: S_1  and  C_19
REMARK    2  A    between atoms: S_1  and  C_23
REMARK    3  A    between atoms: O_3  and  C_10
REMARK    4  A    between atoms: O_3  and  C_16
REMARK    5  A    between atoms: N_8  and  C_22
REMARK                            x       y       z     vdW  Elec       q    Type
REMARK                         _______ _______ _______ _____ _____    ______ ____
ROOT
ATOM      2  O   UNL     1      -2.865   4.864  24.347  0.00  0.00    -0.375 OA
ATOM      4  O   UNL     1      -5.128   1.086  25.453  0.00  0.00    -0.252 OA
ATOM      7  N   UNL     1      -3.185   2.311  25.734  0.00  0.00    -0.280 N 
ATOM      8  N   UNL     1      -3.084   0.046  25.078  0.00  0.00    -0.268 N 
ATOM     10  C   UNL     1      -1.288   2.974  24.239  0.00  0.00    +0.216 C 
ATOM     11  C   UNL     1      -1.731   2.493  25.622  0.00  0.00    +0.156 C 
ATOM     12  C   UNL     1      -2.274   3.881  23.501  0.00  0.00    +0.206 C 
ATOM     13  C   UNL     1      -3.933   3.518  26.092  0.00  0.00    +0.137 C 
ATOM     14  C   UNL     1      -4.116   4.446  24.897  0.00  0.00    +0.179 C 
ATOM     15  C   UNL     1      -3.896   1.126  25.426  0.00  0.00    +0.307 C 
ATOM     28  H   UNL     1      -2.080   0.182  25.038  0.00  0.00    +0.156 HD
ENDROOT
BRANCH   8  22
ATOM      9  N   UNL     1      -3.339  -3.646  25.098  0.00  0.00    -0.261 NA
ATOM     22  C   UNL     1      -3.490  -1.263  24.721  0.00  0.00    +0.053 A 
ATOM     24  C   UNL     1      -4.400  -1.476  23.692  0.00  0.00    +0.026 A 
ATOM     25  C   UNL     1      -2.994  -2.371  25.388  0.00  0.00    +0.134 A 
ATOM     26  C   UNL     1      -4.781  -2.773  23.365  0.00  0.00    +0.021 A 
ATOM     27  C   UNL     1      -4.226  -3.815  24.092  0.00  0.00    +0.111 A 
ENDBRANCH   8  22
BRANCH  10   3
ATOM      3  O   UNL     1      -1.007   1.841  23.419  0.00  0.00    -0.485 OA
BRANCH   3  16
ATOM     16  C   UNL     1       0.295   1.420  23.383  0.00  0.00    +0.121 A 
ATOM     17  C   UNL     1       0.588   0.080  23.134  0.00  0.00    +0.047 A 
ATOM     18  C   UNL     1       1.328   2.333  23.597  0.00  0.00    +0.047 A 
ATOM     19  C   UNL     1       2.948   0.564  23.312  0.00  0.00    +0.088 A 
ATOM     20  C   UNL     1       1.915  -0.349  23.098  0.00  0.00    +0.030 A 
ATOM     21  C   UNL     1       2.655   1.904  23.562  0.00  0.00    +0.030 A 
BRANCH  19   1
ATOM      1  S   UNL     1       4.610   0.028  23.263  0.00  0.00    -0.006 S 
ATOM      5  O   UNL     1       5.067   0.036  21.881  0.00  0.00    -0.170 OA
ATOM      6  O   UNL     1       5.350   0.768  24.274  0.00  0.00    -0.170 OA
ATOM     23  C   UNL     1       4.540  -1.675  23.774  0.00  0.00    +0.200 C 
ENDBRANCH  19   1
ENDBRANCH   3  16
ENDBRANCH  10   3
TORSDOF 4
ENDMDL
MODEL 5
REMARK VINA RESULT:       2.0      2.564      6.255
REMARK  Name = 75367694
REMARK  5 active torsions:
REMARK  status: ('A' for Active; 'I' for Inactive)
REMARK    1  A    between atoms: S_1  and  C_19
REMARK    2  A    between atoms: S_1  and  C_23
REMARK    3  A    between atoms: O_3  and  C_10
REMARK    4  A    between atoms: O_3  and  C_16
REMARK    5  A    between atoms: N_8  and  C_22
REMARK                            x       y       z     vdW  Elec       q    Type
REMARK                         _______ _______ _______ _____ _____    ______ ____
ROOT
ATOM      2  O   UNL     1      -4.778  -3.370  24.262  0.00  0.00    -0.375 OA
ATOM      4  O   UNL     1      -0.367  -2.502  24.897  0.00  0.00    -0.252 OA
ATOM      7  N   UNL     1      -2.537  -1.827  25.330  0.00  0.00    -0.280 N 
ATOM      8  N   UNL     1      -0.980  -0.314  24.407  0.00  0.00    -0.268 N 
ATOM     10  C   UNL     1      -4.424  -0.954  23.933  0.00  0.00    +0.216 C 
ATOM     11  C   UNL     1      -3.645  -0.864  25.247  0.00  0.00    +0.156 C 
ATOM     12  C   UNL     1      -4.516  -2.346  23.306  0.00  0.00    +0.206 C 
ATOM     13  C   UNL     1      -2.909  -3.154  25.829  0.00  0.00    +0.137 C 
ATOM     14  C   UNL     1      -3.589  -3.991  24.753  0.00  0.00    +0.179 C 
ATOM     15  C   UNL     1      -1.214  -1.606  24.880  0.00  0.00    +0.307 C 
ATOM     28  H   UNL     1      -1.747   0.347  24.388  0.00  0.00    +0.156 HD
ENDROOT
BRANCH   8  22
ATOM      9  N   UNL     1       1.844   2.014  23.850  0.00  0.00    -0.261 NA
ATOM     22  C   UNL     1       0.231   0.213  23.894  0.00  0.00    +0.053 A 
ATOM     24  C   UNL     1       0.988  -0.497  22.970  0.00  0.00    +0.026 A 
ATOM     25  C   UNL     1       0.698   1.453  24.299  0.00  0.00    +0.134 A 
ATOM     26  C   UNL     1       2.172   0.047  22.484  0.00  0.00    +0.021 A 
ATOM     27  C   UNL     1       2.553   1.295  22.952  0.00  0.00    +0.111 A 
ENDBRANCH   8  22
BRANCH  10   3
ATOM      3  O   UNL     1      -3.842  -0.062  22.984  0.00  0.00    -0.485 OA
BRANCH   3  16
ATOM     16  C   UNL     1      -3.467   1.168  23.452  0.00  0.00    +0.121 A 
ATOM     17  C   UNL     1      -4.051   1.682  24.609  0.00  0.00    +0.047 A 
ATOM     18  C   UNL     1      -2.500   1.908  22.770  0.00  0.00    +0.047 A 
ATOM     19  C   UNL     1      -2.703   3.676  24.403  0.00  0.00    +0.088 A 
ATOM     20  C   UNL     1      -3.669   2.937  25.085  0.00  0.00    +0.030 A 
ATOM     21  C   UNL     1      -2.118   3.163  23.246  0.00  0.00    +0.030 A 
BRANCH  19   1
ATOM      1  S   UNL     1      -2.222   5.245  25.002  0.00  0.00    -0.006 S 
ATOM      5  O   UNL     1      -2.654   6.264  24.056  0.00  0.00    -0.170 OA
ATOM      6  O   UNL     1      -2.628   5.335  26.398  0.00  0.00    -0.170 OA
ATOM     23  C   UNL     1      -0.444   5.211  24.951  0.00  0.00    +0.200 C 
ENDBRANCH  19   1
ENDBRANCH   3  16
ENDBRANCH  10   3
TORSDOF 4
ENDMDL
MODEL 6
REMARK VINA RESULT:       2.6      2.309      4.999
REMARK  Name = 75367694
REMARK  5 active torsions:
REMARK  status: ('A' for Active; 'I' for Inactive)
REMARK    1  A    between atoms: S_1  and  C_19
REMARK    2  A    between atoms: S_1  and  C_23
REMARK    3  A    between atoms: O_3  and  C_10
REMARK    4  A    between atoms: O_3  and  C_16
REMARK    5  A    between atoms: N_8  and  C_22
REMARK                            x       y       z     vdW  Elec       q    Type
REMARK                         _______ _______ _______ _____ _____    ______ ____
ROOT
ATOM      2  O   UNL     1      -2.337  -2.980  24.284  0.00  0.00    -0.375 OA
ATOM      4  O   UNL     1      -5.053   0.283  25.897  0.00  0.00    -0.252 OA
ATOM      7  N   UNL     1      -4.073  -0.644  24.016  0.00  0.00    -0.280 N 
ATOM      8  N   UNL     1      -3.833   1.658  24.474  0.00  0.00    -0.268 N 
ATOM     10  C   UNL     1      -1.723  -0.866  23.180  0.00  0.00    +0.216 C 
ATOM     11  C   UNL     1      -3.189  -0.585  22.844  0.00  0.00    +0.156 C 
ATOM     12  C   UNL     1      -1.477  -1.845  24.328  0.00  0.00    +0.206 C 
ATOM     13  C   UNL     1      -4.572  -1.981  24.348  0.00  0.00    +0.137 C 
ATOM     14  C   UNL     1      -3.520  -2.814  25.069  0.00  0.00    +0.179 C 
ATOM     15  C   UNL     1      -4.378   0.438  24.876  0.00  0.00    +0.307 C 
ATOM     28  H   UNL     1      -3.253   1.686  23.644  0.00  0.00    +0.156 HD
ENDROOT
BRANCH   8  22
ATOM      9  N   UNL     1      -5.388   4.682  25.938  0.00  0.00    -0.261 NA
ATOM     22  C   UNL     1      -3.957   2.915  25.117  0.00  0.00    +0.053 A 
ATOM     24  C   UNL     1      -2.835   3.611  25.553  0.00  0.00    +0.026 A 
ATOM     25  C   UNL     1      -5.200   3.488  25.332  0.00  0.00    +0.134 A 
ATOM     26  C   UNL     1      -2.988   4.842  26.181  0.00  0.00    +0.021 A 
ATOM     27  C   UNL     1      -4.275   5.330  26.348  0.00  0.00    +0.111 A 
ENDBRANCH   8  22
BRANCH  10   3
ATOM      3  O   UNL     1      -1.071   0.368  23.482  0.00  0.00    -0.485 OA
BRANCH   3  16
ATOM     16  C   UNL     1       0.296   0.370  23.410  0.00  0.00    +0.121 A 
ATOM     17  C   UNL     1       1.020   1.432  23.950  0.00  0.00    +0.047 A 
ATOM     18  C   UNL     1       0.963  -0.690  22.796  0.00  0.00    +0.047 A 
ATOM     19  C   UNL     1       3.081   0.375  23.262  0.00  0.00    +0.088 A 
ATOM     20  C   UNL     1       2.414   1.434  23.876  0.00  0.00    +0.030 A 
ATOM     21  C   UNL     1       2.357  -0.687  22.722  0.00  0.00    +0.030 A 
BRANCH  19   1
ATOM      1  S   UNL     1       4.825   0.377  23.174  0.00  0.00    -0.006 S 
ATOM      5  O   UNL     1       5.227   0.165  21.791  0.00  0.00    -0.170 OA
ATOM      6  O   UNL     1       5.309   1.544  23.897  0.00  0.00    -0.170 OA
ATOM     23  C   UNL     1       5.315  -1.072  24.083  0.00  0.00    +0.200 C 
ENDBRANCH  19   1
ENDBRANCH   3  16
ENDBRANCH  10   3
TORSDOF 4
ENDMDL
MODEL 7
REMARK VINA RESULT:       3.5      2.902      5.294
REMARK  Name = 75367694
REMARK  5 active torsions:
REMARK  status: ('A' for Active; 'I' for Inactive)
REMARK    1  A    between atoms: S_1  and  C_19
REMARK    2  A    between atoms: S_1  and  C_23
REMARK    3  A    between atoms: O_3  and  C_10
REMARK    4  A    between atoms: O_3  and  C_16
REMARK    5  A    between atoms: N_8  and  C_22
REMARK                            x       y       z     vdW  Elec       q    Type
REMARK                         _______ _______ _______ _____ _____    ______ ____
ROOT
ATOM      2  O   UNL     1       0.354   4.196  25.898  0.00  0.00    -0.375 OA
ATOM      4  O   UNL     1      -1.147  -0.004  26.755  0.00  0.00    -0.252 OA
ATOM      7  N   UNL     1       0.273   1.304  25.478  0.00  0.00    -0.280 N 
ATOM      8  N   UNL     1      -1.243  -0.176  24.439  0.00  0.00    -0.268 N 
ATOM     10  C   UNL     1      -0.050   3.078  23.741  0.00  0.00    +0.216 C 
ATOM     11  C   UNL     1       0.742   1.852  24.198  0.00  0.00    +0.156 C 
ATOM     12  C   UNL     1      -0.590   3.978  24.854  0.00  0.00    +0.206 C 
ATOM     13  C   UNL     1       0.859   1.926  26.669  0.00  0.00    +0.137 C 
ATOM     14  C   UNL     1       0.213   3.271  26.979  0.00  0.00    +0.179 C 
ATOM     15  C   UNL     1      -0.743   0.332  25.639  0.00  0.00    +0.307 C 
ATOM     28  H   UNL     1      -0.884   0.191  23.565  0.00  0.00    +0.156 HD
ENDROOT
BRANCH   8  22
ATOM      9  N   UNL     1      -2.874  -3.487  24.159  0.00  0.00    -0.261 NA
ATOM     22  C   UNL     1      -2.255  -1.152  24.267  0.00  0.00    +0.053 A 
ATOM     24  C   UNL     1      -3.577  -0.783  24.045  0.00  0.00    +0.026 A 
ATOM     25  C   UNL     1      -1.958  -2.504  24.315  0.00  0.00    +0.134 A 
ATOM     26  C   UNL     1      -4.548  -1.765  23.880  0.00  0.00    +0.021 A 
ATOM     27  C   UNL     1      -4.149  -3.090  23.945  0.00  0.00    +0.111 A 
ENDBRANCH   8  22
BRANCH  10   3
ATOM      3  O   UNL     1      -1.142   2.651  22.927  0.00  0.00    -0.485 OA
BRANCH   3  16
ATOM     16  C   UNL     1      -2.375   2.633  23.520  0.00  0.00    +0.121 A 
ATOM     17  C   UNL     1      -3.497   2.250  22.785  0.00  0.00    +0.047 A 
ATOM     18  C   UNL     1      -2.510   2.997  24.860  0.00  0.00    +0.047 A 
ATOM     19  C   UNL     1      -4.889   2.598  24.729  0.00  0.00    +0.088 A 
ATOM     20  C   UNL     1      -4.754   2.233  23.389  0.00  0.00    +0.030 A 
ATOM     21  C   UNL     1      -3.768   2.980  25.464  0.00  0.00    +0.030 A 
BRANCH  19   1
ATOM      1  S   UNL     1      -6.462   2.571  25.486  0.00  0.00    -0.006 S 
ATOM      5  O   UNL     1      -6.773   3.907  25.975  0.00  0.00    -0.170 OA
ATOM      6  O   UNL     1      -7.384   1.900  24.580  0.00  0.00    -0.170 OA
ATOM     23  C   UNL     1      -6.248   1.534  26.915  0.00  0.00    +0.200 C 
ENDBRANCH  19   1
ENDBRANCH   3  16
ENDBRANCH  10   3
TORSDOF 4
ENDMDL
