MODEL 1
REMARK VINA RESULT:      -4.4      0.000      0.000
REMARK  Name = 45783344
REMARK  9 active torsions:
REMARK  status: ('A' for Active; 'I' for Inactive)
REMARK    1  A    between atoms: O_2  and  C_24
REMARK    2  A    between atoms: O_2  and  C_26
REMARK    3  A    between atoms: O_3  and  C_27
REMARK    4  A    between atoms: O_3  and  C_28
REMARK    5  A    between atoms: N_4  and  C_9
REMARK    6  A    between atoms: C_8  and  C_9
REMARK    7  A    between atoms: C_10  and  C_19
REMARK    8  A    between atoms: C_20  and  C_21
REMARK    9  A    between atoms: C_26  and  C_27
REMARK                            x       y       z     vdW  Elec       q    Type
REMARK                         _______ _______ _______ _____ _____    ______ ____
ROOT
ATOM      1  O   UNL     1      -1.950   2.582  25.448  0.00  0.00    -0.336 OA
ATOM      5  N   UNL     1      -1.959   1.604  23.432  0.00  0.00    -0.190 NA
ATOM      6  N   UNL     1      -0.636   2.152  25.216  0.00  0.00    -0.056 NA
ATOM     19  C   UNL     1      -2.662   2.220  24.349  0.00  0.00    +0.245 A 
ATOM     20  C   UNL     1      -0.722   1.586  24.010  0.00  0.00    +0.202 A 
ENDROOT
BRANCH  20  21
ATOM      7  N   UNL     1       2.605  -0.165  22.072  0.00  0.00    -0.221 NA
ATOM     21  C   UNL     1       0.407   0.992  23.353  0.00  0.00    +0.029 A 
ATOM     22  C   UNL     1       1.678   1.530  23.525  0.00  0.00    +0.079 A 
ATOM     23  C   UNL     1       0.234  -0.123  22.541  0.00  0.00    +0.031 A 
ATOM     24  C   UNL     1       2.734   0.920  22.868  0.00  0.00    +0.215 A 
ATOM     25  C   UNL     1       1.355  -0.658  21.928  0.00  0.00    +0.115 A 
BRANCH  24   2
ATOM      2  O   UNL     1       3.996   1.430  23.024  0.00  0.00    -0.474 OA
BRANCH   2  26
ATOM     26  C   UNL     1       5.075   0.506  22.936  0.00  0.00    +0.258 C 
BRANCH  26  27
ATOM     27  C   UNL     1       5.734   0.384  24.297  0.00  0.00    +0.200 C 
BRANCH  27   3
ATOM      3  O   UNL     1       5.658  -0.969  24.728  0.00  0.00    -0.380 OA
ATOM     28  C   UNL     1       4.774  -1.726  23.914  0.00  0.00    +0.194 C 
ENDBRANCH  27   3
ENDBRANCH  26  27
ENDBRANCH   2  26
ENDBRANCH  24   2
ENDBRANCH  20  21
BRANCH  19  10
ATOM      4  N   UNL     1      -4.927   1.711  25.245  0.00  0.00    -0.291 NA
ATOM     10  C   UNL     1      -4.134   2.577  24.351  0.00  0.00    +0.146 C 
ATOM     13  C   UNL     1      -6.058   2.518  25.705  0.00  0.00    +0.085 C 
ATOM     14  C   UNL     1      -4.398   4.007  24.854  0.00  0.00    +0.030 C 
ATOM     15  C   UNL     1      -5.396   3.850  25.993  0.00  0.00    +0.017 C 
BRANCH   4   9
ATOM      9  C   UNL     1      -5.359   0.471  24.613  0.00  0.00    +0.088 C 
BRANCH   9   8
ATOM      8  C   UNL     1      -4.190  -0.500  24.462  0.00  0.00    +0.003 C 
ATOM     11  C   UNL     1      -3.498  -0.728  25.813  0.00  0.00    +0.005 C 
ATOM     12  C   UNL     1      -4.664  -1.829  23.860  0.00  0.00    +0.005 C 
ATOM     16  C   UNL     1      -2.358  -1.737  25.700  0.00  0.00    +0.000 C 
ATOM     17  C   UNL     1      -3.521  -2.837  23.750  0.00  0.00    +0.000 C 
ATOM     18  C   UNL     1      -2.831  -3.054  25.093  0.00  0.00    +0.000 C 
ENDBRANCH   9   8
ENDBRANCH   4   9
ENDBRANCH  19  10
TORSDOF 8
ENDMDL
MODEL 2
REMARK VINA RESULT:      -3.3     17.074     19.405
REMARK  Name = 45783344
REMARK  9 active torsions:
REMARK  status: ('A' for Active; 'I' for Inactive)
REMARK    1  A    between atoms: O_2  and  C_24
REMARK    2  A    between atoms: O_2  and  C_26
REMARK    3  A    between atoms: O_3  and  C_27
REMARK    4  A    between atoms: O_3  and  C_28
REMARK    5  A    between atoms: N_4  and  C_9
REMARK    6  A    between atoms: C_8  and  C_9
REMARK    7  A    between atoms: C_10  and  C_19
REMARK    8  A    between atoms: C_20  and  C_21
REMARK    9  A    between atoms: C_26  and  C_27
REMARK                            x       y       z     vdW  Elec       q    Type
REMARK                         _______ _______ _______ _____ _____    ______ ____
ROOT
ATOM      1  O   UNL     1      15.164  -9.456  28.633  0.00  0.00    -0.336 OA
ATOM      5  N   UNL     1      16.536  -7.686  28.608  0.00  0.00    -0.190 NA
ATOM      6  N   UNL     1      15.305  -9.091  27.287  0.00  0.00    -0.056 NA
ATOM     19  C   UNL     1      15.921  -8.578  29.342  0.00  0.00    +0.245 A 
ATOM     20  C   UNL     1      16.128  -8.041  27.355  0.00  0.00    +0.202 A 
ENDROOT
BRANCH  20  21
ATOM      7  N   UNL     1      17.405  -5.927  23.921  0.00  0.00    -0.221 NA
ATOM     21  C   UNL     1      16.561  -7.323  26.190  0.00  0.00    +0.029 A 
ATOM     22  C   UNL     1      16.707  -5.941  26.236  0.00  0.00    +0.079 A 
ATOM     23  C   UNL     1      16.836  -8.007  25.012  0.00  0.00    +0.031 A 
ATOM     24  C   UNL     1      17.127  -5.295  25.084  0.00  0.00    +0.215 A 
ATOM     25  C   UNL     1      17.250  -7.269  23.915  0.00  0.00    +0.115 A 
BRANCH  24   2
ATOM      2  O   UNL     1      17.280  -3.934  25.105  0.00  0.00    -0.474 OA
BRANCH   2  26
ATOM     26  C   UNL     1      16.396  -3.179  24.284  0.00  0.00    +0.258 C 
BRANCH  26  27
ATOM     27  C   UNL     1      17.212  -2.330  23.328  0.00  0.00    +0.200 C 
BRANCH  27   3
ATOM      3  O   UNL     1      16.756  -0.985  23.397  0.00  0.00    -0.380 OA
ATOM     28  C   UNL     1      17.040  -0.404  24.662  0.00  0.00    +0.194 C 
ENDBRANCH  27   3
ENDBRANCH  26  27
ENDBRANCH   2  26
ENDBRANCH  24   2
ENDBRANCH  20  21
BRANCH  19  10
ATOM      4  N   UNL     1      15.111  -9.902  31.286  0.00  0.00    -0.291 NA
ATOM     10  C   UNL     1      15.937  -8.762  30.845  0.00  0.00    +0.146 C 
ATOM     13  C   UNL     1      15.722 -10.403  32.518  0.00  0.00    +0.085 C 
ATOM     14  C   UNL     1      17.344  -9.063  31.392  0.00  0.00    +0.030 C 
ATOM     15  C   UNL     1      17.197 -10.359  32.176  0.00  0.00    +0.017 C 
BRANCH   4   9
ATOM      9  C   UNL     1      13.706  -9.558  31.472  0.00  0.00    +0.088 C 
BRANCH   9   8
ATOM      8  C   UNL     1      13.515  -8.043  31.487  0.00  0.00    +0.003 C 
ATOM     11  C   UNL     1      12.576  -7.604  30.355  0.00  0.00    +0.005 C 
ATOM     12  C   UNL     1      12.982  -7.578  32.850  0.00  0.00    +0.005 C 
ATOM     16  C   UNL     1      12.326  -6.098  30.382  0.00  0.00    +0.000 C 
ATOM     17  C   UNL     1      12.731  -6.071  32.872  0.00  0.00    +0.000 C 
ATOM     18  C   UNL     1      11.805  -5.638  31.740  0.00  0.00    +0.000 C 
ENDBRANCH   9   8
ENDBRANCH   4   9
ENDBRANCH  19  10
TORSDOF 8
ENDMDL
MODEL 3
REMARK VINA RESULT:      -3.0     17.639     18.919
REMARK  Name = 45783344
REMARK  9 active torsions:
REMARK  status: ('A' for Active; 'I' for Inactive)
REMARK    1  A    between atoms: O_2  and  C_24
REMARK    2  A    between atoms: O_2  and  C_26
REMARK    3  A    between atoms: O_3  and  C_27
REMARK    4  A    between atoms: O_3  and  C_28
REMARK    5  A    between atoms: N_4  and  C_9
REMARK    6  A    between atoms: C_8  and  C_9
REMARK    7  A    between atoms: C_10  and  C_19
REMARK    8  A    between atoms: C_20  and  C_21
REMARK    9  A    between atoms: C_26  and  C_27
REMARK                            x       y       z     vdW  Elec       q    Type
REMARK                         _______ _______ _______ _____ _____    ______ ____
ROOT
ATOM      1  O   UNL     1      14.831  -7.492  28.890  0.00  0.00    -0.336 OA
ATOM      5  N   UNL     1      16.507  -6.104  28.355  0.00  0.00    -0.190 NA
ATOM      6  N   UNL     1      14.957  -7.550  27.495  0.00  0.00    -0.056 NA
ATOM     19  C   UNL     1      15.781  -6.618  29.316  0.00  0.00    +0.245 A 
ATOM     20  C   UNL     1      15.965  -6.707  27.257  0.00  0.00    +0.202 A 
ENDROOT
BRANCH  20  21
ATOM      7  N   UNL     1      17.405  -5.926  23.358  0.00  0.00    -0.221 NA
ATOM     21  C   UNL     1      16.454  -6.441  25.935  0.00  0.00    +0.029 A 
ATOM     22  C   UNL     1      16.668  -5.132  25.519  0.00  0.00    +0.079 A 
ATOM     23  C   UNL     1      16.714  -7.493  25.064  0.00  0.00    +0.031 A 
ATOM     24  C   UNL     1      17.140  -4.929  24.232  0.00  0.00    +0.215 A 
ATOM     25  C   UNL     1      17.184  -7.184  23.797  0.00  0.00    +0.115 A 
BRANCH  24   2
ATOM      2  O   UNL     1      17.361  -3.648  23.800  0.00  0.00    -0.474 OA
BRANCH   2  26
ATOM     26  C   UNL     1      16.402  -3.102  22.901  0.00  0.00    +0.258 C 
BRANCH  26  27
ATOM     27  C   UNL     1      16.440  -1.588  22.995  0.00  0.00    +0.200 C 
BRANCH  27   3
ATOM      3  O   UNL     1      17.358  -1.211  24.014  0.00  0.00    -0.380 OA
ATOM     28  C   UNL     1      16.883  -0.096  24.755  0.00  0.00    +0.194 C 
ENDBRANCH  27   3
ENDBRANCH  26  27
ENDBRANCH   2  26
ENDBRANCH  24   2
ENDBRANCH  20  21
BRANCH  19  10
ATOM      4  N   UNL     1      15.230  -7.461  31.591  0.00  0.00    -0.291 NA
ATOM     10  C   UNL     1      15.853  -6.376  30.809  0.00  0.00    +0.146 C 
ATOM     13  C   UNL     1      15.936  -7.505  32.872  0.00  0.00    +0.085 C 
ATOM     14  C   UNL     1      17.300  -6.298  31.329  0.00  0.00    +0.030 C 
ATOM     15  C   UNL     1      17.379  -7.334  32.441  0.00  0.00    +0.017 C 
BRANCH   4   9
ATOM      9  C   UNL     1      13.792  -7.295  31.763  0.00  0.00    +0.088 C 
BRANCH   9   8
ATOM      8  C   UNL     1      13.106  -8.648  31.939  0.00  0.00    +0.003 C 
ATOM     11  C   UNL     1      11.664  -8.464  32.433  0.00  0.00    +0.005 C 
ATOM     12  C   UNL     1      13.136  -9.446  30.628  0.00  0.00    +0.005 C 
ATOM     16  C   UNL     1      10.939  -9.800  32.566  0.00  0.00    +0.000 C 
ATOM     17  C   UNL     1      12.407 -10.781  30.765  0.00  0.00    +0.000 C 
ATOM     18  C   UNL     1      10.978 -10.594  31.264  0.00  0.00    +0.000 C 
ENDBRANCH   9   8
ENDBRANCH   4   9
ENDBRANCH  19  10
TORSDOF 8
ENDMDL
MODEL 4
REMARK VINA RESULT:      -2.9     17.858     19.270
REMARK  Name = 45783344
REMARK  9 active torsions:
REMARK  status: ('A' for Active; 'I' for Inactive)
REMARK    1  A    between atoms: O_2  and  C_24
REMARK    2  A    between atoms: O_2  and  C_26
REMARK    3  A    between atoms: O_3  and  C_27
REMARK    4  A    between atoms: O_3  and  C_28
REMARK    5  A    between atoms: N_4  and  C_9
REMARK    6  A    between atoms: C_8  and  C_9
REMARK    7  A    between atoms: C_10  and  C_19
REMARK    8  A    between atoms: C_20  and  C_21
REMARK    9  A    between atoms: C_26  and  C_27
REMARK                            x       y       z     vdW  Elec       q    Type
REMARK                         _______ _______ _______ _____ _____    ______ ____
ROOT
ATOM      1  O   UNL     1      14.828  -8.271  28.781  0.00  0.00    -0.336 OA
ATOM      5  N   UNL     1      16.389  -6.704  28.429  0.00  0.00    -0.190 NA
ATOM      6  N   UNL     1      14.996  -8.193  27.392  0.00  0.00    -0.056 NA
ATOM     19  C   UNL     1      15.685  -7.362  29.315  0.00  0.00    +0.245 A 
ATOM     20  C   UNL     1      15.932  -7.249  27.264  0.00  0.00    +0.202 A 
ENDROOT
BRANCH  20  21
ATOM      7  N   UNL     1      17.404  -6.000  23.500  0.00  0.00    -0.221 NA
ATOM     21  C   UNL     1      16.431  -6.825  25.987  0.00  0.00    +0.029 A 
ATOM     22  C   UNL     1      16.646  -5.474  25.735  0.00  0.00    +0.079 A 
ATOM     23  C   UNL     1      16.702  -7.763  24.998  0.00  0.00    +0.031 A 
ATOM     24  C   UNL     1      17.129  -5.117  24.487  0.00  0.00    +0.215 A 
ATOM     25  C   UNL     1      17.182  -7.303  23.782  0.00  0.00    +0.115 A 
BRANCH  24   2
ATOM      2  O   UNL     1      17.351  -3.793  24.214  0.00  0.00    -0.474 OA
BRANCH   2  26
ATOM     26  C   UNL     1      16.916  -3.319  22.945  0.00  0.00    +0.258 C 
BRANCH  26  27
ATOM     27  C   UNL     1      16.205  -1.992  23.129  0.00  0.00    +0.200 C 
BRANCH  27   3
ATOM      3  O   UNL     1      17.116  -1.050  23.681  0.00  0.00    -0.380 OA
ATOM     28  C   UNL     1      16.742  -0.677  25.000  0.00  0.00    +0.194 C 
ENDBRANCH  27   3
ENDBRANCH  26  27
ENDBRANCH   2  26
ENDBRANCH  24   2
ENDBRANCH  20  21
BRANCH  19  10
ATOM      4  N   UNL     1      14.352  -7.000  31.384  0.00  0.00    -0.291 NA
ATOM     10  C   UNL     1      15.695  -7.250  30.824  0.00  0.00    +0.146 C 
ATOM     13  C   UNL     1      14.345  -7.593  32.722  0.00  0.00    +0.085 C 
ATOM     14  C   UNL     1      16.173  -8.540  31.514  0.00  0.00    +0.030 C 
ATOM     15  C   UNL     1      15.060  -8.908  32.485  0.00  0.00    +0.017 C 
BRANCH   4   9
ATOM      9  C   UNL     1      13.992  -5.588  31.409  0.00  0.00    +0.088 C 
BRANCH   9   8
ATOM      8  C   UNL     1      15.229  -4.714  31.611  0.00  0.00    +0.003 C 
ATOM     11  C   UNL     1      15.829  -4.304  30.259  0.00  0.00    +0.005 C 
ATOM     12  C   UNL     1      14.887  -3.478  32.454  0.00  0.00    +0.005 C 
ATOM     16  C   UNL     1      17.036  -3.386  30.433  0.00  0.00    +0.000 C 
ATOM     17  C   UNL     1      16.097  -2.560  32.624  0.00  0.00    +0.000 C 
ATOM     18  C   UNL     1      16.695  -2.163  31.279  0.00  0.00    +0.000 C 
ENDBRANCH   9   8
ENDBRANCH   4   9
ENDBRANCH  19  10
TORSDOF 8
ENDMDL
MODEL 5
REMARK VINA RESULT:      -2.5     15.055     16.998
REMARK  Name = 45783344
REMARK  9 active torsions:
REMARK  status: ('A' for Active; 'I' for Inactive)
REMARK    1  A    between atoms: O_2  and  C_24
REMARK    2  A    between atoms: O_2  and  C_26
REMARK    3  A    between atoms: O_3  and  C_27
REMARK    4  A    between atoms: O_3  and  C_28
REMARK    5  A    between atoms: N_4  and  C_9
REMARK    6  A    between atoms: C_8  and  C_9
REMARK    7  A    between atoms: C_10  and  C_19
REMARK    8  A    between atoms: C_20  and  C_21
REMARK    9  A    between atoms: C_26  and  C_27
REMARK                            x       y       z     vdW  Elec       q    Type
REMARK                         _______ _______ _______ _____ _____    ______ ____
ROOT
ATOM      1  O   UNL     1      -6.742  -8.292  11.297  0.00  0.00    -0.336 OA
ATOM      5  N   UNL     1      -5.261  -9.176   9.867  0.00  0.00    -0.190 NA
ATOM      6  N   UNL     1      -5.551  -8.450  12.017  0.00  0.00    -0.056 NA
ATOM     19  C   UNL     1      -6.485  -8.743  10.041  0.00  0.00    +0.245 A 
ATOM     20  C   UNL     1      -4.726  -8.976  11.107  0.00  0.00    +0.202 A 
ENDROOT
BRANCH  20  21
ATOM      7  N   UNL     1      -0.709  -9.971  11.977  0.00  0.00    -0.221 NA
ATOM     21  C   UNL     1      -3.364  -9.314  11.403  0.00  0.00    +0.029 A 
ATOM     22  C   UNL     1      -3.038  -9.897  12.622  0.00  0.00    +0.079 A 
ATOM     23  C   UNL     1      -2.364  -9.058  10.471  0.00  0.00    +0.031 A 
ATOM     24  C   UNL     1      -1.707 -10.204  12.858  0.00  0.00    +0.215 A 
ATOM     25  C   UNL     1      -1.064  -9.402  10.804  0.00  0.00    +0.115 A 
BRANCH  24   2
ATOM      2  O   UNL     1      -1.361 -10.781  14.052  0.00  0.00    -0.474 OA
BRANCH   2  26
ATOM     26  C   UNL     1      -1.588 -10.010  15.226  0.00  0.00    +0.258 C 
BRANCH  26  27
ATOM     27  C   UNL     1      -2.546 -10.758  16.133  0.00  0.00    +0.200 C 
BRANCH  27   3
ATOM      3  O   UNL     1      -3.862 -10.650  15.606  0.00  0.00    -0.380 OA
ATOM     28  C   UNL     1      -4.817 -10.426  16.633  0.00  0.00    +0.194 C 
ENDBRANCH  27   3
ENDBRANCH  26  27
ENDBRANCH   2  26
ENDBRANCH  24   2
ENDBRANCH  20  21
BRANCH  19  10
ATOM      4  N   UNL     1      -8.949  -8.780   9.706  0.00  0.00    -0.291 NA
ATOM     10  C   UNL     1      -7.630  -8.679   9.053  0.00  0.00    +0.146 C 
ATOM     13  C   UNL     1      -9.886  -8.035   8.863  0.00  0.00    +0.085 C 
ATOM     14  C   UNL     1      -7.675  -7.347   8.281  0.00  0.00    +0.030 C 
ATOM     15  C   UNL     1      -9.078  -6.802   8.511  0.00  0.00    +0.017 C 
BRANCH   4   9
ATOM      9  C   UNL     1      -9.381 -10.155   9.921  0.00  0.00    +0.088 C 
BRANCH   9   8
ATOM      8  C   UNL     1      -9.623 -10.423  11.405  0.00  0.00    +0.003 C 
ATOM     11  C   UNL     1      -8.290 -10.548  12.157  0.00  0.00    +0.005 C 
ATOM     12  C   UNL     1     -10.496  -9.321  12.020  0.00  0.00    +0.005 C 
ATOM     16  C   UNL     1      -8.505 -10.763  13.653  0.00  0.00    +0.000 C 
ATOM     17  C   UNL     1     -10.706  -9.539  13.518  0.00  0.00    +0.000 C 
ATOM     18  C   UNL     1      -9.380  -9.671  14.259  0.00  0.00    +0.000 C 
ENDBRANCH   9   8
ENDBRANCH   4   9
ENDBRANCH  19  10
TORSDOF 8
ENDMDL
MODEL 6
REMARK VINA RESULT:      -2.2      1.724      3.412
REMARK  Name = 45783344
REMARK  9 active torsions:
REMARK  status: ('A' for Active; 'I' for Inactive)
REMARK    1  A    between atoms: O_2  and  C_24
REMARK    2  A    between atoms: O_2  and  C_26
REMARK    3  A    between atoms: O_3  and  C_27
REMARK    4  A    between atoms: O_3  and  C_28
REMARK    5  A    between atoms: N_4  and  C_9
REMARK    6  A    between atoms: C_8  and  C_9
REMARK    7  A    between atoms: C_10  and  C_19
REMARK    8  A    between atoms: C_20  and  C_21
REMARK    9  A    between atoms: C_26  and  C_27
REMARK                            x       y       z     vdW  Elec       q    Type
REMARK                         _______ _______ _______ _____ _____    ______ ____
ROOT
ATOM      1  O   UNL     1      -2.257  -0.576  25.917  0.00  0.00    -0.336 OA
ATOM      5  N   UNL     1      -1.980   0.815  24.183  0.00  0.00    -0.190 NA
ATOM      6  N   UNL     1      -1.039  -0.932  25.321  0.00  0.00    -0.056 NA
ATOM     19  C   UNL     1      -2.744   0.460  25.185  0.00  0.00    +0.245 A 
ATOM     20  C   UNL     1      -0.946  -0.067  24.308  0.00  0.00    +0.202 A 
ENDROOT
BRANCH  20  21
ATOM      7  N   UNL     1       2.330  -0.040  21.632  0.00  0.00    -0.221 NA
ATOM     21  C   UNL     1       0.166  -0.057  23.401  0.00  0.00    +0.029 A 
ATOM     22  C   UNL     1       1.335   0.616  23.736  0.00  0.00    +0.079 A 
ATOM     23  C   UNL     1       0.077  -0.722  22.183  0.00  0.00    +0.031 A 
ATOM     24  C   UNL     1       2.379   0.596  22.825  0.00  0.00    +0.215 A 
ATOM     25  C   UNL     1       1.177  -0.682  21.341  0.00  0.00    +0.115 A 
BRANCH  24   2
ATOM      2  O   UNL     1       3.542   1.251  23.133  0.00  0.00    -0.474 OA
BRANCH   2  26
ATOM     26  C   UNL     1       4.757   0.578  22.822  0.00  0.00    +0.258 C 
BRANCH  26  27
ATOM     27  C   UNL     1       5.631   0.537  24.060  0.00  0.00    +0.200 C 
BRANCH  27   3
ATOM      3  O   UNL     1       5.479  -0.726  24.694  0.00  0.00    -0.380 OA
ATOM     28  C   UNL     1       4.813  -1.655  23.851  0.00  0.00    +0.194 C 
ENDBRANCH  27   3
ENDBRANCH  26  27
ENDBRANCH   2  26
ENDBRANCH  24   2
ENDBRANCH  20  21
BRANCH  19  10
ATOM      4  N   UNL     1      -4.152   2.496  25.434  0.00  0.00    -0.291 NA
ATOM     10  C   UNL     1      -4.072   1.035  25.630  0.00  0.00    +0.146 C 
ATOM     13  C   UNL     1      -5.565   2.805  25.209  0.00  0.00    +0.085 C 
ATOM     14  C   UNL     1      -5.263   0.467  24.837  0.00  0.00    +0.030 C 
ATOM     15  C   UNL     1      -5.987   1.684  24.281  0.00  0.00    +0.017 C 
BRANCH   4   9
ATOM      9  C   UNL     1      -3.594   3.258  26.544  0.00  0.00    +0.088 C 
BRANCH   9   8
ATOM      8  C   UNL     1      -2.251   3.874  26.160  0.00  0.00    +0.003 C 
ATOM     11  C   UNL     1      -1.131   2.827  26.243  0.00  0.00    +0.005 C 
ATOM     12  C   UNL     1      -2.319   4.491  24.757  0.00  0.00    +0.005 C 
ATOM     16  C   UNL     1       0.214   3.405  25.812  0.00  0.00    +0.000 C 
ATOM     17  C   UNL     1      -0.970   5.066  24.328  0.00  0.00    +0.000 C 
ATOM     18  C   UNL     1       0.141   4.025  24.421  0.00  0.00    +0.000 C 
ENDBRANCH   9   8
ENDBRANCH   4   9
ENDBRANCH  19  10
TORSDOF 8
ENDMDL
MODEL 7
REMARK VINA RESULT:      -1.3     14.297     16.369
REMARK  Name = 45783344
REMARK  9 active torsions:
REMARK  status: ('A' for Active; 'I' for Inactive)
REMARK    1  A    between atoms: O_2  and  C_24
REMARK    2  A    between atoms: O_2  and  C_26
REMARK    3  A    between atoms: O_3  and  C_27
REMARK    4  A    between atoms: O_3  and  C_28
REMARK    5  A    between atoms: N_4  and  C_9
REMARK    6  A    between atoms: C_8  and  C_9
REMARK    7  A    between atoms: C_10  and  C_19
REMARK    8  A    between atoms: C_20  and  C_21
REMARK    9  A    between atoms: C_26  and  C_27
REMARK                            x       y       z     vdW  Elec       q    Type
REMARK                         _______ _______ _______ _____ _____    ______ ____
ROOT
ATOM      1  O   UNL     1      -7.131  -9.701  13.106  0.00  0.00    -0.336 OA
ATOM      5  N   UNL     1      -5.929 -10.161  11.273  0.00  0.00    -0.190 NA
ATOM      6  N   UNL     1      -5.786  -9.593  13.484  0.00  0.00    -0.056 NA
ATOM     19  C   UNL     1      -7.126 -10.038  11.790  0.00  0.00    +0.245 A 
ATOM     20  C   UNL     1      -5.140  -9.878  12.350  0.00  0.00    +0.202 A 
ENDROOT
BRANCH  20  21
ATOM      7  N   UNL     1      -0.920  -9.912  12.079  0.00  0.00    -0.221 NA
ATOM     21  C   UNL     1      -3.709  -9.890  12.258  0.00  0.00    +0.029 A 
ATOM     22  C   UNL     1      -2.943 -10.329  13.333  0.00  0.00    +0.079 A 
ATOM     23  C   UNL     1      -3.081  -9.461  11.095  0.00  0.00    +0.031 A 
ATOM     24  C   UNL     1      -1.565 -10.320  13.194  0.00  0.00    +0.215 A 
ATOM     25  C   UNL     1      -1.696  -9.491  11.056  0.00  0.00    +0.115 A 
BRANCH  24   2
ATOM      2  O   UNL     1      -0.790 -10.750  14.239  0.00  0.00    -0.474 OA
BRANCH   2  26
ATOM     26  C   UNL     1      -1.382 -10.715  15.532  0.00  0.00    +0.258 C 
BRANCH  26  27
ATOM     27  C   UNL     1      -2.882 -10.544  15.386  0.00  0.00    +0.200 C 
BRANCH  27   3
ATOM      3  O   UNL     1      -3.435 -10.200  16.650  0.00  0.00    -0.380 OA
ATOM     28  C   UNL     1      -4.854 -10.253  16.629  0.00  0.00    +0.194 C 
ENDBRANCH  27   3
ENDBRANCH  26  27
ENDBRANCH   2  26
ENDBRANCH  24   2
ENDBRANCH  20  21
BRANCH  19  10
ATOM      4  N   UNL     1      -9.585  -9.703  11.964  0.00  0.00    -0.291 NA
ATOM     10  C   UNL     1      -8.478 -10.218  11.134  0.00  0.00    +0.146 C 
ATOM     13  C   UNL     1     -10.635  -9.280  11.036  0.00  0.00    +0.085 C 
ATOM     14  C   UNL     1      -8.599  -9.455   9.802  0.00  0.00    +0.030 C 
ATOM     15  C   UNL     1      -9.836  -8.581   9.956  0.00  0.00    +0.017 C 
BRANCH   4   9
ATOM      9  C   UNL     1     -10.072 -10.671  12.939  0.00  0.00    +0.088 C 
BRANCH   9   8
ATOM      8  C   UNL     1     -10.525  -9.972  14.219  0.00  0.00    +0.003 C 
ATOM     11  C   UNL     1      -9.879 -10.624  15.449  0.00  0.00    +0.005 C 
ATOM     12  C   UNL     1     -10.201  -8.473  14.162  0.00  0.00    +0.005 C 
ATOM     16  C   UNL     1     -10.274  -9.909  16.739  0.00  0.00    +0.000 C 
ATOM     17  C   UNL     1     -10.596  -7.762  15.455  0.00  0.00    +0.000 C 
ATOM     18  C   UNL     1      -9.959  -8.418  16.676  0.00  0.00    +0.000 C 
ENDBRANCH   9   8
ENDBRANCH   4   9
ENDBRANCH  19  10
TORSDOF 8
ENDMDL
