MODEL 1
REMARK VINA RESULT:      -2.2      0.000      0.000
REMARK  Name = 51137485
REMARK  8 active torsions:
REMARK  status: ('A' for Active; 'I' for Inactive)
REMARK    1  A    between atoms: O_2  and  C_24
REMARK    2  A    between atoms: O_3  and  C_27
REMARK    3  A    between atoms: O_3  and  C_28
REMARK    4  A    between atoms: N_5  and  C_12
REMARK    5  A    between atoms: C_8  and  C_13
REMARK    6  A    between atoms: C_12  and  C_14
REMARK    7  A    between atoms: C_17  and  C_20
REMARK    8  A    between atoms: C_21  and  C_24
REMARK                            x       y       z     vdW  Elec       q    Type
REMARK                         _______ _______ _______ _____ _____    ______ ____
ROOT
ATOM      5  N   UNL     1      -7.271  -9.777  11.014  0.00  0.00    -0.297 NA
ATOM      8  C   UNL     1      -5.030  -9.123  10.791  0.00  0.00    +0.092 C 
ATOM      9  C   UNL     1      -5.584  -9.537   9.416  0.00  0.00    +0.029 C 
ATOM     10  C   UNL     1      -6.039  -9.682  11.802  0.00  0.00    +0.097 C 
ATOM     11  C   UNL     1      -6.851 -10.325   9.723  0.00  0.00    +0.085 C 
ENDROOT
BRANCH   8  13
ATOM      1  O   UNL     1      -2.664  -8.598  11.142  0.00  0.00    -0.420 OA
ATOM      6  N   UNL     1      -3.139 -10.781  11.244  0.00  0.00    -0.112 NA
ATOM      7  N   UNL     1      -1.781 -10.629  11.458  0.00  0.00    -0.107 NA
ATOM     13  C   UNL     1      -3.612  -9.571  11.065  0.00  0.00    +0.222 A 
ATOM     17  C   UNL     1      -1.549  -9.340  11.390  0.00  0.00    +0.248 A 
BRANCH  17  20
ATOM     20  C   UNL     1      -0.326  -8.604  11.532  0.00  0.00    +0.039 A 
ATOM     22  C   UNL     1      -0.238  -7.572  12.465  0.00  0.00    +0.017 A 
ATOM     23  C   UNL     1       0.776  -8.923  10.739  0.00  0.00    +0.017 A 
ATOM     25  C   UNL     1       0.951  -6.856  12.605  0.00  0.00    +0.046 A 
ATOM     26  C   UNL     1       1.965  -8.208  10.878  0.00  0.00    +0.046 A 
ATOM     27  C   UNL     1       2.053  -7.175  11.811  0.00  0.00    +0.120 A 
BRANCH  27   3
ATOM      3  O   UNL     1       3.215  -6.479  11.949  0.00  0.00    -0.495 OA
ATOM     28  C   UNL     1       4.400  -7.236  12.189  0.00  0.00    +0.277 C 
ENDBRANCH  27   3
ENDBRANCH  17  20
ENDBRANCH   8  13
BRANCH   5  12
ATOM     12  C   UNL     1      -8.282 -10.600  11.661  0.00  0.00    +0.119 C 
BRANCH  12  14
ATOM     14  C   UNL     1      -8.483 -10.207  13.102  0.00  0.00    -0.033 A 
ATOM     15  C   UNL     1      -9.481  -9.295  13.442  0.00  0.00    +0.006 A 
ATOM     16  C   UNL     1      -7.670 -10.756  14.094  0.00  0.00    +0.006 A 
ATOM     18  C   UNL     1      -9.667  -8.931  14.777  0.00  0.00    +0.015 A 
ATOM     19  C   UNL     1      -7.855 -10.392  15.427  0.00  0.00    +0.015 A 
ATOM     21  C   UNL     1      -8.854  -9.480  15.769  0.00  0.00    +0.059 A 
BRANCH  21  24
ATOM      4  O   UNL     1     -10.142  -8.944  17.714  0.00  0.00    -0.245 OA
ATOM     24  C   UNL     1      -9.047  -9.102  17.160  0.00  0.00    +0.337 C 
BRANCH  24   2
ATOM      2  O   UNL     1      -7.871  -8.930  17.822  0.00  0.00    -0.477 OA
ATOM     29  H   UNL     1      -7.452  -8.071  17.606  0.00  0.00    +0.295 HD
ENDBRANCH  24   2
ENDBRANCH  21  24
ENDBRANCH  12  14
ENDBRANCH   5  12
TORSDOF 7
ENDMDL
MODEL 2
REMARK VINA RESULT:      -1.0      1.644      2.401
REMARK  Name = 51137485
REMARK  8 active torsions:
REMARK  status: ('A' for Active; 'I' for Inactive)
REMARK    1  A    between atoms: O_2  and  C_24
REMARK    2  A    between atoms: O_3  and  C_27
REMARK    3  A    between atoms: O_3  and  C_28
REMARK    4  A    between atoms: N_5  and  C_12
REMARK    5  A    between atoms: C_8  and  C_13
REMARK    6  A    between atoms: C_12  and  C_14
REMARK    7  A    between atoms: C_17  and  C_20
REMARK    8  A    between atoms: C_21  and  C_24
REMARK                            x       y       z     vdW  Elec       q    Type
REMARK                         _______ _______ _______ _____ _____    ______ ____
ROOT
ATOM      5  N   UNL     1      -6.153 -10.760  13.549  0.00  0.00    -0.297 NA
ATOM      8  C   UNL     1      -4.103 -10.780  12.411  0.00  0.00    +0.092 C 
ATOM      9  C   UNL     1      -3.849 -10.723  13.927  0.00  0.00    +0.029 C 
ATOM     10  C   UNL     1      -5.580 -10.399  12.250  0.00  0.00    +0.097 C 
ATOM     11  C   UNL     1      -5.177 -10.291  14.533  0.00  0.00    +0.085 C 
ENDROOT
BRANCH   8  13
ATOM      1  O   UNL     1      -2.013  -9.526  12.163  0.00  0.00    -0.420 OA
ATOM      6  N   UNL     1      -3.326  -9.477  10.353  0.00  0.00    -0.112 NA
ATOM      7  N   UNL     1      -2.191  -8.735  10.078  0.00  0.00    -0.107 NA
ATOM     13  C   UNL     1      -3.178  -9.918  11.580  0.00  0.00    +0.222 A 
ATOM     17  C   UNL     1      -1.454  -8.792  11.162  0.00  0.00    +0.248 A 
BRANCH  17  20
ATOM     20  C   UNL     1      -0.175  -8.212  11.450  0.00  0.00    +0.039 A 
ATOM     22  C   UNL     1       0.971  -8.704  10.825  0.00  0.00    +0.017 A 
ATOM     23  C   UNL     1      -0.076  -7.154  12.354  0.00  0.00    +0.017 A 
ATOM     25  C   UNL     1       2.215  -8.140  11.104  0.00  0.00    +0.046 A 
ATOM     26  C   UNL     1       1.169  -6.590  12.633  0.00  0.00    +0.046 A 
ATOM     27  C   UNL     1       2.314  -7.082  12.009  0.00  0.00    +0.120 A 
BRANCH  27   3
ATOM      3  O   UNL     1       3.528  -6.529  12.279  0.00  0.00    -0.495 OA
ATOM     28  C   UNL     1       4.680  -7.321  11.995  0.00  0.00    +0.277 C 
ENDBRANCH  27   3
ENDBRANCH  17  20
ENDBRANCH   8  13
BRANCH   5  12
ATOM     12  C   UNL     1      -7.471 -10.177  13.755  0.00  0.00    +0.119 C 
BRANCH  12  14
ATOM     14  C   UNL     1      -7.904 -10.269  15.195  0.00  0.00    -0.033 A 
ATOM     15  C   UNL     1      -9.242 -10.506  15.506  0.00  0.00    +0.006 A 
ATOM     16  C   UNL     1      -6.966 -10.115  16.216  0.00  0.00    +0.006 A 
ATOM     18  C   UNL     1      -9.643 -10.590  16.840  0.00  0.00    +0.015 A 
ATOM     19  C   UNL     1      -7.366 -10.198  17.549  0.00  0.00    +0.015 A 
ATOM     21  C   UNL     1      -8.705 -10.436  17.861  0.00  0.00    +0.059 A 
BRANCH  21  24
ATOM      4  O   UNL     1     -10.290 -10.458  19.654  0.00  0.00    -0.245 OA
ATOM     24  C   UNL     1      -9.123 -10.524  19.251  0.00  0.00    +0.337 C 
BRANCH  24   2
ATOM      2  O   UNL     1      -8.073 -10.692  20.101  0.00  0.00    -0.477 OA
ATOM     29  H   UNL     1      -7.759  -9.839  20.467  0.00  0.00    +0.295 HD
ENDBRANCH  24   2
ENDBRANCH  21  24
ENDBRANCH  12  14
ENDBRANCH   5  12
TORSDOF 7
ENDMDL
MODEL 3
REMARK VINA RESULT:      -0.2     14.576     16.386
REMARK  Name = 51137485
REMARK  8 active torsions:
REMARK  status: ('A' for Active; 'I' for Inactive)
REMARK    1  A    between atoms: O_2  and  C_24
REMARK    2  A    between atoms: O_3  and  C_27
REMARK    3  A    between atoms: O_3  and  C_28
REMARK    4  A    between atoms: N_5  and  C_12
REMARK    5  A    between atoms: C_8  and  C_13
REMARK    6  A    between atoms: C_12  and  C_14
REMARK    7  A    between atoms: C_17  and  C_20
REMARK    8  A    between atoms: C_21  and  C_24
REMARK                            x       y       z     vdW  Elec       q    Type
REMARK                         _______ _______ _______ _____ _____    ______ ____
ROOT
ATOM      5  N   UNL     1      -5.287   2.704  25.635  0.00  0.00    -0.297 NA
ATOM      8  C   UNL     1      -3.372   4.036  25.409  0.00  0.00    +0.092 C 
ATOM      9  C   UNL     1      -4.375   4.384  24.295  0.00  0.00    +0.029 C 
ATOM     10  C   UNL     1      -3.861   2.694  25.968  0.00  0.00    +0.097 C 
ATOM     11  C   UNL     1      -5.352   3.216  24.266  0.00  0.00    +0.085 C 
ENDROOT
BRANCH   8  13
ATOM      1  O   UNL     1      -1.411   2.783  24.645  0.00  0.00    -0.420 OA
ATOM      6  N   UNL     1      -1.063   4.982  24.852  0.00  0.00    -0.112 NA
ATOM      7  N   UNL     1       0.115   4.403  24.418  0.00  0.00    -0.107 NA
ATOM     13  C   UNL     1      -1.925   4.000  24.971  0.00  0.00    +0.222 A 
ATOM     17  C   UNL     1      -0.135   3.119  24.312  0.00  0.00    +0.248 A 
BRANCH  17  20
ATOM     20  C   UNL     1       0.714   2.036  23.905  0.00  0.00    +0.039 A 
ATOM     22  C   UNL     1       2.030   2.288  23.521  0.00  0.00    +0.017 A 
ATOM     23  C   UNL     1       0.221   0.731  23.896  0.00  0.00    +0.017 A 
ATOM     25  C   UNL     1       2.855   1.235  23.126  0.00  0.00    +0.046 A 
ATOM     26  C   UNL     1       1.047  -0.322  23.501  0.00  0.00    +0.046 A 
ATOM     27  C   UNL     1       2.363  -0.070  23.116  0.00  0.00    +0.120 A 
BRANCH  27   3
ATOM      3  O   UNL     1       3.169  -1.099  22.734  0.00  0.00    -0.495 OA
ATOM     28  C   UNL     1       4.295  -1.383  23.562  0.00  0.00    +0.277 C 
ENDBRANCH  27   3
ENDBRANCH  17  20
ENDBRANCH   8  13
BRANCH   5  12
ATOM     12  C   UNL     1      -5.896   1.387  25.764  0.00  0.00    +0.119 C 
BRANCH  12  14
ATOM     14  C   UNL     1      -4.935   0.289  25.390  0.00  0.00    -0.033 A 
ATOM     15  C   UNL     1      -4.115  -0.280  26.365  0.00  0.00    +0.006 A 
ATOM     16  C   UNL     1      -4.865  -0.158  24.071  0.00  0.00    +0.006 A 
ATOM     18  C   UNL     1      -3.225  -1.298  26.018  0.00  0.00    +0.015 A 
ATOM     19  C   UNL     1      -3.975  -1.174  23.725  0.00  0.00    +0.015 A 
ATOM     21  C   UNL     1      -3.155  -1.744  24.699  0.00  0.00    +0.059 A 
BRANCH  21  24
ATOM      4  O   UNL     1      -2.457  -3.714  23.531  0.00  0.00    -0.245 OA
ATOM     24  C   UNL     1      -2.228  -2.805  24.338  0.00  0.00    +0.337 C 
BRANCH  24   2
ATOM      2  O   UNL     1      -1.040  -2.703  24.993  0.00  0.00    -0.477 OA
ATOM     29  H   UNL     1      -1.161  -2.659  25.965  0.00  0.00    +0.295 HD
ENDBRANCH  24   2
ENDBRANCH  21  24
ENDBRANCH  12  14
ENDBRANCH   5  12
TORSDOF 7
ENDMDL
MODEL 4
REMARK VINA RESULT:       0.8     14.491     16.430
REMARK  Name = 51137485
REMARK  8 active torsions:
REMARK  status: ('A' for Active; 'I' for Inactive)
REMARK    1  A    between atoms: O_2  and  C_24
REMARK    2  A    between atoms: O_3  and  C_27
REMARK    3  A    between atoms: O_3  and  C_28
REMARK    4  A    between atoms: N_5  and  C_12
REMARK    5  A    between atoms: C_8  and  C_13
REMARK    6  A    between atoms: C_12  and  C_14
REMARK    7  A    between atoms: C_17  and  C_20
REMARK    8  A    between atoms: C_21  and  C_24
REMARK                            x       y       z     vdW  Elec       q    Type
REMARK                         _______ _______ _______ _____ _____    ______ ____
ROOT
ATOM      5  N   UNL     1      -5.591   0.612  25.095  0.00  0.00    -0.297 NA
ATOM      8  C   UNL     1      -4.224  -1.270  24.793  0.00  0.00    +0.092 C 
ATOM      9  C   UNL     1      -4.425  -1.016  26.298  0.00  0.00    +0.029 C 
ATOM     10  C   UNL     1      -4.666   0.034  24.117  0.00  0.00    +0.097 C 
ATOM     11  C   UNL     1      -4.939   0.414  26.391  0.00  0.00    +0.085 C 
ENDROOT
BRANCH   8  13
ATOM      1  O   UNL     1      -1.908  -0.701  24.235  0.00  0.00    -0.420 OA
ATOM      6  N   UNL     1      -2.344  -2.894  24.193  0.00  0.00    -0.112 NA
ATOM      7  N   UNL     1      -1.013  -2.717  23.861  0.00  0.00    -0.107 NA
ATOM     13  C   UNL     1      -2.826  -1.692  24.403  0.00  0.00    +0.222 A 
ATOM     17  C   UNL     1      -0.804  -1.422  23.899  0.00  0.00    +0.248 A 
BRANCH  17  20
ATOM     20  C   UNL     1       0.387  -0.664  23.645  0.00  0.00    +0.039 A 
ATOM     22  C   UNL     1       0.397   0.713  23.865  0.00  0.00    +0.017 A 
ATOM     23  C   UNL     1       1.535  -1.303  23.177  0.00  0.00    +0.017 A 
ATOM     25  C   UNL     1       1.554   1.451  23.618  0.00  0.00    +0.046 A 
ATOM     26  C   UNL     1       2.692  -0.565  22.930  0.00  0.00    +0.046 A 
ATOM     27  C   UNL     1       2.702   0.812  23.150  0.00  0.00    +0.120 A 
BRANCH  27   3
ATOM      3  O   UNL     1       3.833   1.531  22.912  0.00  0.00    -0.495 OA
ATOM     28  C   UNL     1       5.078   0.904  23.217  0.00  0.00    +0.277 C 
ENDBRANCH  27   3
ENDBRANCH  17  20
ENDBRANCH   8  13
BRANCH   5  12
ATOM     12  C   UNL     1      -5.878   2.014  24.827  0.00  0.00    +0.119 C 
BRANCH  12  14
ATOM     14  C   UNL     1      -4.629   2.855  24.853  0.00  0.00    -0.033 A 
ATOM     15  C   UNL     1      -3.747   2.827  23.773  0.00  0.00    +0.006 A 
ATOM     16  C   UNL     1      -4.353   3.661  25.958  0.00  0.00    +0.006 A 
ATOM     18  C   UNL     1      -2.590   3.606  23.797  0.00  0.00    +0.015 A 
ATOM     19  C   UNL     1      -3.197   4.439  25.983  0.00  0.00    +0.015 A 
ATOM     21  C   UNL     1      -2.315   4.412  24.902  0.00  0.00    +0.059 A 
BRANCH  21  24
ATOM      4  O   UNL     1      -1.078   6.461  24.929  0.00  0.00    -0.245 OA
ATOM     24  C   UNL     1      -1.109   5.224  24.927  0.00  0.00    +0.337 C 
BRANCH  24   2
ATOM      2  O   UNL     1       0.025   4.473  24.950  0.00  0.00    -0.477 OA
ATOM     29  H   UNL     1      -0.169   3.522  25.085  0.00  0.00    +0.295 HD
ENDBRANCH  24   2
ENDBRANCH  21  24
ENDBRANCH  12  14
ENDBRANCH   5  12
TORSDOF 7
ENDMDL
