MODEL 1
REMARK VINA RESULT:      -4.6      0.000      0.000
REMARK  Name = 51137056
REMARK  3 active torsions:
REMARK  status: ('A' for Active; 'I' for Inactive)
REMARK    1  A    between atoms: N_3  and  C_9
REMARK    2  A    between atoms: C_5  and  C_10
REMARK    3  A    between atoms: C_9  and  C_11
REMARK                            x       y       z     vdW  Elec       q    Type
REMARK                         _______ _______ _______ _____ _____    ______ ____
ROOT
ATOM      3  N   UNL     1      -5.080   3.825  25.287  0.00  0.00    -0.297 NA
ATOM      5  C   UNL     1      -5.242   1.596  24.579  0.00  0.00    +0.090 C 
ATOM      6  C   UNL     1      -6.035   1.781  25.884  0.00  0.00    +0.029 C 
ATOM      7  C   UNL     1      -4.348   2.840  24.488  0.00  0.00    +0.097 C 
ATOM      8  C   UNL     1      -5.531   3.093  26.470  0.00  0.00    +0.085 C 
ENDROOT
BRANCH   5  10
ATOM      2  O   UNL     1      -3.128   0.393  24.742  0.00  0.00    -0.439 OA
ATOM      4  N   UNL     1      -4.907  -0.897  24.190  0.00  0.00    -0.213 NA
ATOM     10  C   UNL     1      -4.464   0.304  24.486  0.00  0.00    +0.201 A 
ATOM     12  C   UNL     1      -2.686  -0.890  24.591  0.00  0.00    +0.155 A 
ATOM     13  C   UNL     1      -3.778  -1.676  24.253  0.00  0.00    +0.110 A 
ATOM     16  C   UNL     1      -1.387  -1.360  24.741  0.00  0.00    +0.048 A 
ATOM     17  C   UNL     1      -3.583  -3.049  24.041  0.00  0.00    +0.031 A 
ATOM     20  C   UNL     1      -1.211  -2.731  24.526  0.00  0.00    +0.004 A 
ATOM     21  C   UNL     1      -2.286  -3.561  24.182  0.00  0.00    +0.002 A 
ENDBRANCH   5  10
BRANCH   3   9
ATOM      9  C   UNL     1      -4.263   4.981  25.628  0.00  0.00    +0.119 C 
BRANCH   9  11
ATOM      1 CL   UNL     1      -0.220   1.761  26.302  0.00  0.00    -0.084 Cl
ATOM     11  C   UNL     1      -2.794   4.703  25.451  0.00  0.00    -0.032 A 
ATOM     14  C   UNL     1      -2.252   3.502  25.906  0.00  0.00    +0.025 A 
ATOM     15  C   UNL     1      -1.976   5.648  24.832  0.00  0.00    +0.005 A 
ATOM     18  C   UNL     1      -0.890   3.244  25.740  0.00  0.00    +0.041 A 
ATOM     19  C   UNL     1      -0.615   5.390  24.667  0.00  0.00    +0.002 A 
ATOM     22  C   UNL     1      -0.072   4.189  25.121  0.00  0.00    +0.020 A 
ENDBRANCH   9  11
ENDBRANCH   3   9
TORSDOF 3
ENDMDL
MODEL 2
REMARK VINA RESULT:      -3.3      3.797      6.215
REMARK  Name = 51137056
REMARK  3 active torsions:
REMARK  status: ('A' for Active; 'I' for Inactive)
REMARK    1  A    between atoms: N_3  and  C_9
REMARK    2  A    between atoms: C_5  and  C_10
REMARK    3  A    between atoms: C_9  and  C_11
REMARK                            x       y       z     vdW  Elec       q    Type
REMARK                         _______ _______ _______ _____ _____    ______ ____
ROOT
ATOM      3  N   UNL     1       0.462  -0.632  23.695  0.00  0.00    -0.297 NA
ATOM      5  C   UNL     1      -1.288  -0.037  25.138  0.00  0.00    +0.090 C 
ATOM      6  C   UNL     1      -1.457  -1.502  24.700  0.00  0.00    +0.029 C 
ATOM      7  C   UNL     1      -0.276   0.550  24.146  0.00  0.00    +0.097 C 
ATOM      8  C   UNL     1      -0.561  -1.655  23.477  0.00  0.00    +0.085 C 
ENDROOT
BRANCH   5  10
ATOM      2  O   UNL     1      -2.432   2.110  25.298  0.00  0.00    -0.439 OA
ATOM      4  N   UNL     1      -3.809   0.313  25.194  0.00  0.00    -0.213 NA
ATOM     10  C   UNL     1      -2.572   0.756  25.208  0.00  0.00    +0.201 A 
ATOM     12  C   UNL     1      -3.719   2.563  25.345  0.00  0.00    +0.155 A 
ATOM     13  C   UNL     1      -4.559   1.460  25.281  0.00  0.00    +0.110 A 
ATOM     16  C   UNL     1      -4.148   3.881  25.439  0.00  0.00    +0.048 A 
ATOM     17  C   UNL     1      -5.946   1.663  25.313  0.00  0.00    +0.031 A 
ATOM     20  C   UNL     1      -5.535   4.065  25.470  0.00  0.00    +0.004 A 
ATOM     21  C   UNL     1      -6.418   2.980  25.408  0.00  0.00    +0.002 A 
ENDBRANCH   5  10
BRANCH   3   9
ATOM      9  C   UNL     1       1.249  -0.372  22.498  0.00  0.00    +0.119 C 
BRANCH   9  11
ATOM      1 CL   UNL     1       5.834  -1.969  24.395  0.00  0.00    -0.084 Cl
ATOM     11  C   UNL     1       2.686  -0.063  22.827  0.00  0.00    -0.032 A 
ATOM     14  C   UNL     1       3.499  -1.044  23.393  0.00  0.00    +0.025 A 
ATOM     15  C   UNL     1       3.202   1.206  22.567  0.00  0.00    +0.005 A 
ATOM     18  C   UNL     1       4.830  -0.758  23.697  0.00  0.00    +0.041 A 
ATOM     19  C   UNL     1       4.533   1.493  22.871  0.00  0.00    +0.002 A 
ATOM     22  C   UNL     1       5.347   0.511  23.435  0.00  0.00    +0.020 A 
ENDBRANCH   9  11
ENDBRANCH   3   9
TORSDOF 3
ENDMDL
MODEL 3
REMARK VINA RESULT:      -3.1      3.846      5.608
REMARK  Name = 51137056
REMARK  3 active torsions:
REMARK  status: ('A' for Active; 'I' for Inactive)
REMARK    1  A    between atoms: N_3  and  C_9
REMARK    2  A    between atoms: C_5  and  C_10
REMARK    3  A    between atoms: C_9  and  C_11
REMARK                            x       y       z     vdW  Elec       q    Type
REMARK                         _______ _______ _______ _____ _____    ______ ____
ROOT
ATOM      3  N   UNL     1      -2.437  -0.491  24.522  0.00  0.00    -0.297 NA
ATOM      5  C   UNL     1      -0.491  -0.752  23.241  0.00  0.00    +0.090 C 
ATOM      6  C   UNL     1      -0.860  -2.094  23.896  0.00  0.00    +0.029 C 
ATOM      7  C   UNL     1      -1.312   0.293  24.006  0.00  0.00    +0.097 C 
ATOM      8  C   UNL     1      -1.840  -1.735  25.006  0.00  0.00    +0.085 C 
ENDROOT
BRANCH   5  10
ATOM      2  O   UNL     1       1.807  -1.411  23.717  0.00  0.00    -0.439 OA
ATOM      4  N   UNL     1       1.589   0.645  22.789  0.00  0.00    -0.213 NA
ATOM     10  C   UNL     1       0.988  -0.441  23.221  0.00  0.00    +0.201 A 
ATOM     12  C   UNL     1       3.057  -0.876  23.579  0.00  0.00    +0.155 A 
ATOM     13  C   UNL     1       2.918   0.382  23.011  0.00  0.00    +0.110 A 
ATOM     16  C   UNL     1       4.268  -1.457  23.933  0.00  0.00    +0.048 A 
ATOM     17  C   UNL     1       4.069   1.144  22.766  0.00  0.00    +0.031 A 
ATOM     20  C   UNL     1       5.406  -0.682  23.681  0.00  0.00    +0.004 A 
ATOM     21  C   UNL     1       5.312   0.593  23.110  0.00  0.00    +0.002 A 
ENDBRANCH   5  10
BRANCH   3   9
ATOM      9  C   UNL     1      -3.172   0.212  25.563  0.00  0.00    +0.119 C 
BRANCH   9  11
ATOM      1 CL   UNL     1      -1.274   5.048  25.142  0.00  0.00    -0.084 Cl
ATOM     11  C   UNL     1      -3.398   1.659  25.213  0.00  0.00    -0.032 A 
ATOM     14  C   UNL     1      -2.354   2.575  25.327  0.00  0.00    +0.025 A 
ATOM     15  C   UNL     1      -4.653   2.082  24.775  0.00  0.00    +0.005 A 
ATOM     18  C   UNL     1      -2.563   3.916  25.002  0.00  0.00    +0.041 A 
ATOM     19  C   UNL     1      -4.863   3.422  24.450  0.00  0.00    +0.002 A 
ATOM     22  C   UNL     1      -3.818   4.339  24.563  0.00  0.00    +0.020 A 
ENDBRANCH   9  11
ENDBRANCH   3   9
TORSDOF 3
ENDMDL
MODEL 4
REMARK VINA RESULT:      -3.1      2.145      3.780
REMARK  Name = 51137056
REMARK  3 active torsions:
REMARK  status: ('A' for Active; 'I' for Inactive)
REMARK    1  A    between atoms: N_3  and  C_9
REMARK    2  A    between atoms: C_5  and  C_10
REMARK    3  A    between atoms: C_9  and  C_11
REMARK                            x       y       z     vdW  Elec       q    Type
REMARK                         _______ _______ _______ _____ _____    ______ ____
ROOT
ATOM      3  N   UNL     1      -0.234   3.535  25.168  0.00  0.00    -0.297 NA
ATOM      5  C   UNL     1      -0.164   1.191  25.151  0.00  0.00    +0.090 C 
ATOM      6  C   UNL     1       0.571   1.738  23.914  0.00  0.00    +0.029 C 
ATOM      7  C   UNL     1      -0.979   2.380  25.675  0.00  0.00    +0.097 C 
ATOM      8  C   UNL     1       0.113   3.185  23.791  0.00  0.00    +0.085 C 
ENDROOT
BRANCH   5  10
ATOM      2  O   UNL     1      -2.305   0.196  24.545  0.00  0.00    -0.439 OA
ATOM      4  N   UNL     1      -0.657  -1.300  24.971  0.00  0.00    -0.213 NA
ATOM     10  C   UNL     1      -1.008  -0.036  24.896  0.00  0.00    +0.201 A 
ATOM     12  C   UNL     1      -2.821  -1.058  24.380  0.00  0.00    +0.155 A 
ATOM     13  C   UNL     1      -1.809  -1.970  24.642  0.00  0.00    +0.110 A 
ATOM     16  C   UNL     1      -4.119  -1.396  24.017  0.00  0.00    +0.048 A 
ATOM     17  C   UNL     1      -2.090  -3.340  24.540  0.00  0.00    +0.031 A 
ATOM     20  C   UNL     1      -4.382  -2.767  23.920  0.00  0.00    +0.004 A 
ATOM     21  C   UNL     1      -3.389  -3.722  24.176  0.00  0.00    +0.002 A 
ENDBRANCH   5  10
BRANCH   3   9
ATOM      9  C   UNL     1      -1.000   4.770  25.250  0.00  0.00    +0.119 C 
BRANCH   9  11
ATOM      1 CL   UNL     1      -5.172   1.969  23.866  0.00  0.00    -0.084 Cl
ATOM     11  C   UNL     1      -2.477   4.507  25.380  0.00  0.00    -0.032 A 
ATOM     14  C   UNL     1      -3.071   3.480  24.648  0.00  0.00    +0.025 A 
ATOM     15  C   UNL     1      -3.252   5.293  26.234  0.00  0.00    +0.005 A 
ATOM     18  C   UNL     1      -4.439   3.237  24.769  0.00  0.00    +0.041 A 
ATOM     19  C   UNL     1      -4.620   5.050  26.355  0.00  0.00    +0.002 A 
ATOM     22  C   UNL     1      -5.214   4.022  25.623  0.00  0.00    +0.020 A 
ENDBRANCH   9  11
ENDBRANCH   3   9
TORSDOF 3
ENDMDL
MODEL 5
REMARK VINA RESULT:      -2.8      1.869      5.447
REMARK  Name = 51137056
REMARK  3 active torsions:
REMARK  status: ('A' for Active; 'I' for Inactive)
REMARK    1  A    between atoms: N_3  and  C_9
REMARK    2  A    between atoms: C_5  and  C_10
REMARK    3  A    between atoms: C_9  and  C_11
REMARK                            x       y       z     vdW  Elec       q    Type
REMARK                         _______ _______ _______ _____ _____    ______ ____
ROOT
ATOM      3  N   UNL     1      -2.222  -2.127  24.913  0.00  0.00    -0.297 NA
ATOM      5  C   UNL     1      -4.064  -0.760  25.396  0.00  0.00    +0.090 C 
ATOM      6  C   UNL     1      -4.326  -1.535  24.094  0.00  0.00    +0.029 C 
ATOM      7  C   UNL     1      -2.554  -0.896  25.632  0.00  0.00    +0.097 C 
ATOM      8  C   UNL     1      -2.958  -2.039  23.652  0.00  0.00    +0.085 C 
ENDROOT
BRANCH   5  10
ATOM      2  O   UNL     1      -3.648   1.587  24.886  0.00  0.00    -0.439 OA
ATOM      4  N   UNL     1      -5.681   1.166  25.795  0.00  0.00    -0.213 NA
ATOM     10  C   UNL     1      -4.532   0.677  25.385  0.00  0.00    +0.201 A 
ATOM     12  C   UNL     1      -4.315   2.774  24.994  0.00  0.00    +0.155 A 
ATOM     13  C   UNL     1      -5.558   2.512  25.550  0.00  0.00    +0.110 A 
ATOM     16  C   UNL     1      -3.862   4.034  24.623  0.00  0.00    +0.048 A 
ATOM     17  C   UNL     1      -6.442   3.579  25.766  0.00  0.00    +0.031 A 
ATOM     20  C   UNL     1      -4.756   5.088  24.845  0.00  0.00    +0.004 A 
ATOM     21  C   UNL     1      -6.021   4.867  25.406  0.00  0.00    +0.002 A 
ENDBRANCH   5  10
BRANCH   3   9
ATOM      9  C   UNL     1      -0.789  -2.281  24.708  0.00  0.00    +0.119 C 
BRANCH   9  11
ATOM      1 CL   UNL     1      -0.208   2.816  25.624  0.00  0.00    -0.084 Cl
ATOM     11  C   UNL     1      -0.128  -0.976  24.353  0.00  0.00    -0.032 A 
ATOM     14  C   UNL     1      -0.438   0.180  25.069  0.00  0.00    +0.025 A 
ATOM     15  C   UNL     1       0.793  -0.923  23.307  0.00  0.00    +0.005 A 
ATOM     18  C   UNL     1       0.174   1.390  24.740  0.00  0.00    +0.041 A 
ATOM     19  C   UNL     1       1.406   0.287  22.979  0.00  0.00    +0.002 A 
ATOM     22  C   UNL     1       1.097   1.442  23.695  0.00  0.00    +0.020 A 
ENDBRANCH   9  11
ENDBRANCH   3   9
TORSDOF 3
ENDMDL
MODEL 6
REMARK VINA RESULT:      -2.6      2.948      4.813
REMARK  Name = 51137056
REMARK  3 active torsions:
REMARK  status: ('A' for Active; 'I' for Inactive)
REMARK    1  A    between atoms: N_3  and  C_9
REMARK    2  A    between atoms: C_5  and  C_10
REMARK    3  A    between atoms: C_9  and  C_11
REMARK                            x       y       z     vdW  Elec       q    Type
REMARK                         _______ _______ _______ _____ _____    ______ ____
ROOT
ATOM      3  N   UNL     1      -2.535   4.370  26.043  0.00  0.00    -0.297 NA
ATOM      5  C   UNL     1      -0.527   3.281  25.514  0.00  0.00    +0.090 C 
ATOM      6  C   UNL     1      -0.477   4.732  25.003  0.00  0.00    +0.029 C 
ATOM      7  C   UNL     1      -2.011   3.023  25.804  0.00  0.00    +0.097 C 
ATOM      8  C   UNL     1      -1.926   5.201  25.005  0.00  0.00    +0.085 C 
ENDROOT
BRANCH   5  10
ATOM      2  O   UNL     1       1.409   2.398  24.324  0.00  0.00    -0.439 OA
ATOM      4  N   UNL     1      -0.514   1.249  23.981  0.00  0.00    -0.213 NA
ATOM     10  C   UNL     1       0.077   2.258  24.580  0.00  0.00    +0.201 A 
ATOM     12  C   UNL     1       1.682   1.365  23.474  0.00  0.00    +0.155 A 
ATOM     13  C   UNL     1       0.502   0.664  23.266  0.00  0.00    +0.110 A 
ATOM     16  C   UNL     1       2.906   1.043  22.900  0.00  0.00    +0.048 A 
ATOM     17  C   UNL     1       0.519  -0.453  22.420  0.00  0.00    +0.031 A 
ATOM     20  C   UNL     1       2.905  -0.075  22.059  0.00  0.00    +0.004 A 
ATOM     21  C   UNL     1       1.736  -0.811  21.822  0.00  0.00    +0.002 A 
ENDBRANCH   5  10
BRANCH   3   9
ATOM      9  C   UNL     1      -3.990   4.414  26.005  0.00  0.00    +0.119 C 
BRANCH   9  11
ATOM      1 CL   UNL     1      -3.528  -0.071  23.391  0.00  0.00    -0.084 Cl
ATOM     11  C   UNL     1      -4.583   3.089  25.605  0.00  0.00    -0.032 A 
ATOM     14  C   UNL     1      -3.864   2.225  24.780  0.00  0.00    +0.025 A 
ATOM     15  C   UNL     1      -5.851   2.728  26.059  0.00  0.00    +0.005 A 
ATOM     18  C   UNL     1      -4.414   0.996  24.409  0.00  0.00    +0.041 A 
ATOM     19  C   UNL     1      -6.400   1.500  25.689  0.00  0.00    +0.002 A 
ATOM     22  C   UNL     1      -5.682   0.635  24.864  0.00  0.00    +0.020 A 
ENDBRANCH   9  11
ENDBRANCH   3   9
TORSDOF 3
ENDMDL
MODEL 7
REMARK VINA RESULT:      -2.3      3.246      5.603
REMARK  Name = 51137056
REMARK  3 active torsions:
REMARK  status: ('A' for Active; 'I' for Inactive)
REMARK    1  A    between atoms: N_3  and  C_9
REMARK    2  A    between atoms: C_5  and  C_10
REMARK    3  A    between atoms: C_9  and  C_11
REMARK                            x       y       z     vdW  Elec       q    Type
REMARK                         _______ _______ _______ _____ _____    ______ ____
ROOT
ATOM      3  N   UNL     1      -3.568   1.943  25.190  0.00  0.00    -0.297 NA
ATOM      5  C   UNL     1      -1.319   2.471  24.785  0.00  0.00    +0.090 C 
ATOM      6  C   UNL     1      -2.219   3.293  23.846  0.00  0.00    +0.029 C 
ATOM      7  C   UNL     1      -2.230   1.359  25.321  0.00  0.00    +0.097 C 
ATOM      8  C   UNL     1      -3.570   2.591  23.878  0.00  0.00    +0.085 C 
ENDROOT
BRANCH   5  10
ATOM      2  O   UNL     1      -0.197   0.825  23.381  0.00  0.00    -0.439 OA
ATOM      4  N   UNL     1       1.167   2.416  24.243  0.00  0.00    -0.213 NA
ATOM     10  C   UNL     1      -0.055   1.942  24.150  0.00  0.00    +0.201 A 
ATOM     12  C   UNL     1       1.073   0.573  22.944  0.00  0.00    +0.155 A 
ATOM     13  C   UNL     1       1.904   1.550  23.474  0.00  0.00    +0.110 A 
ATOM     16  C   UNL     1       1.493  -0.462  22.118  0.00  0.00    +0.048 A 
ATOM     17  C   UNL     1       3.272   1.511  23.170  0.00  0.00    +0.031 A 
ATOM     20  C   UNL     1       2.861  -0.485  21.825  0.00  0.00    +0.004 A 
ATOM     21  C   UNL     1       3.735   0.481  22.339  0.00  0.00    +0.002 A 
ENDBRANCH   5  10
BRANCH   3   9
ATOM      9  C   UNL     1      -4.623   0.948  25.318  0.00  0.00    +0.119 C 
BRANCH   9  11
ATOM      1 CL   UNL     1      -0.928  -2.728  25.333  0.00  0.00    -0.084 Cl
ATOM     11  C   UNL     1      -4.163  -0.419  24.884  0.00  0.00    -0.032 A 
ATOM     14  C   UNL     1      -2.905  -0.885  25.265  0.00  0.00    +0.025 A 
ATOM     15  C   UNL     1      -4.994  -1.216  24.098  0.00  0.00    +0.005 A 
ATOM     18  C   UNL     1      -2.479  -2.152  24.863  0.00  0.00    +0.041 A 
ATOM     19  C   UNL     1      -4.569  -2.482  23.695  0.00  0.00    +0.002 A 
ATOM     22  C   UNL     1      -3.312  -2.950  24.078  0.00  0.00    +0.020 A 
ENDBRANCH   9  11
ENDBRANCH   3   9
TORSDOF 3
ENDMDL
MODEL 8
REMARK VINA RESULT:      -2.3      4.638      6.314
REMARK  Name = 51137056
REMARK  3 active torsions:
REMARK  status: ('A' for Active; 'I' for Inactive)
REMARK    1  A    between atoms: N_3  and  C_9
REMARK    2  A    between atoms: C_5  and  C_10
REMARK    3  A    between atoms: C_9  and  C_11
REMARK                            x       y       z     vdW  Elec       q    Type
REMARK                         _______ _______ _______ _____ _____    ______ ____
ROOT
ATOM      3  N   UNL     1      -1.449   1.392  23.851  0.00  0.00    -0.297 NA
ATOM      5  C   UNL     1       0.411   0.151  23.145  0.00  0.00    +0.090 C 
ATOM      6  C   UNL     1      -0.333  -0.618  24.251  0.00  0.00    +0.029 C 
ATOM      7  C   UNL     1      -0.134   1.582  23.234  0.00  0.00    +0.097 C 
ATOM      8  C   UNL     1      -1.228   0.417  24.918  0.00  0.00    +0.085 C 
ENDROOT
BRANCH   5  10
ATOM      2  O   UNL     1       2.445  -1.121  23.577  0.00  0.00    -0.439 OA
ATOM      4  N   UNL     1       2.790   1.048  23.017  0.00  0.00    -0.213 NA
ATOM     10  C   UNL     1       1.918   0.088  23.231  0.00  0.00    +0.201 A 
ATOM     12  C   UNL     1       3.792  -0.895  23.578  0.00  0.00    +0.155 A 
ATOM     13  C   UNL     1       3.998   0.434  23.236  0.00  0.00    +0.110 A 
ATOM     16  C   UNL     1       4.802  -1.805  23.866  0.00  0.00    +0.048 A 
ATOM     17  C   UNL     1       5.312   0.919  23.168  0.00  0.00    +0.031 A 
ATOM     20  C   UNL     1       6.106  -1.304  23.793  0.00  0.00    +0.004 A 
ATOM     21  C   UNL     1       6.359   0.030  23.452  0.00  0.00    +0.002 A 
ENDBRANCH   5  10
BRANCH   3   9
ATOM      9  C   UNL     1      -2.015   2.638  24.347  0.00  0.00    +0.119 C 
BRANCH   9  11
ATOM      1 CL   UNL     1      -6.498   4.852  25.819  0.00  0.00    -0.084 Cl
ATOM     11  C   UNL     1      -3.464   2.485  24.728  0.00  0.00    -0.032 A 
ATOM     14  C   UNL     1      -4.221   3.608  25.058  0.00  0.00    +0.025 A 
ATOM     15  C   UNL     1      -4.048   1.218  24.751  0.00  0.00    +0.005 A 
ATOM     18  C   UNL     1      -5.563   3.466  25.411  0.00  0.00    +0.041 A 
ATOM     19  C   UNL     1      -5.390   1.076  25.104  0.00  0.00    +0.002 A 
ATOM     22  C   UNL     1      -6.147   2.200  25.433  0.00  0.00    +0.020 A 
ENDBRANCH   9  11
ENDBRANCH   3   9
TORSDOF 3
ENDMDL
MODEL 9
REMARK VINA RESULT:      -2.3      2.189      5.574
REMARK  Name = 51137056
REMARK  3 active torsions:
REMARK  status: ('A' for Active; 'I' for Inactive)
REMARK    1  A    between atoms: N_3  and  C_9
REMARK    2  A    between atoms: C_5  and  C_10
REMARK    3  A    between atoms: C_9  and  C_11
REMARK                            x       y       z     vdW  Elec       q    Type
REMARK                         _______ _______ _______ _____ _____    ______ ____
ROOT
ATOM      3  N   UNL     1      -2.274  -2.127  24.978  0.00  0.00    -0.297 NA
ATOM      5  C   UNL     1      -4.118  -0.738  25.390  0.00  0.00    +0.090 C 
ATOM      6  C   UNL     1      -4.332  -1.502  24.071  0.00  0.00    +0.029 C 
ATOM      7  C   UNL     1      -2.622  -0.896  25.691  0.00  0.00    +0.097 C 
ATOM      8  C   UNL     1      -2.952  -2.021  23.687  0.00  0.00    +0.085 C 
ENDROOT
BRANCH   5  10
ATOM      2  O   UNL     1      -3.696   1.589  24.803  0.00  0.00    -0.439 OA
ATOM      4  N   UNL     1      -5.685   1.220  25.824  0.00  0.00    -0.213 NA
ATOM     10  C   UNL     1      -4.565   0.704  25.368  0.00  0.00    +0.201 A 
ATOM     12  C   UNL     1      -4.340   2.788  24.916  0.00  0.00    +0.155 A 
ATOM     13  C   UNL     1      -5.557   2.558  25.542  0.00  0.00    +0.110 A 
ATOM     16  C   UNL     1      -3.890   4.033  24.493  0.00  0.00    +0.048 A 
ATOM     17  C   UNL     1      -6.413   3.643  25.776  0.00  0.00    +0.031 A 
ATOM     20  C   UNL     1      -4.757   5.104  24.735  0.00  0.00    +0.004 A 
ATOM     21  C   UNL     1      -5.994   4.916  25.364  0.00  0.00    +0.002 A 
ENDBRANCH   5  10
BRANCH   3   9
ATOM      9  C   UNL     1      -0.835  -2.299  24.836  0.00  0.00    +0.119 C 
BRANCH   9  11
ATOM      1 CL   UNL     1       2.710   0.137  21.895  0.00  0.00    -0.084 Cl
ATOM     11  C   UNL     1      -0.153  -1.018  24.438  0.00  0.00    -0.032 A 
ATOM     14  C   UNL     1       0.846  -1.033  23.465  0.00  0.00    +0.025 A 
ATOM     15  C   UNL     1      -0.518   0.184  25.045  0.00  0.00    +0.005 A 
ATOM     18  C   UNL     1       1.478   0.155  23.096  0.00  0.00    +0.041 A 
ATOM     19  C   UNL     1       0.114   1.371  24.676  0.00  0.00    +0.002 A 
ATOM     22  C   UNL     1       1.112   1.357  23.702  0.00  0.00    +0.020 A 
ENDBRANCH   9  11
ENDBRANCH   3   9
TORSDOF 3
ENDMDL
MODEL 10
REMARK VINA RESULT:      -1.8      2.603      4.436
REMARK  Name = 51137056
REMARK  3 active torsions:
REMARK  status: ('A' for Active; 'I' for Inactive)
REMARK    1  A    between atoms: N_3  and  C_9
REMARK    2  A    between atoms: C_5  and  C_10
REMARK    3  A    between atoms: C_9  and  C_11
REMARK                            x       y       z     vdW  Elec       q    Type
REMARK                         _______ _______ _______ _____ _____    ______ ____
ROOT
ATOM      3  N   UNL     1      -4.472  -0.482  24.733  0.00  0.00    -0.297 NA
ATOM      5  C   UNL     1      -2.321  -1.224  24.165  0.00  0.00    +0.090 C 
ATOM      6  C   UNL     1      -2.549  -1.411  25.675  0.00  0.00    +0.029 C 
ATOM      7  C   UNL     1      -3.436  -0.268  23.720  0.00  0.00    +0.097 C 
ATOM      8  C   UNL     1      -3.751  -0.536  26.005  0.00  0.00    +0.085 C 
ENDROOT
BRANCH   5  10
ATOM      2  O   UNL     1      -0.665   0.564  24.087  0.00  0.00    -0.439 OA
ATOM      4  N   UNL     1       0.029  -1.404  23.203  0.00  0.00    -0.213 NA
ATOM     10  C   UNL     1      -0.942  -0.737  23.786  0.00  0.00    +0.201 A 
ATOM     12  C   UNL     1       0.616   0.729  23.646  0.00  0.00    +0.155 A 
ATOM     13  C   UNL     1       1.037  -0.477  23.105  0.00  0.00    +0.110 A 
ATOM     16  C   UNL     1       1.390   1.882  23.710  0.00  0.00    +0.048 A 
ATOM     17  C   UNL     1       2.333  -0.567  22.577  0.00  0.00    +0.031 A 
ATOM     20  C   UNL     1       2.680   1.775  23.179  0.00  0.00    +0.004 A 
ATOM     21  C   UNL     1       3.145   0.576  22.623  0.00  0.00    +0.002 A 
ENDBRANCH   5  10
BRANCH   3   9
ATOM      9  C   UNL     1      -5.488   0.560  24.716  0.00  0.00    +0.119 C 
BRANCH   9  11
ATOM      1 CL   UNL     1      -1.354   3.732  24.777  0.00  0.00    -0.084 Cl
ATOM     11  C   UNL     1      -4.909   1.916  25.021  0.00  0.00    -0.032 A 
ATOM     14  C   UNL     1      -3.558   2.166  24.785  0.00  0.00    +0.025 A 
ATOM     15  C   UNL     1      -5.725   2.921  25.541  0.00  0.00    +0.005 A 
ATOM     18  C   UNL     1      -3.021   3.423  25.068  0.00  0.00    +0.041 A 
ATOM     19  C   UNL     1      -5.188   4.177  25.823  0.00  0.00    +0.002 A 
ATOM     22  C   UNL     1      -3.837   4.428  25.587  0.00  0.00    +0.020 A 
ENDBRANCH   9  11
ENDBRANCH   3   9
TORSDOF 3
ENDMDL
