MODEL 1
REMARK VINA RESULT:       1.7      0.000      0.000
REMARK  Name = 26745475
REMARK  8 active torsions:
REMARK  status: ('A' for Active; 'I' for Inactive)
REMARK    1  A    between atoms: S_2  and  N_10
REMARK    2  A    between atoms: S_2  and  C_21
REMARK    3  A    between atoms: O_8  and  C_18
REMARK    4  A    between atoms: O_8  and  C_30
REMARK    5  A    between atoms: N_11  and  C_19
REMARK    6  A    between atoms: C_13  and  C_18
REMARK    7  A    between atoms: C_19  and  C_22
REMARK    8  A    between atoms: C_25  and  C_31
REMARK                            x       y       z     vdW  Elec       q    Type
REMARK                         _______ _______ _______ _____ _____    ______ ____
ROOT
ATOM     10  N   UNL     1      -1.905   2.917  24.599  0.00  0.00    -0.157 NA
ATOM     11  N   UNL     1      -4.712   0.608  25.478  0.00  0.00    -0.328 N 
ATOM     12  N   UNL     1      -5.986   2.130  24.455  0.00  0.00    -0.240 NA
ATOM     13  C   UNL     1      -2.771   4.150  24.543  0.00  0.00    +0.194 C 
ATOM     14  C   UNL     1      -2.440   1.760  25.407  0.00  0.00    +0.165 C 
ATOM     15  C   UNL     1      -4.176   3.839  23.983  0.00  0.00    +0.089 C 
ATOM     16  C   UNL     1      -3.886   1.637  25.143  0.00  0.00    +0.057 A 
ATOM     17  C   UNL     1      -4.690   2.560  24.521  0.00  0.00    +0.066 A 
ATOM     20  C   UNL     1      -5.967   0.951  25.042  0.00  0.00    +0.200 A 
ENDROOT
BRANCH  10   2
ATOM      2  S   UNL     1      -0.215   3.172  24.716  0.00  0.00    +0.062 S 
ATOM      6  O   UNL     1       0.184   3.061  26.102  0.00  0.00    -0.153 OA
ATOM      7  O   UNL     1       0.139   4.335  23.928  0.00  0.00    -0.153 OA
BRANCH   2  21
ATOM     21  C   UNL     1       0.372   1.741  23.866  0.00  0.00    +0.106 A 
ATOM     23  C   UNL     1       1.740   1.565  23.659  0.00  0.00    +0.041 A 
ATOM     24  C   UNL     1      -0.532   0.786  23.402  0.00  0.00    +0.028 A 
ATOM     25  C   UNL     1       2.204   0.434  22.987  0.00  0.00    +0.057 A 
ATOM     26  C   UNL     1      -0.068  -0.346  22.730  0.00  0.00    +0.002 A 
ATOM     29  C   UNL     1       1.300  -0.521  22.523  0.00  0.00    +0.012 A 
BRANCH  25  31
ATOM      3  F   UNL     1       4.096  -0.999  23.126  0.00  0.00    -0.166 F 
ATOM      4  F   UNL     1       4.048   0.403  21.464  0.00  0.00    -0.166 F 
ATOM      5  F   UNL     1       4.444   1.119  23.473  0.00  0.00    -0.166 F 
ATOM     31  C   UNL     1       3.666   0.246  22.766  0.00  0.00    +0.417 C 
ENDBRANCH  25  31
ENDBRANCH   2  21
ENDBRANCH  10   2
BRANCH  13  18
ATOM      9  O   UNL     1      -3.458   4.285  26.842  0.00  0.00    -0.249 OA
ATOM     18  C   UNL     1      -2.832   4.761  25.906  0.00  0.00    +0.326 C 
BRANCH  18   8
ATOM      8  O   UNL     1      -2.089   5.904  25.926  0.00  0.00    -0.467 OA
ATOM     30  C   UNL     1      -1.806   6.477  24.646  0.00  0.00    +0.280 C 
ENDBRANCH  18   8
ENDBRANCH  13  18
BRANCH  11  19
ATOM     19  C   UNL     1      -4.357  -0.610  26.166  0.00  0.00    +0.158 C 
BRANCH  19  22
ATOM      1 CL   UNL     1      -1.065  -4.367  22.807  0.00  0.00    -0.084 Cl
ATOM     22  C   UNL     1      -3.531  -1.552  25.325  0.00  0.00    -0.028 A 
ATOM     27  C   UNL     1      -4.133  -2.277  24.296  0.00  0.00    +0.007 A 
ATOM     28  C   UNL     1      -2.166  -1.698  25.575  0.00  0.00    +0.007 A 
ATOM     32  C   UNL     1      -3.371  -3.148  23.519  0.00  0.00    +0.020 A 
ATOM     33  C   UNL     1      -1.404  -2.569  24.797  0.00  0.00    +0.020 A 
ATOM     34  C   UNL     1      -2.006  -3.295  23.769  0.00  0.00    +0.041 A 
ENDBRANCH  19  22
ENDBRANCH  11  19
TORSDOF 7
ENDMDL
MODEL 2
REMARK VINA RESULT:       2.7      3.018      5.590
REMARK  Name = 26745475
REMARK  8 active torsions:
REMARK  status: ('A' for Active; 'I' for Inactive)
REMARK    1  A    between atoms: S_2  and  N_10
REMARK    2  A    between atoms: S_2  and  C_21
REMARK    3  A    between atoms: O_8  and  C_18
REMARK    4  A    between atoms: O_8  and  C_30
REMARK    5  A    between atoms: N_11  and  C_19
REMARK    6  A    between atoms: C_13  and  C_18
REMARK    7  A    between atoms: C_19  and  C_22
REMARK    8  A    between atoms: C_25  and  C_31
REMARK                            x       y       z     vdW  Elec       q    Type
REMARK                         _______ _______ _______ _____ _____    ______ ____
ROOT
ATOM     10  N   UNL     1      -3.496   1.843  25.238  0.00  0.00    -0.157 NA
ATOM     11  N   UNL     1       0.005   1.893  23.924  0.00  0.00    -0.328 N 
ATOM     12  N   UNL     1       0.175   3.790  25.091  0.00  0.00    -0.240 NA
ATOM     13  C   UNL     1      -3.581   3.337  25.426  0.00  0.00    +0.194 C 
ATOM     14  C   UNL     1      -2.464   1.349  24.254  0.00  0.00    +0.165 C 
ATOM     15  C   UNL     1      -2.230   3.935  25.874  0.00  0.00    +0.089 C 
ATOM     16  C   UNL     1      -1.233   2.143  24.434  0.00  0.00    +0.057 A 
ATOM     17  C   UNL     1      -1.105   3.312  25.142  0.00  0.00    +0.066 A 
ATOM     20  C   UNL     1       0.819   2.914  24.347  0.00  0.00    +0.200 A 
ENDROOT
BRANCH  10   2
ATOM      2  S   UNL     1      -4.980   0.986  25.232  0.00  0.00    +0.062 S 
ATOM      6  O   UNL     1      -5.828   1.517  24.186  0.00  0.00    -0.153 OA
ATOM      7  O   UNL     1      -5.459   0.869  26.594  0.00  0.00    -0.153 OA
BRANCH   2  21
ATOM     21  C   UNL     1      -4.416  -0.604  24.717  0.00  0.00    +0.106 A 
ATOM     23  C   UNL     1      -3.083  -0.968  24.907  0.00  0.00    +0.041 A 
ATOM     24  C   UNL     1      -5.304  -1.498  24.118  0.00  0.00    +0.028 A 
ATOM     25  C   UNL     1      -2.637  -2.225  24.500  0.00  0.00    +0.057 A 
ATOM     26  C   UNL     1      -4.858  -2.757  23.710  0.00  0.00    +0.002 A 
ATOM     29  C   UNL     1      -3.524  -3.119  23.902  0.00  0.00    +0.012 A 
BRANCH  25  31
ATOM      3  F   UNL     1      -0.597  -2.984  23.544  0.00  0.00    -0.166 F 
ATOM      4  F   UNL     1      -0.441  -1.613  25.225  0.00  0.00    -0.166 F 
ATOM      5  F   UNL     1      -1.050  -3.668  25.558  0.00  0.00    -0.166 F 
ATOM     31  C   UNL     1      -1.212  -2.613  24.705  0.00  0.00    +0.417 C 
ENDBRANCH  25  31
ENDBRANCH   2  21
ENDBRANCH  10   2
BRANCH  13  18
ATOM      9  O   UNL     1      -3.703   3.626  23.042  0.00  0.00    -0.249 OA
ATOM     18  C   UNL     1      -4.077   3.956  24.158  0.00  0.00    +0.326 C 
BRANCH  18   8
ATOM      8  O   UNL     1      -4.993   4.922  24.452  0.00  0.00    -0.467 OA
ATOM     30  C   UNL     1      -5.877   4.623  25.537  0.00  0.00    +0.280 C 
ENDBRANCH  18   8
ENDBRANCH  13  18
BRANCH  11  19
ATOM     19  C   UNL     1       0.399   0.784  23.091  0.00  0.00    +0.158 C 
BRANCH  19  22
ATOM      1 CL   UNL     1       6.306  -0.359  23.285  0.00  0.00    -0.084 Cl
ATOM     22  C   UNL     1       1.879   0.497  23.139  0.00  0.00    -0.028 A 
ATOM     27  C   UNL     1       2.795   1.506  22.840  0.00  0.00    +0.007 A 
ATOM     28  C   UNL     1       2.333  -0.778  23.483  0.00  0.00    +0.007 A 
ATOM     32  C   UNL     1       4.164   1.240  22.884  0.00  0.00    +0.020 A 
ATOM     33  C   UNL     1       3.702  -1.042  23.527  0.00  0.00    +0.020 A 
ATOM     34  C   UNL     1       4.617  -0.033  23.227  0.00  0.00    +0.041 A 
ENDBRANCH  19  22
ENDBRANCH  11  19
TORSDOF 7
ENDMDL
MODEL 3
REMARK VINA RESULT:       3.8      2.221      3.507
REMARK  Name = 26745475
REMARK  8 active torsions:
REMARK  status: ('A' for Active; 'I' for Inactive)
REMARK    1  A    between atoms: S_2  and  N_10
REMARK    2  A    between atoms: S_2  and  C_21
REMARK    3  A    between atoms: O_8  and  C_18
REMARK    4  A    between atoms: O_8  and  C_30
REMARK    5  A    between atoms: N_11  and  C_19
REMARK    6  A    between atoms: C_13  and  C_18
REMARK    7  A    between atoms: C_19  and  C_22
REMARK    8  A    between atoms: C_25  and  C_31
REMARK                            x       y       z     vdW  Elec       q    Type
REMARK                         _______ _______ _______ _____ _____    ______ ____
ROOT
ATOM     10  N   UNL     1      -0.545   1.141  23.972  0.00  0.00    -0.157 NA
ATOM     11  N   UNL     1      -3.901   2.675  24.578  0.00  0.00    -0.328 N 
ATOM     12  N   UNL     1      -2.756   4.589  24.690  0.00  0.00    -0.240 NA
ATOM     13  C   UNL     1       0.220   2.229  24.682  0.00  0.00    +0.194 C 
ATOM     14  C   UNL     1      -2.000   0.993  24.344  0.00  0.00    +0.165 C 
ATOM     15  C   UNL     1      -0.427   3.615  24.472  0.00  0.00    +0.089 C 
ATOM     16  C   UNL     1      -2.585   2.341  24.479  0.00  0.00    +0.057 A 
ATOM     17  C   UNL     1      -1.902   3.530  24.553  0.00  0.00    +0.066 A 
ATOM     20  C   UNL     1      -3.953   4.040  24.703  0.00  0.00    +0.200 A 
ENDROOT
BRANCH  10   2
ATOM      2  S   UNL     1       0.292  -0.328  23.695  0.00  0.00    +0.062 S 
ATOM      6  O   UNL     1      -0.190  -0.922  22.467  0.00  0.00    -0.153 OA
ATOM      7  O   UNL     1       0.329  -1.087  24.927  0.00  0.00    -0.153 OA
BRANCH   2  21
ATOM     21  C   UNL     1       1.916   0.296  23.392  0.00  0.00    +0.106 A 
ATOM     23  C   UNL     1       3.032  -0.476  23.718  0.00  0.00    +0.041 A 
ATOM     24  C   UNL     1       2.082   1.561  22.828  0.00  0.00    +0.028 A 
ATOM     25  C   UNL     1       4.314   0.017  23.479  0.00  0.00    +0.057 A 
ATOM     26  C   UNL     1       3.366   2.054  22.589  0.00  0.00    +0.002 A 
ATOM     29  C   UNL     1       4.481   1.281  22.915  0.00  0.00    +0.012 A 
BRANCH  25  31
ATOM      3  F   UNL     1       6.599  -0.497  23.068  0.00  0.00    -0.166 F 
ATOM      4  F   UNL     1       5.910  -0.669  25.123  0.00  0.00    -0.166 F 
ATOM      5  F   UNL     1       5.313  -2.149  23.654  0.00  0.00    -0.166 F 
ATOM     31  C   UNL     1       5.506  -0.808  23.825  0.00  0.00    +0.417 C 
ENDBRANCH  25  31
ENDBRANCH   2  21
ENDBRANCH  10   2
BRANCH  13  18
ATOM      9  O   UNL     1      -0.284   0.962  26.662  0.00  0.00    -0.249 OA
ATOM     18  C   UNL     1       0.332   1.875  26.130  0.00  0.00    +0.326 C 
BRANCH  18   8
ATOM      8  O   UNL     1       1.215   2.717  26.738  0.00  0.00    -0.467 OA
ATOM     30  C   UNL     1       1.275   2.620  28.165  0.00  0.00    +0.280 C 
ENDBRANCH  18   8
ENDBRANCH  13  18
BRANCH  11  19
ATOM     19  C   UNL     1      -5.033   1.780  24.566  0.00  0.00    +0.158 C 
BRANCH  19  22
ATOM      1 CL   UNL     1      -3.487  -4.021  25.008  0.00  0.00    -0.084 Cl
ATOM     22  C   UNL     1      -4.645   0.325  24.676  0.00  0.00    -0.028 A 
ATOM     27  C   UNL     1      -4.153  -0.176  25.881  0.00  0.00    +0.007 A 
ATOM     28  C   UNL     1      -4.779  -0.518  23.573  0.00  0.00    +0.007 A 
ATOM     32  C   UNL     1      -3.794  -1.519  25.983  0.00  0.00    +0.020 A 
ATOM     33  C   UNL     1      -4.419  -1.862  23.675  0.00  0.00    +0.020 A 
ATOM     34  C   UNL     1      -3.927  -2.363  24.880  0.00  0.00    +0.041 A 
ENDBRANCH  19  22
ENDBRANCH  11  19
TORSDOF 7
ENDMDL
MODEL 4
REMARK VINA RESULT:       4.2      4.246      7.218
REMARK  Name = 26745475
REMARK  8 active torsions:
REMARK  status: ('A' for Active; 'I' for Inactive)
REMARK    1  A    between atoms: S_2  and  N_10
REMARK    2  A    between atoms: S_2  and  C_21
REMARK    3  A    between atoms: O_8  and  C_18
REMARK    4  A    between atoms: O_8  and  C_30
REMARK    5  A    between atoms: N_11  and  C_19
REMARK    6  A    between atoms: C_13  and  C_18
REMARK    7  A    between atoms: C_19  and  C_22
REMARK    8  A    between atoms: C_25  and  C_31
REMARK                            x       y       z     vdW  Elec       q    Type
REMARK                         _______ _______ _______ _____ _____    ______ ____
ROOT
ATOM     10  N   UNL     1      -2.180  -0.528  24.457  0.00  0.00    -0.157 NA
ATOM     11  N   UNL     1       0.930   1.549  24.516  0.00  0.00    -0.328 N 
ATOM     12  N   UNL     1       1.547   0.268  22.793  0.00  0.00    -0.240 NA
ATOM     13  C   UNL     1      -1.519  -1.724  23.820  0.00  0.00    +0.194 C 
ATOM     14  C   UNL     1      -1.268   0.438  25.174  0.00  0.00    +0.165 C 
ATOM     15  C   UNL     1      -0.438  -1.306  22.800  0.00  0.00    +0.089 C 
ATOM     16  C   UNL     1      -0.047   0.611  24.365  0.00  0.00    +0.057 A 
ATOM     17  C   UNL     1       0.356  -0.164  23.306  0.00  0.00    +0.066 A 
ATOM     20  C   UNL     1       1.867   1.301  23.545  0.00  0.00    +0.200 A 
ENDROOT
BRANCH  10   2
ATOM      2  S   UNL     1      -3.694  -0.800  25.211  0.00  0.00    +0.062 S 
ATOM      6  O   UNL     1      -3.489  -0.984  26.631  0.00  0.00    -0.153 OA
ATOM      7  O   UNL     1      -4.438  -1.769  24.432  0.00  0.00    -0.153 OA
BRANCH   2  21
ATOM     21  C   UNL     1      -4.446   0.779  24.972  0.00  0.00    +0.106 A 
ATOM     23  C   UNL     1      -3.942   1.653  24.009  0.00  0.00    +0.041 A 
ATOM     24  C   UNL     1      -5.543   1.153  25.748  0.00  0.00    +0.028 A 
ATOM     25  C   UNL     1      -4.536   2.901  23.821  0.00  0.00    +0.057 A 
ATOM     26  C   UNL     1      -6.137   2.401  25.560  0.00  0.00    +0.002 A 
ATOM     29  C   UNL     1      -5.633   3.274  24.595  0.00  0.00    +0.012 A 
BRANCH  25  31
ATOM      3  F   UNL     1      -2.663   3.660  22.568  0.00  0.00    -0.166 F 
ATOM      4  F   UNL     1      -4.594   3.702  21.568  0.00  0.00    -0.166 F 
ATOM      5  F   UNL     1      -4.146   5.153  23.116  0.00  0.00    -0.166 F 
ATOM     31  C   UNL     1      -3.999   3.834  22.790  0.00  0.00    +0.417 C 
ENDBRANCH  25  31
ENDBRANCH   2  21
ENDBRANCH  10   2
BRANCH  13  18
ATOM      9  O   UNL     1       0.122  -2.432  25.427  0.00  0.00    -0.249 OA
ATOM     18  C   UNL     1      -0.966  -2.602  24.896  0.00  0.00    +0.326 C 
BRANCH  18   8
ATOM      8  O   UNL     1      -1.858  -3.594  25.178  0.00  0.00    -0.467 OA
ATOM     30  C   UNL     1      -2.835  -3.849  24.164  0.00  0.00    +0.280 C 
ENDBRANCH  18   8
ENDBRANCH  13  18
BRANCH  11  19
ATOM     19  C   UNL     1       0.987   2.599  25.503  0.00  0.00    +0.158 C 
BRANCH  19  22
ATOM      1 CL   UNL     1      -4.252   5.475  26.228  0.00  0.00    -0.084 Cl
ATOM     22  C   UNL     1      -0.326   3.320  25.685  0.00  0.00    -0.028 A 
ATOM     27  C   UNL     1      -0.578   4.498  24.982  0.00  0.00    +0.007 A 
ATOM     28  C   UNL     1      -1.288   2.808  26.557  0.00  0.00    +0.007 A 
ATOM     32  C   UNL     1      -1.792   5.165  25.151  0.00  0.00    +0.020 A 
ATOM     33  C   UNL     1      -2.501   3.476  26.726  0.00  0.00    +0.020 A 
ATOM     34  C   UNL     1      -2.754   4.654  26.022  0.00  0.00    +0.041 A 
ENDBRANCH  19  22
ENDBRANCH  11  19
TORSDOF 7
ENDMDL
MODEL 5
REMARK VINA RESULT:       4.4      4.485      7.241
REMARK  Name = 26745475
REMARK  8 active torsions:
REMARK  status: ('A' for Active; 'I' for Inactive)
REMARK    1  A    between atoms: S_2  and  N_10
REMARK    2  A    between atoms: S_2  and  C_21
REMARK    3  A    between atoms: O_8  and  C_18
REMARK    4  A    between atoms: O_8  and  C_30
REMARK    5  A    between atoms: N_11  and  C_19
REMARK    6  A    between atoms: C_13  and  C_18
REMARK    7  A    between atoms: C_19  and  C_22
REMARK    8  A    between atoms: C_25  and  C_31
REMARK                            x       y       z     vdW  Elec       q    Type
REMARK                         _______ _______ _______ _____ _____    ______ ____
ROOT
ATOM     10  N   UNL     1      -2.382  -0.231  24.343  0.00  0.00    -0.157 NA
ATOM     11  N   UNL     1       0.571   2.042  24.650  0.00  0.00    -0.328 N 
ATOM     12  N   UNL     1       1.490   0.683  23.134  0.00  0.00    -0.240 NA
ATOM     13  C   UNL     1      -1.576  -1.425  23.898  0.00  0.00    +0.194 C 
ATOM     14  C   UNL     1      -1.633   0.841  25.095  0.00  0.00    +0.165 C 
ATOM     15  C   UNL     1      -0.388  -1.012  23.001  0.00  0.00    +0.089 C 
ATOM     16  C   UNL     1      -0.322   1.034  24.446  0.00  0.00    +0.057 A 
ATOM     17  C   UNL     1       0.265   0.212  23.517  0.00  0.00    +0.066 A 
ATOM     20  C   UNL     1       1.647   1.786  23.837  0.00  0.00    +0.200 A 
ENDROOT
BRANCH  10   2
ATOM      2  S   UNL     1      -3.969  -0.547  24.906  0.00  0.00    +0.062 S 
ATOM      6  O   UNL     1      -3.892  -1.174  26.207  0.00  0.00    -0.153 OA
ATOM      7  O   UNL     1      -4.738  -1.143  23.834  0.00  0.00    -0.153 OA
BRANCH   2  21
ATOM     21  C   UNL     1      -4.549   1.105  25.135  0.00  0.00    +0.106 A 
ATOM     23  C   UNL     1      -3.688   2.182  24.925  0.00  0.00    +0.041 A 
ATOM     24  C   UNL     1      -5.868   1.332  25.526  0.00  0.00    +0.028 A 
ATOM     25  C   UNL     1      -4.146   3.487  25.105  0.00  0.00    +0.057 A 
ATOM     26  C   UNL     1      -6.327   2.638  25.707  0.00  0.00    +0.002 A 
ATOM     29  C   UNL     1      -5.464   3.715  25.496  0.00  0.00    +0.012 A 
BRANCH  25  31
ATOM      3  F   UNL     1      -3.740   5.560  24.014  0.00  0.00    -0.166 F 
ATOM      4  F   UNL     1      -2.926   5.331  26.018  0.00  0.00    -0.166 F 
ATOM      5  F   UNL     1      -2.017   4.278  24.354  0.00  0.00    -0.166 F 
ATOM     31  C   UNL     1      -3.226   4.638  24.880  0.00  0.00    +0.417 C 
ENDBRANCH  25  31
ENDBRANCH   2  21
ENDBRANCH  10   2
BRANCH  13  18
ATOM      9  O   UNL     1      -0.179  -1.866  25.804  0.00  0.00    -0.249 OA
ATOM     18  C   UNL     1      -1.130  -2.185  25.106  0.00  0.00    +0.326 C 
BRANCH  18   8
ATOM      8  O   UNL     1      -1.944  -3.263  25.291  0.00  0.00    -0.467 OA
ATOM     30  C   UNL     1      -2.773  -3.608  24.177  0.00  0.00    +0.280 C 
ENDBRANCH  18   8
ENDBRANCH  13  18
BRANCH  11  19
ATOM     19  C   UNL     1       0.434   3.162  25.549  0.00  0.00    +0.158 C 
BRANCH  19  22
ATOM      1 CL   UNL     1       2.062   1.890  31.203  0.00  0.00    -0.084 Cl
ATOM     22  C   UNL     1       0.843   2.844  26.966  0.00  0.00    -0.028 A 
ATOM     27  C   UNL     1      -0.068   2.243  27.836  0.00  0.00    +0.007 A 
ATOM     28  C   UNL     1       2.131   3.150  27.407  0.00  0.00    +0.007 A 
ATOM     32  C   UNL     1       0.309   1.950  29.146  0.00  0.00    +0.020 A 
ATOM     33  C   UNL     1       2.507   2.856  28.718  0.00  0.00    +0.020 A 
ATOM     34  C   UNL     1       1.596   2.256  29.587  0.00  0.00    +0.041 A 
ENDBRANCH  19  22
ENDBRANCH  11  19
TORSDOF 7
ENDMDL
MODEL 6
REMARK VINA RESULT:       4.6      3.736      5.775
REMARK  Name = 26745475
REMARK  8 active torsions:
REMARK  status: ('A' for Active; 'I' for Inactive)
REMARK    1  A    between atoms: S_2  and  N_10
REMARK    2  A    between atoms: S_2  and  C_21
REMARK    3  A    between atoms: O_8  and  C_18
REMARK    4  A    between atoms: O_8  and  C_30
REMARK    5  A    between atoms: N_11  and  C_19
REMARK    6  A    between atoms: C_13  and  C_18
REMARK    7  A    between atoms: C_19  and  C_22
REMARK    8  A    between atoms: C_25  and  C_31
REMARK                            x       y       z     vdW  Elec       q    Type
REMARK                         _______ _______ _______ _____ _____    ______ ____
ROOT
ATOM     10  N   UNL     1      -0.636   0.696  24.744  0.00  0.00    -0.157 NA
ATOM     11  N   UNL     1      -3.638  -1.462  24.181  0.00  0.00    -0.328 N 
ATOM     12  N   UNL     1      -2.241  -3.140  24.652  0.00  0.00    -0.240 NA
ATOM     13  C   UNL     1       0.360  -0.383  24.399  0.00  0.00    +0.194 C 
ATOM     14  C   UNL     1      -2.032   0.518  24.199  0.00  0.00    +0.165 C 
ATOM     15  C   UNL     1      -0.117  -1.774  24.868  0.00  0.00    +0.089 C 
ATOM     16  C   UNL     1      -2.405  -0.903  24.332  0.00  0.00    +0.057 A 
ATOM     17  C   UNL     1      -1.565  -1.951  24.616  0.00  0.00    +0.066 A 
ATOM     20  C   UNL     1      -3.487  -2.811  24.383  0.00  0.00    +0.200 A 
ENDROOT
BRANCH  10   2
ATOM      2  S   UNL     1      -0.051   2.306  24.744  0.00  0.00    +0.062 S 
ATOM      6  O   UNL     1      -1.064   3.177  24.188  0.00  0.00    -0.153 OA
ATOM      7  O   UNL     1       1.303   2.313  24.232  0.00  0.00    -0.153 OA
BRANCH   2  21
ATOM     21  C   UNL     1       0.024   2.606  26.482  0.00  0.00    +0.106 A 
ATOM     23  C   UNL     1       1.243   2.510  27.155  0.00  0.00    +0.041 A 
ATOM     24  C   UNL     1      -1.135   2.939  27.183  0.00  0.00    +0.028 A 
ATOM     25  C   UNL     1       1.302   2.746  28.528  0.00  0.00    +0.057 A 
ATOM     26  C   UNL     1      -1.076   3.176  28.557  0.00  0.00    +0.002 A 
ATOM     29  C   UNL     1       0.143   3.079  29.228  0.00  0.00    +0.012 A 
BRANCH  25  31
ATOM      3  F   UNL     1       2.508   1.936  30.409  0.00  0.00    -0.166 F 
ATOM      4  F   UNL     1       3.583   2.027  28.521  0.00  0.00    -0.166 F 
ATOM      5  F   UNL     1       3.131   3.854  29.598  0.00  0.00    -0.166 F 
ATOM     31  C   UNL     1       2.604   2.644  29.247  0.00  0.00    +0.417 C 
ENDBRANCH  25  31
ENDBRANCH   2  21
ENDBRANCH  10   2
BRANCH  13  18
ATOM      9  O   UNL     1      -0.198   0.011  22.094  0.00  0.00    -0.249 OA
ATOM     18  C   UNL     1       0.623  -0.345  22.927  0.00  0.00    +0.326 C 
BRANCH  18   8
ATOM      8  O   UNL     1       1.897  -0.762  22.682  0.00  0.00    -0.467 OA
ATOM     30  C   UNL     1       2.843   0.276  22.408  0.00  0.00    +0.280 C 
ENDBRANCH  18   8
ENDBRANCH  13  18
BRANCH  11  19
ATOM     19  C   UNL     1      -4.870  -0.784  23.860  0.00  0.00    +0.158 C 
BRANCH  19  22
ATOM      1 CL   UNL     1      -5.055   4.894  25.850  0.00  0.00    -0.084 Cl
ATOM     22  C   UNL     1      -4.917   0.639  24.359  0.00  0.00    -0.028 A 
ATOM     27  C   UNL     1      -4.330   1.660  23.611  0.00  0.00    +0.007 A 
ATOM     28  C   UNL     1      -5.546   0.934  25.569  0.00  0.00    +0.007 A 
ATOM     32  C   UNL     1      -4.372   2.975  24.073  0.00  0.00    +0.020 A 
ATOM     33  C   UNL     1      -5.587   2.250  26.031  0.00  0.00    +0.020 A 
ATOM     34  C   UNL     1      -5.000   3.271  25.282  0.00  0.00    +0.041 A 
ENDBRANCH  19  22
ENDBRANCH  11  19
TORSDOF 7
ENDMDL
MODEL 7
REMARK VINA RESULT:       5.0      3.810      5.652
REMARK  Name = 26745475
REMARK  8 active torsions:
REMARK  status: ('A' for Active; 'I' for Inactive)
REMARK    1  A    between atoms: S_2  and  N_10
REMARK    2  A    between atoms: S_2  and  C_21
REMARK    3  A    between atoms: O_8  and  C_18
REMARK    4  A    between atoms: O_8  and  C_30
REMARK    5  A    between atoms: N_11  and  C_19
REMARK    6  A    between atoms: C_13  and  C_18
REMARK    7  A    between atoms: C_19  and  C_22
REMARK    8  A    between atoms: C_25  and  C_31
REMARK                            x       y       z     vdW  Elec       q    Type
REMARK                         _______ _______ _______ _____ _____    ______ ____
ROOT
ATOM     10  N   UNL     1      -0.198   2.082  24.027  0.00  0.00    -0.157 NA
ATOM     11  N   UNL     1      -3.118   4.417  23.932  0.00  0.00    -0.328 N 
ATOM     12  N   UNL     1      -1.623   5.951  24.565  0.00  0.00    -0.240 NA
ATOM     13  C   UNL     1       0.577   2.891  25.036  0.00  0.00    +0.194 C 
ATOM     14  C   UNL     1      -1.690   2.306  23.992  0.00  0.00    +0.165 C 
ATOM     15  C   UNL     1       0.368   4.408  24.837  0.00  0.00    +0.089 C 
ATOM     16  C   UNL     1      -1.947   3.751  24.134  0.00  0.00    +0.057 A 
ATOM     17  C   UNL     1      -1.047   4.712  24.525  0.00  0.00    +0.066 A 
ATOM     20  C   UNL     1      -2.872   5.739  24.203  0.00  0.00    +0.200 A 
ENDROOT
BRANCH  10   2
ATOM      2  S   UNL     1       0.304   0.460  23.798  0.00  0.00    +0.062 S 
ATOM      6  O   UNL     1       1.523   0.234  24.544  0.00  0.00    -0.153 OA
ATOM      7  O   UNL     1       0.219   0.136  22.390  0.00  0.00    -0.153 OA
BRANCH   2  21
ATOM     21  C   UNL     1      -1.003  -0.387  24.629  0.00  0.00    +0.106 A 
ATOM     23  C   UNL     1      -2.085  -0.884  23.902  0.00  0.00    +0.041 A 
ATOM     24  C   UNL     1      -0.954  -0.559  26.012  0.00  0.00    +0.028 A 
ATOM     25  C   UNL     1      -3.118  -1.553  24.559  0.00  0.00    +0.057 A 
ATOM     26  C   UNL     1      -1.987  -1.228  26.670  0.00  0.00    +0.002 A 
ATOM     29  C   UNL     1      -3.069  -1.725  25.942  0.00  0.00    +0.012 A 
BRANCH  25  31
ATOM      3  F   UNL     1      -4.386  -3.442  23.870  0.00  0.00    -0.166 F 
ATOM      4  F   UNL     1      -5.481  -1.591  24.190  0.00  0.00    -0.166 F 
ATOM      5  F   UNL     1      -4.210  -1.808  22.446  0.00  0.00    -0.166 F 
ATOM     31  C   UNL     1      -4.274  -2.085  23.783  0.00  0.00    +0.417 C 
ENDBRANCH  25  31
ENDBRANCH   2  21
ENDBRANCH  10   2
BRANCH  13  18
ATOM      9  O   UNL     1      -0.952   2.171  26.746  0.00  0.00    -0.249 OA
ATOM     18  C   UNL     1       0.191   2.447  26.411  0.00  0.00    +0.326 C 
BRANCH  18   8
ATOM      8  O   UNL     1       1.299   2.402  27.203  0.00  0.00    -0.467 OA
ATOM     30  C   UNL     1       1.050   2.418  28.612  0.00  0.00    +0.280 C 
ENDBRANCH  18   8
ENDBRANCH  13  18
BRANCH  11  19
ATOM     19  C   UNL     1      -4.381   3.855  23.521  0.00  0.00    +0.158 C 
BRANCH  19  22
ATOM      1 CL   UNL     1      -7.131   0.738  27.876  0.00  0.00    -0.084 Cl
ATOM     22  C   UNL     1      -5.070   3.073  24.613  0.00  0.00    -0.028 A 
ATOM     27  C   UNL     1      -5.669   3.744  25.679  0.00  0.00    +0.007 A 
ATOM     28  C   UNL     1      -5.108   1.680  24.556  0.00  0.00    +0.007 A 
ATOM     32  C   UNL     1      -6.305   3.022  26.689  0.00  0.00    +0.020 A 
ATOM     33  C   UNL     1      -5.744   0.958  25.566  0.00  0.00    +0.020 A 
ATOM     34  C   UNL     1      -6.343   1.629  26.632  0.00  0.00    +0.041 A 
ENDBRANCH  19  22
ENDBRANCH  11  19
TORSDOF 7
ENDMDL
MODEL 8
REMARK VINA RESULT:       5.2      3.797      6.119
REMARK  Name = 26745475
REMARK  8 active torsions:
REMARK  status: ('A' for Active; 'I' for Inactive)
REMARK    1  A    between atoms: S_2  and  N_10
REMARK    2  A    between atoms: S_2  and  C_21
REMARK    3  A    between atoms: O_8  and  C_18
REMARK    4  A    between atoms: O_8  and  C_30
REMARK    5  A    between atoms: N_11  and  C_19
REMARK    6  A    between atoms: C_13  and  C_18
REMARK    7  A    between atoms: C_19  and  C_22
REMARK    8  A    between atoms: C_25  and  C_31
REMARK                            x       y       z     vdW  Elec       q    Type
REMARK                         _______ _______ _______ _____ _____    ______ ____
ROOT
ATOM     10  N   UNL     1      -0.426   0.466  25.021  0.00  0.00    -0.157 NA
ATOM     11  N   UNL     1      -3.303  -1.670  23.951  0.00  0.00    -0.328 N 
ATOM     12  N   UNL     1      -1.996  -3.361  24.597  0.00  0.00    -0.240 NA
ATOM     13  C   UNL     1       0.612  -0.608  24.811  0.00  0.00    +0.194 C 
ATOM     14  C   UNL     1      -1.720   0.304  24.262  0.00  0.00    +0.165 C 
ATOM     15  C   UNL     1       0.068  -2.008  25.170  0.00  0.00    +0.089 C 
ATOM     16  C   UNL     1      -2.109  -1.118  24.305  0.00  0.00    +0.057 A 
ATOM     17  C   UNL     1      -1.323  -2.175  24.693  0.00  0.00    +0.066 A 
ATOM     20  C   UNL     1      -3.186  -3.023  24.146  0.00  0.00    +0.200 A 
ENDROOT
BRANCH  10   2
ATOM      2  S   UNL     1       0.152   2.074  25.147  0.00  0.00    +0.062 S 
ATOM      6  O   UNL     1       0.972   2.373  23.993  0.00  0.00    -0.153 OA
ATOM      7  O   UNL     1       0.646   2.291  26.491  0.00  0.00    -0.153 OA
BRANCH   2  21
ATOM     21  C   UNL     1      -1.365   2.961  24.977  0.00  0.00    +0.106 A 
ATOM     23  C   UNL     1      -2.075   2.905  23.778  0.00  0.00    +0.041 A 
ATOM     24  C   UNL     1      -1.854   3.716  26.043  0.00  0.00    +0.028 A 
ATOM     25  C   UNL     1      -3.274   3.606  23.644  0.00  0.00    +0.057 A 
ATOM     26  C   UNL     1      -3.054   4.417  25.909  0.00  0.00    +0.002 A 
ATOM     29  C   UNL     1      -3.763   4.361  24.709  0.00  0.00    +0.012 A 
BRANCH  25  31
ATOM      3  F   UNL     1      -5.225   2.891  22.488  0.00  0.00    -0.166 F 
ATOM      4  F   UNL     1      -4.342   4.774  21.851  0.00  0.00    -0.166 F 
ATOM      5  F   UNL     1      -3.366   2.901  21.360  0.00  0.00    -0.166 F 
ATOM     31  C   UNL     1      -4.033   3.546  22.362  0.00  0.00    +0.417 C 
ENDBRANCH  25  31
ENDBRANCH   2  21
ENDBRANCH  10   2
BRANCH  13  18
ATOM      9  O   UNL     1       0.367  -0.451  22.425  0.00  0.00    -0.249 OA
ATOM     18  C   UNL     1       1.100  -0.539  23.400  0.00  0.00    +0.326 C 
BRANCH  18   8
ATOM      8  O   UNL     1       2.462  -0.589  23.386  0.00  0.00    -0.467 OA
ATOM     30  C   UNL     1       3.100   0.266  22.432  0.00  0.00    +0.280 C 
ENDBRANCH  18   8
ENDBRANCH  13  18
BRANCH  11  19
ATOM     19  C   UNL     1      -4.471  -0.981  23.458  0.00  0.00    +0.158 C 
BRANCH  19  22
ATOM      1 CL   UNL     1      -6.411   3.360  27.150  0.00  0.00    -0.084 Cl
ATOM     22  C   UNL     1      -4.958   0.107  24.384  0.00  0.00    -0.028 A 
ATOM     27  C   UNL     1      -4.248   0.401  25.548  0.00  0.00    +0.007 A 
ATOM     28  C   UNL     1      -6.118   0.819  24.075  0.00  0.00    +0.007 A 
ATOM     32  C   UNL     1      -4.699   1.407  26.404  0.00  0.00    +0.020 A 
ATOM     33  C   UNL     1      -6.568   1.824  24.931  0.00  0.00    +0.020 A 
ATOM     34  C   UNL     1      -5.858   2.118  26.096  0.00  0.00    +0.041 A 
ENDBRANCH  19  22
ENDBRANCH  11  19
TORSDOF 7
ENDMDL
