MODEL 1
REMARK VINA RESULT:      -4.8      0.000      0.000
REMARK  Name = 75536609
REMARK  8 active torsions:
REMARK  status: ('A' for Active; 'I' for Inactive)
REMARK    1  A    between atoms: O_3  and  C_9
REMARK    2  A    between atoms: N_5  and  C_8
REMARK    3  A    between atoms: N_5  and  C_13
REMARK    4  A    between atoms: N_6  and  C_12
REMARK    5  A    between atoms: C_10  and  C_12
REMARK    6  A    between atoms: C_13  and  C_14
REMARK    7  A    between atoms: C_15  and  C_18
REMARK    8  A    between atoms: C_19  and  C_25
REMARK                            x       y       z     vdW  Elec       q    Type
REMARK                         _______ _______ _______ _____ _____    ______ ____
ROOT
ATOM      2  O   UNL     1      -0.624  -0.547  25.580  0.00  0.00    -0.371 OA
ATOM      8  C   UNL     1      -2.889  -1.242  25.744  0.00  0.00    +0.111 C 
ATOM      9  C   UNL     1      -2.443  -1.349  24.298  0.00  0.00    +0.164 C 
ATOM     10  C   UNL     1      -0.930  -1.396  24.460  0.00  0.00    +0.165 C 
ATOM     11  C   UNL     1      -1.836  -0.308  26.316  0.00  0.00    +0.181 C 
ENDROOT
BRANCH   9   3
ATOM      3  O   UNL     1      -2.941  -2.507  23.657  0.00  0.00    -0.388 OA
ATOM     27  H   UNL     1      -2.300  -3.226  23.784  0.00  0.00    +0.210 HD
ENDBRANCH   9   3
BRANCH   8   5
ATOM      5  N   UNL     1      -4.242  -0.735  25.902  0.00  0.00    -0.305 NA
ATOM     26  H   UNL     1      -4.280  -0.137  26.728  0.00  0.00    +0.123 HD
BRANCH   5  13
ATOM     13  C   UNL     1      -4.651   0.043  24.738  0.00  0.00    +0.116 C 
BRANCH  13  14
ATOM     14  C   UNL     1      -4.613   1.524  25.012  0.00  0.00    -0.032 A 
ATOM     16  C   UNL     1      -3.405   2.217  24.938  0.00  0.00    +0.023 A 
ATOM     17  C   UNL     1      -5.788   2.201  25.338  0.00  0.00    +0.005 A 
ATOM     19  C   UNL     1      -3.371   3.589  25.191  0.00  0.00    +0.052 A 
ATOM     20  C   UNL     1      -5.754   3.572  25.591  0.00  0.00    +0.002 A 
ATOM     21  C   UNL     1      -4.547   4.266  25.517  0.00  0.00    +0.019 A 
BRANCH  19  25
ATOM      7  N   UNL     1      -1.131   4.879  25.056  0.00  0.00    -0.191 NA
ATOM     25  C   UNL     1      -2.135   4.300  25.116  0.00  0.00    +0.099 C 
ENDBRANCH  19  25
ENDBRANCH  13  14
ENDBRANCH   5  13
ENDBRANCH   8   5
BRANCH  10  12
ATOM     12  C   UNL     1      -0.179  -0.917  23.231  0.00  0.00    +0.138 C 
BRANCH  12   6
ATOM      4  O   UNL     1       1.883  -0.244  21.351  0.00  0.00    -0.270 OA
ATOM      6  N   UNL     1       1.200  -0.658  23.529  0.00  0.00    -0.308 N 
ATOM     15  C   UNL     1       2.135  -0.337  22.549  0.00  0.00    +0.251 C 
ATOM     28  H   UNL     1       1.483  -0.732  24.500  0.00  0.00    +0.149 HD
BRANCH  15  18
ATOM      1  S   UNL     1       4.351  -1.406  23.798  0.00  0.00    -0.092 S 
ATOM     18  C   UNL     1       3.529  -0.124  23.017  0.00  0.00    +0.074 A 
ATOM     22  C   UNL     1       4.310   1.007  22.917  0.00  0.00    +0.021 A 
ATOM     23  C   UNL     1       5.600   0.817  23.490  0.00  0.00    +0.008 A 
ATOM     24  C   UNL     1       5.757  -0.451  24.006  0.00  0.00    +0.046 A 
ENDBRANCH  15  18
ENDBRANCH  12   6
ENDBRANCH  10  12
TORSDOF 8
ENDMDL
MODEL 2
REMARK VINA RESULT:      -4.8      2.951      6.761
REMARK  Name = 75536609
REMARK  8 active torsions:
REMARK  status: ('A' for Active; 'I' for Inactive)
REMARK    1  A    between atoms: O_3  and  C_9
REMARK    2  A    between atoms: N_5  and  C_8
REMARK    3  A    between atoms: N_5  and  C_13
REMARK    4  A    between atoms: N_6  and  C_12
REMARK    5  A    between atoms: C_10  and  C_12
REMARK    6  A    between atoms: C_13  and  C_14
REMARK    7  A    between atoms: C_15  and  C_18
REMARK    8  A    between atoms: C_19  and  C_25
REMARK                            x       y       z     vdW  Elec       q    Type
REMARK                         _______ _______ _______ _____ _____    ______ ____
ROOT
ATOM      2  O   UNL     1      -4.089   3.625  26.683  0.00  0.00    -0.371 OA
ATOM      8  C   UNL     1      -2.451   4.336  25.117  0.00  0.00    +0.111 C 
ATOM      9  C   UNL     1      -3.588   3.663  24.372  0.00  0.00    +0.164 C 
ATOM     10  C   UNL     1      -4.711   3.765  25.394  0.00  0.00    +0.165 C 
ATOM     11  C   UNL     1      -2.673   3.824  26.531  0.00  0.00    +0.181 C 
ENDROOT
BRANCH   9   3
ATOM      3  O   UNL     1      -3.913   4.319  23.163  0.00  0.00    -0.388 OA
ATOM     27  H   UNL     1      -3.515   5.206  23.180  0.00  0.00    +0.210 HD
ENDBRANCH   9   3
BRANCH   8   5
ATOM      5  N   UNL     1      -1.135   4.006  24.596  0.00  0.00    -0.305 NA
ATOM     26  H   UNL     1      -0.588   4.863  24.504  0.00  0.00    +0.123 HD
BRANCH   5  13
ATOM     13  C   UNL     1      -0.431   3.090  25.486  0.00  0.00    +0.116 C 
BRANCH  13  14
ATOM     14  C   UNL     1      -0.029   1.821  24.782  0.00  0.00    -0.032 A 
ATOM     16  C   UNL     1       1.149   1.779  24.037  0.00  0.00    +0.023 A 
ATOM     17  C   UNL     1      -0.836   0.687  24.876  0.00  0.00    +0.005 A 
ATOM     19  C   UNL     1       1.521   0.603  23.385  0.00  0.00    +0.052 A 
ATOM     20  C   UNL     1      -0.465  -0.489  24.225  0.00  0.00    +0.002 A 
ATOM     21  C   UNL     1       0.713  -0.531  23.480  0.00  0.00    +0.019 A 
BRANCH  19  25
ATOM      7  N   UNL     1       3.708   0.522  22.002  0.00  0.00    -0.191 NA
ATOM     25  C   UNL     1       2.727   0.558  22.622  0.00  0.00    +0.099 C 
ENDBRANCH  19  25
ENDBRANCH  13  14
ENDBRANCH   5  13
ENDBRANCH   8   5
BRANCH  10  12
ATOM     12  C   UNL     1      -5.780   2.702  25.221  0.00  0.00    +0.138 C 
BRANCH  12   6
ATOM      4  O   UNL     1      -4.139   1.204  23.404  0.00  0.00    -0.270 OA
ATOM      6  N   UNL     1      -5.248   1.386  25.433  0.00  0.00    -0.308 N 
ATOM     15  C   UNL     1      -4.458   0.733  24.491  0.00  0.00    +0.251 C 
ATOM     28  H   UNL     1      -5.485   0.929  26.306  0.00  0.00    +0.149 HD
BRANCH  15  18
ATOM      1  S   UNL     1      -4.118  -1.883  23.683  0.00  0.00    -0.092 S 
ATOM     18  C   UNL     1      -4.007  -0.636  24.851  0.00  0.00    +0.074 A 
ATOM     22  C   UNL     1      -3.483  -1.088  26.042  0.00  0.00    +0.021 A 
ATOM     23  C   UNL     1      -3.170  -2.477  25.995  0.00  0.00    +0.008 A 
ATOM     24  C   UNL     1      -3.465  -3.034  24.770  0.00  0.00    +0.046 A 
ENDBRANCH  15  18
ENDBRANCH  12   6
ENDBRANCH  10  12
TORSDOF 8
ENDMDL
MODEL 3
REMARK VINA RESULT:      -4.6      2.373      4.779
REMARK  Name = 75536609
REMARK  8 active torsions:
REMARK  status: ('A' for Active; 'I' for Inactive)
REMARK    1  A    between atoms: O_3  and  C_9
REMARK    2  A    between atoms: N_5  and  C_8
REMARK    3  A    between atoms: N_5  and  C_13
REMARK    4  A    between atoms: N_6  and  C_12
REMARK    5  A    between atoms: C_10  and  C_12
REMARK    6  A    between atoms: C_13  and  C_14
REMARK    7  A    between atoms: C_15  and  C_18
REMARK    8  A    between atoms: C_19  and  C_25
REMARK                            x       y       z     vdW  Elec       q    Type
REMARK                         _______ _______ _______ _____ _____    ______ ____
ROOT
ATOM      2  O   UNL     1      -2.518   3.464  23.225  0.00  0.00    -0.371 OA
ATOM      8  C   UNL     1      -4.537   2.915  24.347  0.00  0.00    +0.111 C 
ATOM      9  C   UNL     1      -3.474   3.249  25.377  0.00  0.00    +0.164 C 
ATOM     10  C   UNL     1      -2.494   4.054  24.536  0.00  0.00    +0.165 C 
ATOM     11  C   UNL     1      -3.688   2.636  23.118  0.00  0.00    +0.181 C 
ENDROOT
BRANCH   9   3
ATOM      3  O   UNL     1      -3.982   4.002  26.461  0.00  0.00    -0.388 OA
ATOM     27  H   UNL     1      -4.580   4.683  26.107  0.00  0.00    +0.210 HD
ENDBRANCH   9   3
BRANCH   8   5
ATOM      5  N   UNL     1      -5.379   1.790  24.721  0.00  0.00    -0.305 NA
ATOM     26  H   UNL     1      -5.546   1.210  23.898  0.00  0.00    +0.123 HD
BRANCH   5  13
ATOM     13  C   UNL     1      -4.742   0.976  25.750  0.00  0.00    +0.116 C 
BRANCH  13  14
ATOM     14  C   UNL     1      -4.092  -0.253  25.170  0.00  0.00    -0.032 A 
ATOM     16  C   UNL     1      -2.786  -0.587  25.526  0.00  0.00    +0.023 A 
ATOM     17  C   UNL     1      -4.799  -1.057  24.276  0.00  0.00    +0.005 A 
ATOM     19  C   UNL     1      -2.185  -1.725  24.989  0.00  0.00    +0.052 A 
ATOM     20  C   UNL     1      -4.199  -2.196  23.739  0.00  0.00    +0.002 A 
ATOM     21  C   UNL     1      -2.893  -2.530  24.095  0.00  0.00    +0.019 A 
BRANCH  19  25
ATOM      7  N   UNL     1       0.240  -2.348  25.648  0.00  0.00    -0.191 NA
ATOM     25  C   UNL     1      -0.847  -2.069  25.353  0.00  0.00    +0.099 C 
ENDBRANCH  19  25
ENDBRANCH  13  14
ENDBRANCH   5  13
ENDBRANCH   8   5
BRANCH  10  12
ATOM     12  C   UNL     1      -1.077   4.035  25.082  0.00  0.00    +0.138 C 
BRANCH  12   6
ATOM      4  O   UNL     1      -0.214   1.369  25.703  0.00  0.00    -0.270 OA
ATOM      6  N   UNL     1      -0.221   3.205  24.285  0.00  0.00    -0.308 N 
ATOM     15  C   UNL     1       0.148   1.918  24.667  0.00  0.00    +0.251 C 
ATOM     28  H   UNL     1       0.129   3.601  23.420  0.00  0.00    +0.149 HD
BRANCH  15  18
ATOM      1  S   UNL     1       0.442  -0.077  22.784  0.00  0.00    -0.092 S 
ATOM     18  C   UNL     1       1.063   1.197  23.744  0.00  0.00    +0.074 A 
ATOM     22  C   UNL     1       2.407   1.403  23.525  0.00  0.00    +0.021 A 
ATOM     23  C   UNL     1       2.935   0.502  22.556  0.00  0.00    +0.008 A 
ATOM     24  C   UNL     1       1.974  -0.359  22.071  0.00  0.00    +0.046 A 
ENDBRANCH  15  18
ENDBRANCH  12   6
ENDBRANCH  10  12
TORSDOF 8
ENDMDL
MODEL 4
REMARK VINA RESULT:      -3.8     14.935     17.812
REMARK  Name = 75536609
REMARK  8 active torsions:
REMARK  status: ('A' for Active; 'I' for Inactive)
REMARK    1  A    between atoms: O_3  and  C_9
REMARK    2  A    between atoms: N_5  and  C_8
REMARK    3  A    between atoms: N_5  and  C_13
REMARK    4  A    between atoms: N_6  and  C_12
REMARK    5  A    between atoms: C_10  and  C_12
REMARK    6  A    between atoms: C_13  and  C_14
REMARK    7  A    between atoms: C_15  and  C_18
REMARK    8  A    between atoms: C_19  and  C_25
REMARK                            x       y       z     vdW  Elec       q    Type
REMARK                         _______ _______ _______ _____ _____    ______ ____
ROOT
ATOM      2  O   UNL     1      -6.653  -8.671  12.288  0.00  0.00    -0.371 OA
ATOM      8  C   UNL     1      -5.850  -8.909  10.065  0.00  0.00    +0.111 C 
ATOM      9  C   UNL     1      -6.564 -10.185  10.473  0.00  0.00    +0.164 C 
ATOM     10  C   UNL     1      -7.426  -9.684  11.622  0.00  0.00    +0.165 C 
ATOM     11  C   UNL     1      -5.581  -8.270  11.417  0.00  0.00    +0.181 C 
ENDROOT
BRANCH   9   3
ATOM      3  O   UNL     1      -7.343 -10.732   9.427  0.00  0.00    -0.388 OA
ATOM     27  H   UNL     1      -8.133 -10.177   9.312  0.00  0.00    +0.210 HD
ENDBRANCH   9   3
BRANCH   8   5
ATOM      5  N   UNL     1      -4.639  -9.138   9.295  0.00  0.00    -0.305 NA
ATOM     26  H   UNL     1      -4.033  -8.321   9.376  0.00  0.00    +0.123 HD
BRANCH   5  13
ATOM     13  C   UNL     1      -3.919 -10.310   9.783  0.00  0.00    +0.116 C 
BRANCH  13  14
ATOM     14  C   UNL     1      -2.866  -9.940  10.793  0.00  0.00    -0.032 A 
ATOM     16  C   UNL     1      -2.992 -10.355  12.119  0.00  0.00    +0.023 A 
ATOM     17  C   UNL     1      -1.761  -9.182  10.401  0.00  0.00    +0.005 A 
ATOM     19  C   UNL     1      -2.015 -10.012  13.053  0.00  0.00    +0.052 A 
ATOM     20  C   UNL     1      -0.784  -8.840  11.335  0.00  0.00    +0.002 A 
ATOM     21  C   UNL     1      -0.910  -9.255  12.661  0.00  0.00    +0.019 A 
BRANCH  19  25
ATOM      7  N   UNL     1      -2.246 -10.781  15.515  0.00  0.00    -0.191 NA
ATOM     25  C   UNL     1      -2.142 -10.437  14.411  0.00  0.00    +0.099 C 
ENDBRANCH  19  25
ENDBRANCH  13  14
ENDBRANCH   5  13
ENDBRANCH   8   5
BRANCH  10  12
ATOM     12  C   UNL     1      -7.803 -10.775  12.610  0.00  0.00    +0.138 C 
BRANCH  12   6
ATOM      4  O   UNL     1      -6.936 -10.131  15.269  0.00  0.00    -0.270 OA
ATOM      6  N   UNL     1      -8.615 -10.258  13.673  0.00  0.00    -0.308 N 
ATOM     15  C   UNL     1      -8.107  -9.974  14.938  0.00  0.00    +0.251 C 
ATOM     28  H   UNL     1      -9.599 -10.118  13.475  0.00  0.00    +0.149 HD
BRANCH  15  18
ATOM      1  S   UNL     1      -9.758 -10.564  17.070  0.00  0.00    -0.092 S 
ATOM     18  C   UNL     1      -9.084  -9.470  15.938  0.00  0.00    +0.074 A 
ATOM     22  C   UNL     1      -9.560  -8.189  16.111  0.00  0.00    +0.021 A 
ATOM     23  C   UNL     1     -10.491  -8.105  17.186  0.00  0.00    +0.008 A 
ATOM     24  C   UNL     1     -10.691  -9.325  17.795  0.00  0.00    +0.046 A 
ENDBRANCH  15  18
ENDBRANCH  12   6
ENDBRANCH  10  12
TORSDOF 8
ENDMDL
MODEL 5
REMARK VINA RESULT:      -3.5      1.887      3.622
REMARK  Name = 75536609
REMARK  8 active torsions:
REMARK  status: ('A' for Active; 'I' for Inactive)
REMARK    1  A    between atoms: O_3  and  C_9
REMARK    2  A    between atoms: N_5  and  C_8
REMARK    3  A    between atoms: N_5  and  C_13
REMARK    4  A    between atoms: N_6  and  C_12
REMARK    5  A    between atoms: C_10  and  C_12
REMARK    6  A    between atoms: C_13  and  C_14
REMARK    7  A    between atoms: C_15  and  C_18
REMARK    8  A    between atoms: C_19  and  C_25
REMARK                            x       y       z     vdW  Elec       q    Type
REMARK                         _______ _______ _______ _____ _____    ______ ____
ROOT
ATOM      2  O   UNL     1      -0.372   4.009  23.689  0.00  0.00    -0.371 OA
ATOM      8  C   UNL     1      -1.419   4.083  25.819  0.00  0.00    +0.111 C 
ATOM      9  C   UNL     1      -0.902   2.679  25.571  0.00  0.00    +0.164 C 
ATOM     10  C   UNL     1       0.144   2.936  24.495  0.00  0.00    +0.165 C 
ATOM     11  C   UNL     1      -1.439   4.650  24.409  0.00  0.00    +0.181 C 
ENDROOT
BRANCH   9   3
ATOM      3  O   UNL     1      -0.336   2.093  26.727  0.00  0.00    -0.388 OA
ATOM     27  H   UNL     1      -0.197   2.793  27.387  0.00  0.00    +0.210 HD
ENDBRANCH   9   3
BRANCH   8   5
ATOM      5  N   UNL     1      -2.721   4.121  26.463  0.00  0.00    -0.305 NA
ATOM     26  H   UNL     1      -2.764   4.929  27.084  0.00  0.00    +0.123 HD
BRANCH   5  13
ATOM     13  C   UNL     1      -3.792   4.226  25.478  0.00  0.00    +0.116 C 
BRANCH  13  14
ATOM     14  C   UNL     1      -4.494   2.910  25.269  0.00  0.00    -0.032 A 
ATOM     16  C   UNL     1      -3.760   1.770  24.944  0.00  0.00    +0.023 A 
ATOM     17  C   UNL     1      -5.881   2.833  25.404  0.00  0.00    +0.005 A 
ATOM     19  C   UNL     1      -4.411   0.552  24.752  0.00  0.00    +0.052 A 
ATOM     20  C   UNL     1      -6.532   1.614  25.212  0.00  0.00    +0.002 A 
ATOM     21  C   UNL     1      -5.797   0.474  24.887  0.00  0.00    +0.019 A 
BRANCH  19  25
ATOM      7  N   UNL     1      -3.049  -1.567  24.150  0.00  0.00    -0.191 NA
ATOM     25  C   UNL     1      -3.660  -0.617  24.419  0.00  0.00    +0.099 C 
ENDBRANCH  19  25
ENDBRANCH  13  14
ENDBRANCH   5  13
ENDBRANCH   8   5
BRANCH  10  12
ATOM     12  C   UNL     1       0.420   1.725  23.623  0.00  0.00    +0.138 C 
BRANCH  12   6
ATOM      4  O   UNL     1       1.806  -0.120  21.916  0.00  0.00    -0.270 OA
ATOM      6  N   UNL     1       1.774   1.272  23.771  0.00  0.00    -0.308 N 
ATOM     15  C   UNL     1       2.366   0.371  22.892  0.00  0.00    +0.251 C 
ATOM     28  H   UNL     1       2.293   1.627  24.566  0.00  0.00    +0.149 HD
BRANCH  15  18
ATOM      1  S   UNL     1       4.083  -1.594  23.790  0.00  0.00    -0.092 S 
ATOM     18  C   UNL     1       3.767  -0.019  23.198  0.00  0.00    +0.074 A 
ATOM     22  C   UNL     1       4.919   0.728  23.074  0.00  0.00    +0.021 A 
ATOM     23  C   UNL     1       6.075  -0.003  23.471  0.00  0.00    +0.008 A 
ATOM     24  C   UNL     1       5.764  -1.281  23.883  0.00  0.00    +0.046 A 
ENDBRANCH  15  18
ENDBRANCH  12   6
ENDBRANCH  10  12
TORSDOF 8
ENDMDL
MODEL 6
REMARK VINA RESULT:      -3.5     15.360     18.116
REMARK  Name = 75536609
REMARK  8 active torsions:
REMARK  status: ('A' for Active; 'I' for Inactive)
REMARK    1  A    between atoms: O_3  and  C_9
REMARK    2  A    between atoms: N_5  and  C_8
REMARK    3  A    between atoms: N_5  and  C_13
REMARK    4  A    between atoms: N_6  and  C_12
REMARK    5  A    between atoms: C_10  and  C_12
REMARK    6  A    between atoms: C_13  and  C_14
REMARK    7  A    between atoms: C_15  and  C_18
REMARK    8  A    between atoms: C_19  and  C_25
REMARK                            x       y       z     vdW  Elec       q    Type
REMARK                         _______ _______ _______ _____ _____    ______ ____
ROOT
ATOM      2  O   UNL     1      -6.686  -8.768  12.103  0.00  0.00    -0.371 OA
ATOM      8  C   UNL     1      -5.959  -8.518   9.856  0.00  0.00    +0.111 C 
ATOM      9  C   UNL     1      -6.916  -9.693   9.939  0.00  0.00    +0.164 C 
ATOM     10  C   UNL     1      -7.653  -9.381  11.233  0.00  0.00    +0.165 C 
ATOM     11  C   UNL     1      -5.558  -8.353  11.312  0.00  0.00    +0.181 C 
ENDROOT
BRANCH   9   3
ATOM      3  O   UNL     1      -7.795  -9.761   8.834  0.00  0.00    -0.388 OA
ATOM     27  H   UNL     1      -8.395  -8.996   8.874  0.00  0.00    +0.210 HD
ENDBRANCH   9   3
BRANCH   8   5
ATOM      5  N   UNL     1      -4.823  -8.751   8.979  0.00  0.00    -0.305 NA
ATOM     26  H   UNL     1      -4.116  -8.036   9.152  0.00  0.00    +0.123 HD
BRANCH   5  13
ATOM     13  C   UNL     1      -4.235 -10.064   9.218  0.00  0.00    +0.116 C 
BRANCH  13  14
ATOM     14  C   UNL     1      -3.329 -10.062  10.421  0.00  0.00    -0.032 A 
ATOM     16  C   UNL     1      -2.136  -9.341  10.396  0.00  0.00    +0.023 A 
ATOM     17  C   UNL     1      -3.686 -10.781  11.562  0.00  0.00    +0.005 A 
ATOM     19  C   UNL     1      -1.298  -9.339  11.511  0.00  0.00    +0.052 A 
ATOM     20  C   UNL     1      -2.849 -10.779  12.677  0.00  0.00    +0.002 A 
ATOM     21  C   UNL     1      -1.656 -10.058  12.652  0.00  0.00    +0.019 A 
BRANCH  19  25
ATOM      7  N   UNL     1       0.918  -8.000  11.469  0.00  0.00    -0.191 NA
ATOM     25  C   UNL     1      -0.076  -8.601  11.487  0.00  0.00    +0.099 C 
ENDBRANCH  19  25
ENDBRANCH  13  14
ENDBRANCH   5  13
ENDBRANCH   8   5
BRANCH  10  12
ATOM     12  C   UNL     1      -8.239 -10.612  11.903  0.00  0.00    +0.138 C 
BRANCH  12   6
ATOM      4  O   UNL     1     -10.332  -9.358  13.414  0.00  0.00    -0.270 OA
ATOM      6  N   UNL     1      -8.290 -10.456  13.328  0.00  0.00    -0.308 N 
ATOM     15  C   UNL     1      -9.350  -9.831  13.979  0.00  0.00    +0.251 C 
ATOM     28  H   UNL     1      -7.503 -10.811  13.858  0.00  0.00    +0.149 HD
BRANCH  15  18
ATOM      1  S   UNL     1     -10.577  -9.136  16.351  0.00  0.00    -0.092 S 
ATOM     18  C   UNL     1      -9.241  -9.726  15.457  0.00  0.00    +0.074 A 
ATOM     22  C   UNL     1      -8.175 -10.046  16.270  0.00  0.00    +0.021 A 
ATOM     23  C   UNL     1      -8.460  -9.803  17.644  0.00  0.00    +0.008 A 
ATOM     24  C   UNL     1      -9.732  -9.307  17.831  0.00  0.00    +0.046 A 
ENDBRANCH  15  18
ENDBRANCH  12   6
ENDBRANCH  10  12
TORSDOF 8
ENDMDL
MODEL 7
REMARK VINA RESULT:      -3.5      2.932      4.164
REMARK  Name = 75536609
REMARK  8 active torsions:
REMARK  status: ('A' for Active; 'I' for Inactive)
REMARK    1  A    between atoms: O_3  and  C_9
REMARK    2  A    between atoms: N_5  and  C_8
REMARK    3  A    between atoms: N_5  and  C_13
REMARK    4  A    between atoms: N_6  and  C_12
REMARK    5  A    between atoms: C_10  and  C_12
REMARK    6  A    between atoms: C_13  and  C_14
REMARK    7  A    between atoms: C_15  and  C_18
REMARK    8  A    between atoms: C_19  and  C_25
REMARK                            x       y       z     vdW  Elec       q    Type
REMARK                         _______ _______ _______ _____ _____    ______ ____
ROOT
ATOM      2  O   UNL     1      -0.916  -0.994  26.247  0.00  0.00    -0.371 OA
ATOM      8  C   UNL     1      -2.498  -2.548  25.400  0.00  0.00    +0.111 C 
ATOM      9  C   UNL     1      -1.638  -2.045  24.256  0.00  0.00    +0.164 C 
ATOM     10  C   UNL     1      -0.420  -1.530  25.009  0.00  0.00    +0.165 C 
ATOM     11  C   UNL     1      -2.253  -1.481  26.453  0.00  0.00    +0.181 C 
ENDROOT
BRANCH   9   3
ATOM      3  O   UNL     1      -1.299  -3.065  23.337  0.00  0.00    -0.388 OA
ATOM     27  H   UNL     1      -2.122  -3.436  22.976  0.00  0.00    +0.210 HD
ENDBRANCH   9   3
BRANCH   8   5
ATOM      5  N   UNL     1      -3.903  -2.691  25.055  0.00  0.00    -0.305 NA
ATOM     26  H   UNL     1      -4.471  -2.247  25.778  0.00  0.00    +0.123 HD
BRANCH   5  13
ATOM     13  C   UNL     1      -4.197  -2.061  23.772  0.00  0.00    +0.116 C 
BRANCH  13  14
ATOM     14  C   UNL     1      -4.135  -0.559  23.859  0.00  0.00    -0.032 A 
ATOM     16  C   UNL     1      -4.893   0.118  24.814  0.00  0.00    +0.023 A 
ATOM     17  C   UNL     1      -3.318   0.155  22.982  0.00  0.00    +0.005 A 
ATOM     19  C   UNL     1      -4.834   1.510  24.893  0.00  0.00    +0.052 A 
ATOM     20  C   UNL     1      -3.259   1.547  23.061  0.00  0.00    +0.002 A 
ATOM     21  C   UNL     1      -4.017   2.224  24.016  0.00  0.00    +0.019 A 
BRANCH  19  25
ATOM      7  N   UNL     1      -6.240   2.768  26.666  0.00  0.00    -0.191 NA
ATOM     25  C   UNL     1      -5.609   2.204  25.871  0.00  0.00    +0.099 C 
ENDBRANCH  19  25
ENDBRANCH  13  14
ENDBRANCH   5  13
ENDBRANCH   8   5
BRANCH  10  12
ATOM     12  C   UNL     1       0.345  -0.457  24.254  0.00  0.00    +0.138 C 
BRANCH  12   6
ATOM      4  O   UNL     1       1.646   2.076  23.896  0.00  0.00    -0.270 OA
ATOM      6  N   UNL     1      -0.234   0.839  24.459  0.00  0.00    -0.308 N 
ATOM     15  C   UNL     1       0.476   2.020  24.261  0.00  0.00    +0.251 C 
ATOM     28  H   UNL     1      -1.196   0.869  24.776  0.00  0.00    +0.149 HD
BRANCH  15  18
ATOM      1  S   UNL     1      -1.403   3.313  25.815  0.00  0.00    -0.092 S 
ATOM     18  C   UNL     1      -0.258   3.281  24.542  0.00  0.00    +0.074 A 
ATOM     22  C   UNL     1      -0.158   4.499  23.906  0.00  0.00    +0.021 A 
ATOM     23  C   UNL     1      -1.034   5.471  24.471  0.00  0.00    +0.008 A 
ATOM     24  C   UNL     1      -1.769   4.959  25.518  0.00  0.00    +0.046 A 
ENDBRANCH  15  18
ENDBRANCH  12   6
ENDBRANCH  10  12
TORSDOF 8
ENDMDL
MODEL 8
REMARK VINA RESULT:      -3.2      2.888      5.405
REMARK  Name = 75536609
REMARK  8 active torsions:
REMARK  status: ('A' for Active; 'I' for Inactive)
REMARK    1  A    between atoms: O_3  and  C_9
REMARK    2  A    between atoms: N_5  and  C_8
REMARK    3  A    between atoms: N_5  and  C_13
REMARK    4  A    between atoms: N_6  and  C_12
REMARK    5  A    between atoms: C_10  and  C_12
REMARK    6  A    between atoms: C_13  and  C_14
REMARK    7  A    between atoms: C_15  and  C_18
REMARK    8  A    between atoms: C_19  and  C_25
REMARK                            x       y       z     vdW  Elec       q    Type
REMARK                         _______ _______ _______ _____ _____    ______ ____
ROOT
ATOM      2  O   UNL     1       0.399   3.921  23.475  0.00  0.00    -0.371 OA
ATOM      8  C   UNL     1      -0.933   4.558  25.335  0.00  0.00    +0.111 C 
ATOM      9  C   UNL     1      -0.703   3.059  25.383  0.00  0.00    +0.164 C 
ATOM     10  C   UNL     1       0.532   2.924  24.503  0.00  0.00    +0.165 C 
ATOM     11  C   UNL     1      -0.603   4.868  23.885  0.00  0.00    +0.181 C 
ENDROOT
BRANCH   9   3
ATOM      3  O   UNL     1      -0.471   2.583  26.694  0.00  0.00    -0.388 OA
ATOM     27  H   UNL     1      -1.261   2.096  26.985  0.00  0.00    +0.210 HD
ENDBRANCH   9   3
BRANCH   8   5
ATOM      5  N   UNL     1      -2.282   4.953  25.706  0.00  0.00    -0.305 NA
ATOM     26  H   UNL     1      -2.278   5.936  25.981  0.00  0.00    +0.123 HD
BRANCH   5  13
ATOM     13  C   UNL     1      -3.206   4.780  24.591  0.00  0.00    +0.116 C 
BRANCH  13  14
ATOM     14  C   UNL     1      -3.887   3.437  24.631  0.00  0.00    -0.032 A 
ATOM     16  C   UNL     1      -4.842   3.167  25.610  0.00  0.00    +0.023 A 
ATOM     17  C   UNL     1      -3.561   2.463  23.686  0.00  0.00    +0.005 A 
ATOM     19  C   UNL     1      -5.473   1.923  25.646  0.00  0.00    +0.052 A 
ATOM     20  C   UNL     1      -4.192   1.220  23.722  0.00  0.00    +0.002 A 
ATOM     21  C   UNL     1      -5.147   0.950  24.701  0.00  0.00    +0.019 A 
BRANCH  19  25
ATOM      7  N   UNL     1      -7.248   1.420  27.462  0.00  0.00    -0.191 NA
ATOM     25  C   UNL     1      -6.452   1.645  26.648  0.00  0.00    +0.099 C 
ENDBRANCH  19  25
ENDBRANCH  13  14
ENDBRANCH   5  13
ENDBRANCH   8   5
BRANCH  10  12
ATOM     12  C   UNL     1       0.673   1.550  23.872  0.00  0.00    +0.138 C 
BRANCH  12   6
ATOM      4  O   UNL     1       0.718  -1.312  24.087  0.00  0.00    -0.270 OA
ATOM      6  N   UNL     1      -0.430   0.700  24.219  0.00  0.00    -0.308 N 
ATOM     15  C   UNL     1      -0.316  -0.685  24.299  0.00  0.00    +0.251 C 
ATOM     28  H   UNL     1      -1.321   1.150  24.394  0.00  0.00    +0.149 HD
BRANCH  15  18
ATOM      1  S   UNL     1      -2.450  -0.955  26.028  0.00  0.00    -0.092 S 
ATOM     18  C   UNL     1      -1.557  -1.426  24.645  0.00  0.00    +0.074 A 
ATOM     22  C   UNL     1      -2.136  -2.492  23.993  0.00  0.00    +0.021 A 
ATOM     23  C   UNL     1      -3.329  -2.928  24.638  0.00  0.00    +0.008 A 
ATOM     24  C   UNL     1      -3.617  -2.179  25.758  0.00  0.00    +0.046 A 
ENDBRANCH  15  18
ENDBRANCH  12   6
ENDBRANCH  10  12
TORSDOF 8
ENDMDL
MODEL 9
REMARK VINA RESULT:      -2.8      3.271      5.359
REMARK  Name = 75536609
REMARK  8 active torsions:
REMARK  status: ('A' for Active; 'I' for Inactive)
REMARK    1  A    between atoms: O_3  and  C_9
REMARK    2  A    between atoms: N_5  and  C_8
REMARK    3  A    between atoms: N_5  and  C_13
REMARK    4  A    between atoms: N_6  and  C_12
REMARK    5  A    between atoms: C_10  and  C_12
REMARK    6  A    between atoms: C_13  and  C_14
REMARK    7  A    between atoms: C_15  and  C_18
REMARK    8  A    between atoms: C_19  and  C_25
REMARK                            x       y       z     vdW  Elec       q    Type
REMARK                         _______ _______ _______ _____ _____    ______ ____
ROOT
ATOM      2  O   UNL     1      -3.364   5.065  24.286  0.00  0.00    -0.371 OA
ATOM      8  C   UNL     1      -4.643   4.099  26.038  0.00  0.00    +0.111 C 
ATOM      9  C   UNL     1      -3.173   3.817  26.285  0.00  0.00    +0.164 C 
ATOM     10  C   UNL     1      -2.519   4.898  25.437  0.00  0.00    +0.165 C 
ATOM     11  C   UNL     1      -4.637   4.456  24.561  0.00  0.00    +0.181 C 
ENDROOT
BRANCH   9   3
ATOM      3  O   UNL     1      -2.817   3.928  27.649  0.00  0.00    -0.388 OA
ATOM     27  H   UNL     1      -3.166   3.151  28.119  0.00  0.00    +0.210 HD
ENDBRANCH   9   3
BRANCH   8   5
ATOM      5  N   UNL     1      -5.513   2.977  26.346  0.00  0.00    -0.305 NA
ATOM     26  H   UNL     1      -6.301   3.308  26.903  0.00  0.00    +0.123 HD
BRANCH   5  13
ATOM     13  C   UNL     1      -6.024   2.357  25.128  0.00  0.00    +0.116 C 
BRANCH  13  14
ATOM     14  C   UNL     1      -4.994   1.475  24.474  0.00  0.00    -0.032 A 
ATOM     16  C   UNL     1      -4.869   0.141  24.861  0.00  0.00    +0.023 A 
ATOM     17  C   UNL     1      -4.166   1.993  23.477  0.00  0.00    +0.005 A 
ATOM     19  C   UNL     1      -3.915  -0.676  24.254  0.00  0.00    +0.052 A 
ATOM     20  C   UNL     1      -3.213   1.176  22.870  0.00  0.00    +0.002 A 
ATOM     21  C   UNL     1      -3.087  -0.158  23.257  0.00  0.00    +0.019 A 
BRANCH  19  25
ATOM      7  N   UNL     1      -3.681  -3.152  24.973  0.00  0.00    -0.191 NA
ATOM     25  C   UNL     1      -3.786  -2.042  24.650  0.00  0.00    +0.099 C 
ENDBRANCH  19  25
ENDBRANCH  13  14
ENDBRANCH   5  13
ENDBRANCH   8   5
BRANCH  10  12
ATOM     12  C   UNL     1      -1.110   4.546  24.995  0.00  0.00    +0.138 C 
BRANCH  12   6
ATOM      4  O   UNL     1       0.234   2.611  26.635  0.00  0.00    -0.270 OA
ATOM      6  N   UNL     1      -0.982   3.142  24.731  0.00  0.00    -0.308 N 
ATOM     15  C   UNL     1      -0.308   2.274  25.586  0.00  0.00    +0.251 C 
ATOM     28  H   UNL     1      -1.394   2.795  23.872  0.00  0.00    +0.149 HD
BRANCH  15  18
ATOM      1  S   UNL     1       0.481   0.470  23.653  0.00  0.00    -0.092 S 
ATOM     18  C   UNL     1      -0.240   0.853  25.158  0.00  0.00    +0.074 A 
ATOM     22  C   UNL     1      -0.690  -0.271  25.817  0.00  0.00    +0.021 A 
ATOM     23  C   UNL     1      -0.440  -1.461  25.075  0.00  0.00    +0.008 A 
ATOM     24  C   UNL     1       0.192  -1.203  23.878  0.00  0.00    +0.046 A 
ENDBRANCH  15  18
ENDBRANCH  12   6
ENDBRANCH  10  12
TORSDOF 8
ENDMDL
MODEL 10
REMARK VINA RESULT:      -1.9      3.746      7.191
REMARK  Name = 75536609
REMARK  8 active torsions:
REMARK  status: ('A' for Active; 'I' for Inactive)
REMARK    1  A    between atoms: O_3  and  C_9
REMARK    2  A    between atoms: N_5  and  C_8
REMARK    3  A    between atoms: N_5  and  C_13
REMARK    4  A    between atoms: N_6  and  C_12
REMARK    5  A    between atoms: C_10  and  C_12
REMARK    6  A    between atoms: C_13  and  C_14
REMARK    7  A    between atoms: C_15  and  C_18
REMARK    8  A    between atoms: C_19  and  C_25
REMARK                            x       y       z     vdW  Elec       q    Type
REMARK                         _______ _______ _______ _____ _____    ______ ____
ROOT
ATOM      2  O   UNL     1      -0.369   3.601  26.466  0.00  0.00    -0.371 OA
ATOM      8  C   UNL     1       0.700   2.304  24.789  0.00  0.00    +0.111 C 
ATOM      9  C   UNL     1      -0.258   3.276  24.127  0.00  0.00    +0.164 C 
ATOM     10  C   UNL     1      -0.422   4.320  25.222  0.00  0.00    +0.165 C 
ATOM     11  C   UNL     1       0.181   2.296  26.217  0.00  0.00    +0.181 C 
ENDROOT
BRANCH   9   3
ATOM      3  O   UNL     1       0.266   3.836  22.938  0.00  0.00    -0.388 OA
ATOM     27  H   UNL     1      -0.358   3.655  22.215  0.00  0.00    +0.210 HD
ENDBRANCH   9   3
BRANCH   8   5
ATOM      5  N   UNL     1       0.705   0.983  24.181  0.00  0.00    -0.305 NA
ATOM     26  H   UNL     1       0.845   0.282  24.908  0.00  0.00    +0.123 HD
BRANCH   5  13
ATOM     13  C   UNL     1      -0.557   0.713  23.501  0.00  0.00    +0.116 C 
BRANCH  13  14
ATOM     14  C   UNL     1      -1.460  -0.167  24.325  0.00  0.00    -0.032 A 
ATOM     16  C   UNL     1      -2.459  -0.917  23.707  0.00  0.00    +0.023 A 
ATOM     17  C   UNL     1      -1.294  -0.232  25.709  0.00  0.00    +0.005 A 
ATOM     19  C   UNL     1      -3.294  -1.732  24.471  0.00  0.00    +0.052 A 
ATOM     20  C   UNL     1      -2.129  -1.047  26.473  0.00  0.00    +0.002 A 
ATOM     21  C   UNL     1      -3.128  -1.797  25.855  0.00  0.00    +0.019 A 
BRANCH  19  25
ATOM      7  N   UNL     1      -5.152  -3.126  23.325  0.00  0.00    -0.191 NA
ATOM     25  C   UNL     1      -4.318  -2.501  23.838  0.00  0.00    +0.099 C 
ENDBRANCH  19  25
ENDBRANCH  13  14
ENDBRANCH   5  13
ENDBRANCH   8   5
BRANCH  10  12
ATOM     12  C   UNL     1      -1.727   5.090  25.128  0.00  0.00    +0.138 C 
BRANCH  12   6
ATOM      4  O   UNL     1      -3.162   3.399  23.306  0.00  0.00    -0.270 OA
ATOM      6  N   UNL     1      -2.850   4.255  25.440  0.00  0.00    -0.308 N 
ATOM     15  C   UNL     1      -3.488   3.464  24.488  0.00  0.00    +0.251 C 
ATOM     28  H   UNL     1      -3.184   4.270  26.397  0.00  0.00    +0.149 HD
BRANCH  15  18
ATOM      1  S   UNL     1      -5.817   3.433  25.967  0.00  0.00    -0.092 S 
ATOM     18  C   UNL     1      -4.654   2.676  24.964  0.00  0.00    +0.074 A 
ATOM     22  C   UNL     1      -4.967   1.358  24.713  0.00  0.00    +0.021 A 
ATOM     23  C   UNL     1      -6.177   0.965  25.353  0.00  0.00    +0.008 A 
ATOM     24  C   UNL     1      -6.744   1.996  26.069  0.00  0.00    +0.046 A 
ENDBRANCH  15  18
ENDBRANCH  12   6
ENDBRANCH  10  12
TORSDOF 8
ENDMDL
