MODEL 1
REMARK VINA RESULT:      -1.7      0.000      0.000
REMARK  Name = 7662935
REMARK  7 active torsions:
REMARK  status: ('A' for Active; 'I' for Inactive)
REMARK    1  A    between atoms: O_3  and  C_22
REMARK    2  A    between atoms: O_3  and  C_28
REMARK    3  A    between atoms: O_4  and  C_30
REMARK    4  A    between atoms: C_16  and  C_21
REMARK    5  A    between atoms: C_18  and  C_22
REMARK    6  A    between atoms: C_25  and  C_29
REMARK    7  A    between atoms: C_28  and  C_30
REMARK                            x       y       z     vdW  Elec       q    Type
REMARK                         _______ _______ _______ _____ _____    ______ ____
ROOT
ATOM      1  O   UNL     1      -2.334   4.256  27.122  0.00  0.00    -0.268 OA
ATOM      2  O   UNL     1      -5.393   0.175  25.805  0.00  0.00    -0.273 OA
ATOM      6  N   UNL     1      -4.120   0.823  23.974  0.00  0.00    -0.299 N 
ATOM      7  N   UNL     1      -2.244   3.154  25.058  0.00  0.00    -0.311 N 
ATOM      9  C   UNL     1      -4.198   3.246  23.402  0.00  0.00    +0.027 C 
ATOM     10  C   UNL     1      -2.191   1.936  22.859  0.00  0.00    +0.054 C 
ATOM     11  C   UNL     1      -3.126   3.030  22.346  0.00  0.00    +0.018 C 
ATOM     12  C   UNL     1      -4.991   1.951  23.648  0.00  0.00    +0.113 C 
ATOM     13  C   UNL     1      -3.529   3.757  24.678  0.00  0.00    +0.130 C 
ATOM     14  C   UNL     1      -2.989   0.629  23.055  0.00  0.00    +0.117 C 
ATOM     15  C   UNL     1      -1.511   2.342  24.168  0.00  0.00    +0.034 A 
ATOM     16  C   UNL     1      -0.261   1.930  24.504  0.00  0.00    +0.002 A 
ATOM     17  C   UNL     1      -1.744   3.539  26.314  0.00  0.00    +0.252 A 
ATOM     18  C   UNL     1      -4.437  -0.008  25.047  0.00  0.00    +0.241 C 
ATOM     19  C   UNL     1       0.287   2.304  25.794  0.00  0.00    +0.015 A 
ATOM     20  C   UNL     1      -0.394   3.046  26.668  0.00  0.00    +0.071 A 
ENDROOT
BRANCH  16  21
ATOM     21  C   UNL     1       0.554   1.093  23.596  0.00  0.00    -0.015 A 
ATOM     23  C   UNL     1       1.943   1.134  23.679  0.00  0.00    +0.027 A 
ATOM     24  C   UNL     1      -0.073   0.271  22.666  0.00  0.00    +0.008 A 
ATOM     25  C   UNL     1       2.711   0.344  22.823  0.00  0.00    +0.052 A 
ATOM     26  C   UNL     1       0.695  -0.519  21.810  0.00  0.00    +0.002 A 
ATOM     27  C   UNL     1       2.088  -0.482  21.889  0.00  0.00    +0.019 A 
BRANCH  25  29
ATOM      8  N   UNL     1       5.297   0.412  22.968  0.00  0.00    -0.191 NA
ATOM     29  C   UNL     1       4.138   0.382  22.903  0.00  0.00    +0.099 C 
ENDBRANCH  25  29
ENDBRANCH  16  21
BRANCH  18  22
ATOM     22  C   UNL     1      -3.532  -1.192  25.275  0.00  0.00    +0.256 C 
BRANCH  22   3
ATOM      3  O   UNL     1      -2.784  -0.910  26.434  0.00  0.00    -0.359 OA
BRANCH   3  28
ATOM     28  C   UNL     1      -1.411  -0.663  26.138  0.00  0.00    +0.280 C 
BRANCH  28  30
ATOM      5  O   UNL     1      -1.434  -2.432  24.471  0.00  0.00    -0.248 OA
ATOM     30  C   UNL     1      -0.848  -1.810  25.345  0.00  0.00    +0.331 C 
BRANCH  30   4
ATOM      4  O   UNL     1       0.425  -2.069  25.737  0.00  0.00    -0.479 OA
ATOM     31  H   UNL     1       0.939  -1.245  25.879  0.00  0.00    +0.295 HD
ENDBRANCH  30   4
ENDBRANCH  28  30
ENDBRANCH   3  28
ENDBRANCH  22   3
ENDBRANCH  18  22
TORSDOF 7
ENDMDL
MODEL 2
REMARK VINA RESULT:      -0.1      2.567      4.658
REMARK  Name = 7662935
REMARK  7 active torsions:
REMARK  status: ('A' for Active; 'I' for Inactive)
REMARK    1  A    between atoms: O_3  and  C_22
REMARK    2  A    between atoms: O_3  and  C_28
REMARK    3  A    between atoms: O_4  and  C_30
REMARK    4  A    between atoms: C_16  and  C_21
REMARK    5  A    between atoms: C_18  and  C_22
REMARK    6  A    between atoms: C_25  and  C_29
REMARK    7  A    between atoms: C_28  and  C_30
REMARK                            x       y       z     vdW  Elec       q    Type
REMARK                         _______ _______ _______ _____ _____    ______ ____
ROOT
ATOM      1  O   UNL     1      -3.733   4.210  21.169  0.00  0.00    -0.268 OA
ATOM      2  O   UNL     1      -0.674   5.123  25.358  0.00  0.00    -0.273 OA
ATOM      6  N   UNL     1      -2.253   3.503  25.880  0.00  0.00    -0.299 N 
ATOM      7  N   UNL     1      -3.842   2.997  23.169  0.00  0.00    -0.311 N 
ATOM      9  C   UNL     1      -4.618   4.085  25.357  0.00  0.00    +0.027 C 
ATOM     10  C   UNL     1      -3.916   1.729  25.339  0.00  0.00    +0.054 C 
ATOM     11  C   UNL     1      -5.047   2.677  25.737  0.00  0.00    +0.018 C 
ATOM     12  C   UNL     1      -3.323   4.477  26.088  0.00  0.00    +0.113 C 
ATOM     13  C   UNL     1      -4.458   4.152  23.838  0.00  0.00    +0.130 C 
ATOM     14  C   UNL     1      -2.637   2.104  26.117  0.00  0.00    +0.117 C 
ATOM     15  C   UNL     1      -3.651   1.768  23.832  0.00  0.00    +0.034 A 
ATOM     16  C   UNL     1      -3.219   0.684  23.136  0.00  0.00    +0.002 A 
ATOM     17  C   UNL     1      -3.571   3.165  21.800  0.00  0.00    +0.252 A 
ATOM     18  C   UNL     1      -0.972   3.941  25.552  0.00  0.00    +0.241 C 
ATOM     19  C   UNL     1      -2.925   0.821  21.722  0.00  0.00    +0.015 A 
ATOM     20  C   UNL     1      -3.068   1.977  21.074  0.00  0.00    +0.071 A 
ENDROOT
BRANCH  16  21
ATOM     21  C   UNL     1      -3.021  -0.631  23.784  0.00  0.00    -0.015 A 
ATOM     23  C   UNL     1      -1.763  -0.983  24.263  0.00  0.00    +0.027 A 
ATOM     24  C   UNL     1      -4.095  -1.506  23.911  0.00  0.00    +0.008 A 
ATOM     25  C   UNL     1      -1.578  -2.224  24.875  0.00  0.00    +0.052 A 
ATOM     26  C   UNL     1      -3.910  -2.746  24.523  0.00  0.00    +0.002 A 
ATOM     27  C   UNL     1      -2.651  -3.105  25.005  0.00  0.00    +0.019 A 
BRANCH  25  29
ATOM      8  N   UNL     1       0.761  -2.892  25.768  0.00  0.00    -0.191 NA
ATOM     29  C   UNL     1      -0.288  -2.592  25.368  0.00  0.00    +0.099 C 
ENDBRANCH  25  29
ENDBRANCH  16  21
BRANCH  18  22
ATOM     22  C   UNL     1       0.094   2.882  25.425  0.00  0.00    +0.256 C 
BRANCH  22   3
ATOM      3  O   UNL     1       0.084   2.460  24.083  0.00  0.00    -0.359 OA
BRANCH   3  28
ATOM     28  C   UNL     1       0.163   1.040  23.968  0.00  0.00    +0.280 C 
BRANCH  28  30
ATOM      5  O   UNL     1       1.360  -0.207  22.259  0.00  0.00    -0.248 OA
ATOM     30  C   UNL     1       1.344   0.665  23.116  0.00  0.00    +0.331 C 
BRANCH  30   4
ATOM      4  O   UNL     1       2.413   1.439  23.431  0.00  0.00    -0.479 OA
ATOM     31  H   UNL     1       2.411   2.285  22.932  0.00  0.00    +0.295 HD
ENDBRANCH  30   4
ENDBRANCH  28  30
ENDBRANCH   3  28
ENDBRANCH  22   3
ENDBRANCH  18  22
TORSDOF 7
ENDMDL
MODEL 3
REMARK VINA RESULT:       0.7      3.278      4.941
REMARK  Name = 7662935
REMARK  7 active torsions:
REMARK  status: ('A' for Active; 'I' for Inactive)
REMARK    1  A    between atoms: O_3  and  C_22
REMARK    2  A    between atoms: O_3  and  C_28
REMARK    3  A    between atoms: O_4  and  C_30
REMARK    4  A    between atoms: C_16  and  C_21
REMARK    5  A    between atoms: C_18  and  C_22
REMARK    6  A    between atoms: C_25  and  C_29
REMARK    7  A    between atoms: C_28  and  C_30
REMARK                            x       y       z     vdW  Elec       q    Type
REMARK                         _______ _______ _______ _____ _____    ______ ____
ROOT
ATOM      1  O   UNL     1      -3.766   4.226  21.201  0.00  0.00    -0.268 OA
ATOM      2  O   UNL     1      -0.739   5.127  25.416  0.00  0.00    -0.273 OA
ATOM      6  N   UNL     1      -2.299   3.479  25.910  0.00  0.00    -0.299 N 
ATOM      7  N   UNL     1      -3.868   2.987  23.185  0.00  0.00    -0.311 N 
ATOM      9  C   UNL     1      -4.668   4.036  25.383  0.00  0.00    +0.027 C 
ATOM     10  C   UNL     1      -3.936   1.691  25.339  0.00  0.00    +0.054 C 
ATOM     11  C   UNL     1      -5.081   2.618  25.743  0.00  0.00    +0.018 C 
ATOM     12  C   UNL     1      -3.383   4.437  26.126  0.00  0.00    +0.113 C 
ATOM     13  C   UNL     1      -4.503   4.125  23.865  0.00  0.00    +0.130 C 
ATOM     14  C   UNL     1      -2.665   2.072  26.127  0.00  0.00    +0.117 C 
ATOM     15  C   UNL     1      -3.663   1.752  23.834  0.00  0.00    +0.034 A 
ATOM     16  C   UNL     1      -3.214   0.683  23.127  0.00  0.00    +0.002 A 
ATOM     17  C   UNL     1      -3.593   3.176  21.820  0.00  0.00    +0.252 A 
ATOM     18  C   UNL     1      -1.022   3.939  25.594  0.00  0.00    +0.241 C 
ATOM     19  C   UNL     1      -2.915   0.842  21.716  0.00  0.00    +0.015 A 
ATOM     20  C   UNL     1      -3.070   2.004  21.082  0.00  0.00    +0.071 A 
ENDROOT
BRANCH  16  21
ATOM     21  C   UNL     1      -3.002  -0.637  23.759  0.00  0.00    -0.015 A 
ATOM     23  C   UNL     1      -1.744  -0.975  24.250  0.00  0.00    +0.027 A 
ATOM     24  C   UNL     1      -4.062  -1.533  23.860  0.00  0.00    +0.008 A 
ATOM     25  C   UNL     1      -1.545  -2.220  24.847  0.00  0.00    +0.052 A 
ATOM     26  C   UNL     1      -3.863  -2.778  24.457  0.00  0.00    +0.002 A 
ATOM     27  C   UNL     1      -2.604  -3.122  24.950  0.00  0.00    +0.019 A 
BRANCH  25  29
ATOM      8  N   UNL     1       0.793  -2.859  25.763  0.00  0.00    -0.191 NA
ATOM     29  C   UNL     1      -0.255  -2.573  25.352  0.00  0.00    +0.099 C 
ENDBRANCH  25  29
ENDBRANCH  16  21
BRANCH  18  22
ATOM     22  C   UNL     1       0.059   2.896  25.459  0.00  0.00    +0.256 C 
BRANCH  22   3
ATOM      3  O   UNL     1       0.913   3.056  26.566  0.00  0.00    -0.359 OA
BRANCH   3  28
ATOM     28  C   UNL     1       0.510   2.253  27.674  0.00  0.00    +0.280 C 
BRANCH  28  30
ATOM      5  O   UNL     1       1.083   2.571  30.015  0.00  0.00    -0.248 OA
ATOM     30  C   UNL     1       1.422   2.506  28.842  0.00  0.00    +0.331 C 
BRANCH  30   4
ATOM      4  O   UNL     1       2.701   2.655  28.413  0.00  0.00    -0.479 OA
ATOM     31  H   UNL     1       2.836   3.513  27.956  0.00  0.00    +0.295 HD
ENDBRANCH  30   4
ENDBRANCH  28  30
ENDBRANCH   3  28
ENDBRANCH  22   3
ENDBRANCH  18  22
TORSDOF 7
ENDMDL
