MODEL 1
REMARK VINA RESULT:      -4.5      0.000      0.000
REMARK  Name = 75536819
REMARK  7 active torsions:
REMARK  status: ('A' for Active; 'I' for Inactive)
REMARK    1  A    between atoms: O_3  and  C_9
REMARK    2  A    between atoms: N_5  and  C_8
REMARK    3  A    between atoms: N_5  and  C_13
REMARK    4  A    between atoms: N_6  and  C_12
REMARK    5  A    between atoms: C_10  and  C_12
REMARK    6  A    between atoms: C_13  and  C_14
REMARK    7  A    between atoms: C_15  and  C_18
REMARK                            x       y       z     vdW  Elec       q    Type
REMARK                         _______ _______ _______ _____ _____    ______ ____
ROOT
ATOM      2  O   UNL     1      -3.129   4.290  23.756  0.00  0.00    -0.371 OA
ATOM      8  C   UNL     1      -4.555   3.221  25.329  0.00  0.00    +0.111 C 
ATOM      9  C   UNL     1      -3.201   3.461  25.971  0.00  0.00    +0.164 C 
ATOM     10  C   UNL     1      -2.645   4.566  25.082  0.00  0.00    +0.165 C 
ATOM     11  C   UNL     1      -4.213   3.349  23.852  0.00  0.00    +0.181 C 
ENDROOT
BRANCH   9   3
ATOM      3  O   UNL     1      -3.303   3.872  27.320  0.00  0.00    -0.388 OA
ATOM     25  H   UNL     1      -2.677   3.348  27.848  0.00  0.00    +0.210 HD
ENDBRANCH   9   3
BRANCH   8   5
ATOM      5  N   UNL     1      -5.140   1.935  25.665  0.00  0.00    -0.305 NA
ATOM     24  H   UNL     1      -6.094   2.078  25.997  0.00  0.00    +0.123 HD
BRANCH   5  13
ATOM     13  C   UNL     1      -5.173   1.052  24.504  0.00  0.00    +0.116 C 
BRANCH  13  14
ATOM      7  N   UNL     1      -2.888  -2.533  25.152  0.00  0.00    -0.263 NA
ATOM     14  C   UNL     1      -4.373  -0.203  24.730  0.00  0.00    -0.031 A 
ATOM     16  C   UNL     1      -4.470  -1.263  23.837  0.00  0.00    +0.024 A 
ATOM     17  C   UNL     1      -3.535  -0.306  25.835  0.00  0.00    +0.024 A 
ATOM     19  C   UNL     1      -3.713  -2.396  24.090  0.00  0.00    +0.111 A 
ATOM     20  C   UNL     1      -2.820  -1.482  25.999  0.00  0.00    +0.111 A 
ENDBRANCH  13  14
ENDBRANCH   5  13
ENDBRANCH   8   5
BRANCH  10  12
ATOM     12  C   UNL     1      -1.129   4.623  25.073  0.00  0.00    +0.138 C 
BRANCH  12   6
ATOM      4  O   UNL     1       0.449   2.495  26.180  0.00  0.00    -0.270 OA
ATOM      6  N   UNL     1      -0.569   3.511  24.360  0.00  0.00    -0.308 N 
ATOM     15  C   UNL     1       0.186   2.521  24.981  0.00  0.00    +0.251 C 
ATOM     26  H   UNL     1      -0.735   3.475  23.361  0.00  0.00    +0.149 HD
BRANCH  15  18
ATOM      1  S   UNL     1      -0.260   0.082  23.770  0.00  0.00    -0.092 S 
ATOM     18  C   UNL     1       0.716   1.449  24.098  0.00  0.00    +0.074 A 
ATOM     21  C   UNL     1       1.938   1.378  23.465  0.00  0.00    +0.021 A 
ATOM     22  C   UNL     1       2.074   0.183  22.700  0.00  0.00    +0.008 A 
ATOM     23  C   UNL     1       0.952  -0.612  22.777  0.00  0.00    +0.046 A 
ENDBRANCH  15  18
ENDBRANCH  12   6
ENDBRANCH  10  12
TORSDOF 7
ENDMDL
MODEL 2
REMARK VINA RESULT:      -4.4      1.847      4.624
REMARK  Name = 75536819
REMARK  7 active torsions:
REMARK  status: ('A' for Active; 'I' for Inactive)
REMARK    1  A    between atoms: O_3  and  C_9
REMARK    2  A    between atoms: N_5  and  C_8
REMARK    3  A    between atoms: N_5  and  C_13
REMARK    4  A    between atoms: N_6  and  C_12
REMARK    5  A    between atoms: C_10  and  C_12
REMARK    6  A    between atoms: C_13  and  C_14
REMARK    7  A    between atoms: C_15  and  C_18
REMARK                            x       y       z     vdW  Elec       q    Type
REMARK                         _______ _______ _______ _____ _____    ______ ____
ROOT
ATOM      2  O   UNL     1      -4.240   3.668  26.765  0.00  0.00    -0.371 OA
ATOM      8  C   UNL     1      -2.440   4.330  25.363  0.00  0.00    +0.111 C 
ATOM      9  C   UNL     1      -3.496   3.640  24.520  0.00  0.00    +0.164 C 
ATOM     10  C   UNL     1      -4.721   3.775  25.414  0.00  0.00    +0.165 C 
ATOM     11  C   UNL     1      -2.815   3.858  26.759  0.00  0.00    +0.181 C 
ENDROOT
BRANCH   9   3
ATOM      3  O   UNL     1      -3.687   4.265  23.266  0.00  0.00    -0.388 OA
ATOM     25  H   UNL     1      -3.772   3.573  22.588  0.00  0.00    +0.210 HD
ENDBRANCH   9   3
BRANCH   8   5
ATOM      5  N   UNL     1      -1.079   3.982  24.993  0.00  0.00    -0.305 NA
ATOM     24  H   UNL     1      -0.481   4.800  25.109  0.00  0.00    +0.123 HD
BRANCH   5  13
ATOM     13  C   UNL     1      -0.566   2.903  25.830  0.00  0.00    +0.116 C 
BRANCH  13  14
ATOM      7  N   UNL     1       0.464  -0.572  23.515  0.00  0.00    -0.263 NA
ATOM     14  C   UNL     1      -0.205   1.687  25.020  0.00  0.00    -0.031 A 
ATOM     16  C   UNL     1       0.633   1.807  23.918  0.00  0.00    +0.024 A 
ATOM     17  C   UNL     1      -0.710   0.439  25.371  0.00  0.00    +0.024 A 
ATOM     19  C   UNL     1       0.934   0.657  23.204  0.00  0.00    +0.111 A 
ATOM     20  C   UNL     1      -0.348  -0.649  24.593  0.00  0.00    +0.111 A 
ENDBRANCH  13  14
ENDBRANCH   5  13
ENDBRANCH   8   5
BRANCH  10  12
ATOM     12  C   UNL     1      -5.772   2.710  25.157  0.00  0.00    +0.138 C 
BRANCH  12   6
ATOM      4  O   UNL     1      -4.057   1.210  23.410  0.00  0.00    -0.270 OA
ATOM      6  N   UNL     1      -5.249   1.395  25.392  0.00  0.00    -0.308 N 
ATOM     15  C   UNL     1      -4.421   0.741  24.486  0.00  0.00    +0.251 C 
ATOM     26  H   UNL     1      -5.520   0.940  26.257  0.00  0.00    +0.149 HD
BRANCH  15  18
ATOM      1  S   UNL     1      -4.074  -1.883  23.704  0.00  0.00    -0.092 S 
ATOM     18  C   UNL     1      -3.984  -0.629  24.865  0.00  0.00    +0.074 A 
ATOM     21  C   UNL     1      -3.490  -1.074  26.071  0.00  0.00    +0.021 A 
ATOM     22  C   UNL     1      -3.181  -2.465  26.041  0.00  0.00    +0.008 A 
ATOM     23  C   UNL     1      -3.451  -3.029  24.814  0.00  0.00    +0.046 A 
ENDBRANCH  15  18
ENDBRANCH  12   6
ENDBRANCH  10  12
TORSDOF 7
ENDMDL
MODEL 3
REMARK VINA RESULT:      -4.3      2.982      6.923
REMARK  Name = 75536819
REMARK  7 active torsions:
REMARK  status: ('A' for Active; 'I' for Inactive)
REMARK    1  A    between atoms: O_3  and  C_9
REMARK    2  A    between atoms: N_5  and  C_8
REMARK    3  A    between atoms: N_5  and  C_13
REMARK    4  A    between atoms: N_6  and  C_12
REMARK    5  A    between atoms: C_10  and  C_12
REMARK    6  A    between atoms: C_13  and  C_14
REMARK    7  A    between atoms: C_15  and  C_18
REMARK                            x       y       z     vdW  Elec       q    Type
REMARK                         _______ _______ _______ _____ _____    ______ ____
ROOT
ATOM      2  O   UNL     1      -1.712  -2.645  23.911  0.00  0.00    -0.371 OA
ATOM      8  C   UNL     1      -0.042  -1.031  24.408  0.00  0.00    +0.111 C 
ATOM      9  C   UNL     1      -1.249  -0.784  25.294  0.00  0.00    +0.164 C 
ATOM     10  C   UNL     1      -1.938  -2.141  25.238  0.00  0.00    +0.165 C 
ATOM     11  C   UNL     1      -0.648  -1.889  23.309  0.00  0.00    +0.181 C 
ENDROOT
BRANCH   9   3
ATOM      3  O   UNL     1      -0.891  -0.428  26.616  0.00  0.00    -0.388 OA
ATOM     25  H   UNL     1      -1.679  -0.512  27.179  0.00  0.00    +0.210 HD
ENDBRANCH   9   3
BRANCH   8   5
ATOM      5  N   UNL     1       0.570   0.187  23.903  0.00  0.00    -0.305 NA
ATOM     24  H   UNL     1       1.166   0.586  24.629  0.00  0.00    +0.123 HD
BRANCH   5  13
ATOM     13  C   UNL     1       1.382  -0.082  22.722  0.00  0.00    +0.116 C 
BRANCH  13  14
ATOM      7  N   UNL     1       5.575  -0.254  23.663  0.00  0.00    -0.263 NA
ATOM     14  C   UNL     1       2.849  -0.143  23.051  0.00  0.00    -0.031 A 
ATOM     16  C   UNL     1       3.399  -1.305  23.580  0.00  0.00    +0.024 A 
ATOM     17  C   UNL     1       3.660   0.965  22.828  0.00  0.00    +0.024 A 
ATOM     19  C   UNL     1       4.755  -1.309  23.866  0.00  0.00    +0.111 A 
ATOM     20  C   UNL     1       5.004   0.859  23.147  0.00  0.00    +0.111 A 
ENDBRANCH  13  14
ENDBRANCH   5  13
ENDBRANCH   8   5
BRANCH  10  12
ATOM     12  C   UNL     1      -3.428  -2.069  25.515  0.00  0.00    +0.138 C 
BRANCH  12   6
ATOM      4  O   UNL     1      -4.016  -0.189  23.425  0.00  0.00    -0.270 OA
ATOM      6  N   UNL     1      -3.862  -0.711  25.681  0.00  0.00    -0.308 N 
ATOM     15  C   UNL     1      -4.125   0.132  24.606  0.00  0.00    +0.251 C 
ATOM     26  H   UNL     1      -3.961  -0.373  26.631  0.00  0.00    +0.149 HD
BRANCH  15  18
ATOM      1  S   UNL     1      -3.439   2.804  24.697  0.00  0.00    -0.092 S 
ATOM     18  C   UNL     1      -4.542   1.518  24.946  0.00  0.00    +0.074 A 
ATOM     21  C   UNL     1      -5.743   1.958  25.457  0.00  0.00    +0.021 A 
ATOM     22  C   UNL     1      -5.757   3.370  25.648  0.00  0.00    +0.008 A 
ATOM     23  C   UNL     1      -4.568   3.955  25.275  0.00  0.00    +0.046 A 
ENDBRANCH  15  18
ENDBRANCH  12   6
ENDBRANCH  10  12
TORSDOF 7
ENDMDL
MODEL 4
REMARK VINA RESULT:      -4.2     14.372     16.843
REMARK  Name = 75536819
REMARK  7 active torsions:
REMARK  status: ('A' for Active; 'I' for Inactive)
REMARK    1  A    between atoms: O_3  and  C_9
REMARK    2  A    between atoms: N_5  and  C_8
REMARK    3  A    between atoms: N_5  and  C_13
REMARK    4  A    between atoms: N_6  and  C_12
REMARK    5  A    between atoms: C_10  and  C_12
REMARK    6  A    between atoms: C_13  and  C_14
REMARK    7  A    between atoms: C_15  and  C_18
REMARK                            x       y       z     vdW  Elec       q    Type
REMARK                         _______ _______ _______ _____ _____    ______ ____
ROOT
ATOM      2  O   UNL     1      -2.433 -10.510  16.746  0.00  0.00    -0.371 OA
ATOM      8  C   UNL     1      -3.095 -10.144  14.493  0.00  0.00    +0.111 C 
ATOM      9  C   UNL     1      -4.330 -10.391  15.338  0.00  0.00    +0.164 C 
ATOM     10  C   UNL     1      -3.803 -10.073  16.731  0.00  0.00    +0.165 C 
ATOM     11  C   UNL     1      -2.002 -10.707  15.388  0.00  0.00    +0.181 C 
ENDROOT
BRANCH   9   3
ATOM      3  O   UNL     1      -5.412  -9.553  14.980  0.00  0.00    -0.388 OA
ATOM     25  H   UNL     1      -6.178  -9.790  15.531  0.00  0.00    +0.210 HD
ENDBRANCH   9   3
BRANCH   8   5
ATOM      5  N   UNL     1      -3.143 -10.781  13.188  0.00  0.00    -0.305 NA
ATOM     24  H   UNL     1      -4.099 -11.083  12.999  0.00  0.00    +0.123 HD
BRANCH   5  13
ATOM     13  C   UNL     1      -2.722  -9.862  12.137  0.00  0.00    +0.116 C 
BRANCH  13  14
ATOM      7  N   UNL     1      -5.580  -9.679   8.928  0.00  0.00    -0.263 NA
ATOM     14  C   UNL     1      -3.723  -9.797  11.015  0.00  0.00    -0.031 A 
ATOM     16  C   UNL     1      -4.917 -10.503  11.102  0.00  0.00    +0.024 A 
ATOM     17  C   UNL     1      -3.455  -9.032   9.885  0.00  0.00    +0.024 A 
ATOM     19  C   UNL     1      -5.804 -10.412  10.042  0.00  0.00    +0.111 A 
ATOM     20  C   UNL     1      -4.408  -9.006   8.878  0.00  0.00    +0.111 A 
ENDBRANCH  13  14
ENDBRANCH   5  13
ENDBRANCH   8   5
BRANCH  10  12
ATOM     12  C   UNL     1      -4.575 -10.768  17.838  0.00  0.00    +0.138 C 
BRANCH  12   6
ATOM      4  O   UNL     1      -6.491 -10.781  19.977  0.00  0.00    -0.270 OA
ATOM      6  N   UNL     1      -5.984 -10.513  17.729  0.00  0.00    -0.308 N 
ATOM     15  C   UNL     1      -6.840 -10.540  18.825  0.00  0.00    +0.251 C 
ATOM     26  H   UNL     1      -6.346 -10.320  16.802  0.00  0.00    +0.149 HD
BRANCH  15  18
ATOM      1  S   UNL     1      -8.698  -9.336  17.177  0.00  0.00    -0.092 S 
ATOM     18  C   UNL     1      -8.276 -10.280  18.542  0.00  0.00    +0.074 A 
ATOM     21  C   UNL     1      -9.385 -10.703  19.242  0.00  0.00    +0.021 A 
ATOM     22  C   UNL     1     -10.597 -10.245  18.650  0.00  0.00    +0.008 A 
ATOM     23  C   UNL     1     -10.369  -9.491  17.520  0.00  0.00    +0.046 A 
ENDBRANCH  15  18
ENDBRANCH  12   6
ENDBRANCH  10  12
TORSDOF 7
ENDMDL
MODEL 5
REMARK VINA RESULT:      -4.2      2.734      6.143
REMARK  Name = 75536819
REMARK  7 active torsions:
REMARK  status: ('A' for Active; 'I' for Inactive)
REMARK    1  A    between atoms: O_3  and  C_9
REMARK    2  A    between atoms: N_5  and  C_8
REMARK    3  A    between atoms: N_5  and  C_13
REMARK    4  A    between atoms: N_6  and  C_12
REMARK    5  A    between atoms: C_10  and  C_12
REMARK    6  A    between atoms: C_13  and  C_14
REMARK    7  A    between atoms: C_15  and  C_18
REMARK                            x       y       z     vdW  Elec       q    Type
REMARK                         _______ _______ _______ _____ _____    ______ ____
ROOT
ATOM      2  O   UNL     1      -2.440  -3.011  23.629  0.00  0.00    -0.371 OA
ATOM      8  C   UNL     1      -1.069  -1.997  25.283  0.00  0.00    +0.111 C 
ATOM      9  C   UNL     1      -2.450  -1.371  25.333  0.00  0.00    +0.164 C 
ATOM     10  C   UNL     1      -3.284  -2.443  24.644  0.00  0.00    +0.165 C 
ATOM     11  C   UNL     1      -1.079  -2.636  23.903  0.00  0.00    +0.181 C 
ENDROOT
BRANCH   9   3
ATOM      3  O   UNL     1      -2.890  -1.128  26.655  0.00  0.00    -0.388 OA
ATOM     25  H   UNL     1      -3.405  -0.303  26.659  0.00  0.00    +0.210 HD
ENDBRANCH   9   3
BRANCH   8   5
ATOM      5  N   UNL     1       0.012  -1.041  25.456  0.00  0.00    -0.305 NA
ATOM     24  H   UNL     1       0.892  -1.547  25.558  0.00  0.00    +0.123 HD
BRANCH   5  13
ATOM     13  C   UNL     1       0.114  -0.148  24.307  0.00  0.00    +0.116 C 
BRANCH  13  14
ATOM      7  N   UNL     1      -0.764   3.928  25.362  0.00  0.00    -0.263 NA
ATOM     14  C   UNL     1      -0.193   1.278  24.677  0.00  0.00    -0.031 A 
ATOM     16  C   UNL     1      -0.608   1.592  25.966  0.00  0.00    +0.024 A 
ATOM     17  C   UNL     1      -0.063   2.288  23.729  0.00  0.00    +0.024 A 
ATOM     19  C   UNL     1      -0.878   2.920  26.255  0.00  0.00    +0.111 A 
ATOM     20  C   UNL     1      -0.358   3.585  24.119  0.00  0.00    +0.111 A 
ENDBRANCH  13  14
ENDBRANCH   5  13
ENDBRANCH   8   5
BRANCH  10  12
ATOM     12  C   UNL     1      -4.554  -1.901  24.014  0.00  0.00    +0.138 C 
BRANCH  12   6
ATOM      4  O   UNL     1      -3.201   0.419  23.000  0.00  0.00    -0.270 OA
ATOM      6  N   UNL     1      -4.786  -0.538  24.397  0.00  0.00    -0.308 N 
ATOM     15  C   UNL     1      -4.080   0.529  23.850  0.00  0.00    +0.251 C 
ATOM     26  H   UNL     1      -5.490  -0.374  25.108  0.00  0.00    +0.149 HD
BRANCH  15  18
ATOM      1  S   UNL     1      -5.665   2.029  25.539  0.00  0.00    -0.092 S 
ATOM     18  C   UNL     1      -4.421   1.878  24.373  0.00  0.00    +0.074 A 
ATOM     21  C   UNL     1      -3.862   3.095  24.050  0.00  0.00    +0.021 A 
ATOM     22  C   UNL     1      -4.465   4.167  24.770  0.00  0.00    +0.008 A 
ATOM     23  C   UNL     1      -5.460   3.728  25.615  0.00  0.00    +0.046 A 
ENDBRANCH  15  18
ENDBRANCH  12   6
ENDBRANCH  10  12
TORSDOF 7
ENDMDL
MODEL 6
REMARK VINA RESULT:      -4.1      1.980      4.319
REMARK  Name = 75536819
REMARK  7 active torsions:
REMARK  status: ('A' for Active; 'I' for Inactive)
REMARK    1  A    between atoms: O_3  and  C_9
REMARK    2  A    between atoms: N_5  and  C_8
REMARK    3  A    between atoms: N_5  and  C_13
REMARK    4  A    between atoms: N_6  and  C_12
REMARK    5  A    between atoms: C_10  and  C_12
REMARK    6  A    between atoms: C_13  and  C_14
REMARK    7  A    between atoms: C_15  and  C_18
REMARK                            x       y       z     vdW  Elec       q    Type
REMARK                         _______ _______ _______ _____ _____    ______ ____
ROOT
ATOM      2  O   UNL     1       0.016   3.357  23.590  0.00  0.00    -0.371 OA
ATOM      8  C   UNL     1      -0.904   3.875  25.718  0.00  0.00    +0.111 C 
ATOM      9  C   UNL     1      -0.492   2.415  25.699  0.00  0.00    +0.164 C 
ATOM     10  C   UNL     1       0.508   2.407  24.550  0.00  0.00    +0.165 C 
ATOM     11  C   UNL     1      -0.966   4.189  24.232  0.00  0.00    +0.181 C 
ENDROOT
BRANCH   9   3
ATOM      3  O   UNL     1       0.100   1.999  26.915  0.00  0.00    -0.388 OA
ATOM     25  H   UNL     1       0.461   1.105  26.790  0.00  0.00    +0.210 HD
ENDBRANCH   9   3
BRANCH   8   5
ATOM      5  N   UNL     1      -2.164   4.116  26.401  0.00  0.00    -0.305 NA
ATOM     24  H   UNL     1      -2.029   4.844  27.103  0.00  0.00    +0.123 HD
BRANCH   5  13
ATOM     13  C   UNL     1      -3.195   4.550  25.465  0.00  0.00    +0.116 C 
BRANCH  13  14
ATOM      7  N   UNL     1      -6.265   1.580  24.970  0.00  0.00    -0.263 NA
ATOM     14  C   UNL     1      -4.269   3.510  25.292  0.00  0.00    -0.031 A 
ATOM     16  C   UNL     1      -4.302   2.725  24.146  0.00  0.00    +0.024 A 
ATOM     17  C   UNL     1      -5.234   3.332  26.278  0.00  0.00    +0.024 A 
ATOM     19  C   UNL     1      -5.311   1.782  24.034  0.00  0.00    +0.111 A 
ATOM     20  C   UNL     1      -6.201   2.362  26.071  0.00  0.00    +0.111 A 
ENDBRANCH  13  14
ENDBRANCH   5  13
ENDBRANCH   8   5
BRANCH  10  12
ATOM     12  C   UNL     1       0.658   1.046  23.895  0.00  0.00    +0.138 C 
BRANCH  12   6
ATOM      4  O   UNL     1      -0.054  -1.358  25.296  0.00  0.00    -0.270 OA
ATOM      6  N   UNL     1      -0.600   0.357  23.831  0.00  0.00    -0.308 N 
ATOM     15  C   UNL     1      -0.858  -0.807  24.549  0.00  0.00    +0.251 C 
ATOM     26  H   UNL     1      -1.308   0.748  23.221  0.00  0.00    +0.149 HD
BRANCH  15  18
ATOM      1  S   UNL     1      -2.371  -3.113  24.469  0.00  0.00    -0.092 S 
ATOM     18  C   UNL     1      -2.201  -1.414  24.354  0.00  0.00    +0.074 A 
ATOM     21  C   UNL     1      -3.398  -0.790  24.081  0.00  0.00    +0.021 A 
ATOM     22  C   UNL     1      -4.471  -1.721  23.965  0.00  0.00    +0.008 A 
ATOM     23  C   UNL     1      -4.052  -3.019  24.153  0.00  0.00    +0.046 A 
ENDBRANCH  15  18
ENDBRANCH  12   6
ENDBRANCH  10  12
TORSDOF 7
ENDMDL
MODEL 7
REMARK VINA RESULT:      -3.6      2.935      4.766
REMARK  Name = 75536819
REMARK  7 active torsions:
REMARK  status: ('A' for Active; 'I' for Inactive)
REMARK    1  A    between atoms: O_3  and  C_9
REMARK    2  A    between atoms: N_5  and  C_8
REMARK    3  A    between atoms: N_5  and  C_13
REMARK    4  A    between atoms: N_6  and  C_12
REMARK    5  A    between atoms: C_10  and  C_12
REMARK    6  A    between atoms: C_13  and  C_14
REMARK    7  A    between atoms: C_15  and  C_18
REMARK                            x       y       z     vdW  Elec       q    Type
REMARK                         _______ _______ _______ _____ _____    ______ ____
ROOT
ATOM      2  O   UNL     1      -0.793   0.012  25.519  0.00  0.00    -0.371 OA
ATOM      8  C   UNL     1      -2.919  -1.035  25.681  0.00  0.00    +0.111 C 
ATOM      9  C   UNL     1      -2.332  -1.316  24.310  0.00  0.00    +0.164 C 
ATOM     10  C   UNL     1      -0.853  -1.063  24.566  0.00  0.00    +0.165 C 
ATOM     11  C   UNL     1      -2.089   0.159  26.124  0.00  0.00    +0.181 C 
ENDROOT
BRANCH   9   3
ATOM      3  O   UNL     1      -2.573  -2.640  23.874  0.00  0.00    -0.388 OA
ATOM     25  H   UNL     1      -3.007  -3.125  24.597  0.00  0.00    +0.210 HD
ENDBRANCH   9   3
BRANCH   8   5
ATOM      5  N   UNL     1      -4.345  -0.757  25.659  0.00  0.00    -0.305 NA
ATOM     24  H   UNL     1      -4.589  -0.198  26.477  0.00  0.00    +0.123 HD
BRANCH   5  13
ATOM     13  C   UNL     1      -4.720  -0.020  24.457  0.00  0.00    +0.116 C 
BRANCH  13  14
ATOM      7  N   UNL     1      -4.601   4.233  25.083  0.00  0.00    -0.263 NA
ATOM     14  C   UNL     1      -4.678   1.468  24.676  0.00  0.00    -0.031 A 
ATOM     16  C   UNL     1      -3.772   2.252  23.971  0.00  0.00    +0.024 A 
ATOM     17  C   UNL     1      -5.547   2.065  25.583  0.00  0.00    +0.024 A 
ATOM     19  C   UNL     1      -3.773   3.618  24.209  0.00  0.00    +0.111 A 
ATOM     20  C   UNL     1      -5.469   3.438  25.749  0.00  0.00    +0.111 A 
ENDBRANCH  13  14
ENDBRANCH   5  13
ENDBRANCH   8   5
BRANCH  10  12
ATOM     12  C   UNL     1      -0.083  -0.684  23.315  0.00  0.00    +0.138 C 
BRANCH  12   6
ATOM      4  O   UNL     1       2.018  -0.279  21.399  0.00  0.00    -0.270 OA
ATOM      6  N   UNL     1       1.310  -0.487  23.599  0.00  0.00    -0.308 N 
ATOM     15  C   UNL     1       2.262  -0.298  22.602  0.00  0.00    +0.251 C 
ATOM     26  H   UNL     1       1.587  -0.505  24.574  0.00  0.00    +0.149 HD
BRANCH  15  18
ATOM      1  S   UNL     1       4.434  -1.431  23.873  0.00  0.00    -0.092 S 
ATOM     18  C   UNL     1       3.667  -0.135  23.060  0.00  0.00    +0.074 A 
ATOM     21  C   UNL     1       4.498   0.956  22.925  0.00  0.00    +0.021 A 
ATOM     22  C   UNL     1       5.782   0.723  23.498  0.00  0.00    +0.008 A 
ATOM     23  C   UNL     1       5.883  -0.535  24.048  0.00  0.00    +0.046 A 
ENDBRANCH  15  18
ENDBRANCH  12   6
ENDBRANCH  10  12
TORSDOF 7
ENDMDL
MODEL 8
REMARK VINA RESULT:      -3.5      2.089      4.751
REMARK  Name = 75536819
REMARK  7 active torsions:
REMARK  status: ('A' for Active; 'I' for Inactive)
REMARK    1  A    between atoms: O_3  and  C_9
REMARK    2  A    between atoms: N_5  and  C_8
REMARK    3  A    between atoms: N_5  and  C_13
REMARK    4  A    between atoms: N_6  and  C_12
REMARK    5  A    between atoms: C_10  and  C_12
REMARK    6  A    between atoms: C_13  and  C_14
REMARK    7  A    between atoms: C_15  and  C_18
REMARK                            x       y       z     vdW  Elec       q    Type
REMARK                         _______ _______ _______ _____ _____    ______ ____
ROOT
ATOM      2  O   UNL     1       0.062   3.756  25.952  0.00  0.00    -0.371 OA
ATOM      8  C   UNL     1       0.314   1.686  24.813  0.00  0.00    +0.111 C 
ATOM      9  C   UNL     1      -0.773   2.496  24.132  0.00  0.00    +0.164 C 
ATOM     10  C   UNL     1      -0.436   3.902  24.611  0.00  0.00    +0.165 C 
ATOM     11  C   UNL     1       0.398   2.374  26.167  0.00  0.00    +0.181 C 
ENDROOT
BRANCH   9   3
ATOM      3  O   UNL     1      -0.727   2.394  22.722  0.00  0.00    -0.388 OA
ATOM     25  H   UNL     1       0.051   2.884  22.405  0.00  0.00    +0.210 HD
ENDBRANCH   9   3
BRANCH   8   5
ATOM      5  N   UNL     1       0.008   0.269  24.916  0.00  0.00    -0.305 NA
ATOM     24  H   UNL     1       0.808  -0.217  25.320  0.00  0.00    +0.123 HD
BRANCH   5  13
ATOM     13  C   UNL     1      -1.157   0.043  25.764  0.00  0.00    +0.116 C 
BRANCH  13  14
ATOM      7  N   UNL     1      -3.986  -2.625  23.926  0.00  0.00    -0.263 NA
ATOM     14  C   UNL     1      -2.147  -0.890  25.120  0.00  0.00    -0.031 A 
ATOM     16  C   UNL     1      -3.438  -0.456  24.845  0.00  0.00    +0.024 A 
ATOM     17  C   UNL     1      -1.773  -2.191  24.800  0.00  0.00    +0.024 A 
ATOM     19  C   UNL     1      -4.312  -1.354  24.252  0.00  0.00    +0.111 A 
ATOM     20  C   UNL     1      -2.721  -3.011  24.209  0.00  0.00    +0.111 A 
ENDBRANCH  13  14
ENDBRANCH   5  13
ENDBRANCH   8   5
BRANCH  10  12
ATOM     12  C   UNL     1      -1.629   4.840  24.606  0.00  0.00    +0.138 C 
BRANCH  12   6
ATOM      4  O   UNL     1      -3.057   3.984  26.945  0.00  0.00    -0.270 OA
ATOM      6  N   UNL     1      -2.865   4.112  24.636  0.00  0.00    -0.308 N 
ATOM     15  C   UNL     1      -3.489   3.737  25.822  0.00  0.00    +0.251 C 
ATOM     26  H   UNL     1      -3.273   3.861  23.743  0.00  0.00    +0.149 HD
BRANCH  15  18
ATOM      1  S   UNL     1      -5.174   2.328  24.151  0.00  0.00    -0.092 S 
ATOM     18  C   UNL     1      -4.751   2.963  25.683  0.00  0.00    +0.074 A 
ATOM     21  C   UNL     1      -5.687   2.658  26.647  0.00  0.00    +0.021 A 
ATOM     22  C   UNL     1      -6.766   1.892  26.119  0.00  0.00    +0.008 A 
ATOM     23  C   UNL     1      -6.614   1.642  24.773  0.00  0.00    +0.046 A 
ENDBRANCH  15  18
ENDBRANCH  12   6
ENDBRANCH  10  12
TORSDOF 7
ENDMDL
MODEL 9
REMARK VINA RESULT:      -3.2      2.612      4.635
REMARK  Name = 75536819
REMARK  7 active torsions:
REMARK  status: ('A' for Active; 'I' for Inactive)
REMARK    1  A    between atoms: O_3  and  C_9
REMARK    2  A    between atoms: N_5  and  C_8
REMARK    3  A    between atoms: N_5  and  C_13
REMARK    4  A    between atoms: N_6  and  C_12
REMARK    5  A    between atoms: C_10  and  C_12
REMARK    6  A    between atoms: C_13  and  C_14
REMARK    7  A    between atoms: C_15  and  C_18
REMARK                            x       y       z     vdW  Elec       q    Type
REMARK                         _______ _______ _______ _____ _____    ______ ____
ROOT
ATOM      2  O   UNL     1      -0.636   0.245  25.610  0.00  0.00    -0.371 OA
ATOM      8  C   UNL     1      -1.358   2.412  24.955  0.00  0.00    +0.111 C 
ATOM      9  C   UNL     1      -1.023   1.606  23.714  0.00  0.00    +0.164 C 
ATOM     10  C   UNL     1      -1.110   0.185  24.254  0.00  0.00    +0.165 C 
ATOM     11  C   UNL     1      -0.634   1.620  26.032  0.00  0.00    +0.181 C 
ENDROOT
BRANCH   9   3
ATOM      3  O   UNL     1      -1.937   1.825  22.657  0.00  0.00    -0.388 OA
ATOM     25  H   UNL     1      -1.782   1.152  21.973  0.00  0.00    +0.210 HD
ENDBRANCH   9   3
BRANCH   8   5
ATOM      5  N   UNL     1      -0.927   3.798  24.884  0.00  0.00    -0.305 NA
ATOM     24  H   UNL     1      -0.525   3.976  23.964  0.00  0.00    +0.123 HD
BRANCH   5  13
ATOM     13  C   UNL     1      -2.047   4.709  25.092  0.00  0.00    +0.116 C 
BRANCH  13  14
ATOM      7  N   UNL     1      -5.806   2.624  25.229  0.00  0.00    -0.263 NA
ATOM     14  C   UNL     1      -3.362   3.979  25.140  0.00  0.00    -0.031 A 
ATOM     16  C   UNL     1      -3.933   3.491  23.970  0.00  0.00    +0.024 A 
ATOM     17  C   UNL     1      -4.012   3.790  26.355  0.00  0.00    +0.024 A 
ATOM     19  C   UNL     1      -5.146   2.827  24.068  0.00  0.00    +0.111 A 
ATOM     20  C   UNL     1      -5.221   3.112  26.346  0.00  0.00    +0.111 A 
ENDBRANCH  13  14
ENDBRANCH   5  13
ENDBRANCH   8   5
BRANCH  10  12
ATOM     12  C   UNL     1      -0.280  -0.810  23.463  0.00  0.00    +0.138 C 
BRANCH  12   6
ATOM      4  O   UNL     1       1.712  -0.202  21.486  0.00  0.00    -0.270 OA
ATOM      6  N   UNL     1       1.123  -0.615  23.692  0.00  0.00    -0.308 N 
ATOM     15  C   UNL     1       2.019  -0.321  22.669  0.00  0.00    +0.251 C 
ATOM     26  H   UNL     1       1.452  -0.713  24.646  0.00  0.00    +0.149 HD
BRANCH  15  18
ATOM      1  S   UNL     1       4.233  -1.484  23.839  0.00  0.00    -0.092 S 
ATOM     18  C   UNL     1       3.444  -0.175  23.067  0.00  0.00    +0.074 A 
ATOM     21  C   UNL     1       4.279   0.909  22.903  0.00  0.00    +0.021 A 
ATOM     22  C   UNL     1       5.584   0.661  23.419  0.00  0.00    +0.008 A 
ATOM     23  C   UNL     1       5.697  -0.602  23.956  0.00  0.00    +0.046 A 
ENDBRANCH  15  18
ENDBRANCH  12   6
ENDBRANCH  10  12
TORSDOF 7
ENDMDL
MODEL 10
REMARK VINA RESULT:      -3.1      2.452      3.294
REMARK  Name = 75536819
REMARK  7 active torsions:
REMARK  status: ('A' for Active; 'I' for Inactive)
REMARK    1  A    between atoms: O_3  and  C_9
REMARK    2  A    between atoms: N_5  and  C_8
REMARK    3  A    between atoms: N_5  and  C_13
REMARK    4  A    between atoms: N_6  and  C_12
REMARK    5  A    between atoms: C_10  and  C_12
REMARK    6  A    between atoms: C_13  and  C_14
REMARK    7  A    between atoms: C_15  and  C_18
REMARK                            x       y       z     vdW  Elec       q    Type
REMARK                         _______ _______ _______ _____ _____    ______ ____
ROOT
ATOM      2  O   UNL     1      -0.591   3.244  25.335  0.00  0.00    -0.371 OA
ATOM      8  C   UNL     1      -2.521   1.886  25.059  0.00  0.00    +0.111 C 
ATOM      9  C   UNL     1      -1.542   1.588  23.939  0.00  0.00    +0.164 C 
ATOM     10  C   UNL     1      -0.240   2.096  24.543  0.00  0.00    +0.165 C 
ATOM     11  C   UNL     1      -2.013   3.232  25.552  0.00  0.00    +0.181 C 
ENDROOT
BRANCH   9   3
ATOM      3  O   UNL     1      -1.475   0.210  23.625  0.00  0.00    -0.388 OA
ATOM     25  H   UNL     1      -0.844   0.093  22.895  0.00  0.00    +0.210 HD
ENDBRANCH   9   3
BRANCH   8   5
ATOM      5  N   UNL     1      -3.908   1.928  24.627  0.00  0.00    -0.305 NA
ATOM     24  H   UNL     1      -3.953   1.718  23.630  0.00  0.00    +0.123 HD
BRANCH   5  13
ATOM     13  C   UNL     1      -4.715   0.953  25.351  0.00  0.00    +0.116 C 
BRANCH  13  14
ATOM      7  N   UNL     1      -3.437  -3.079  24.570  0.00  0.00    -0.263 NA
ATOM     14  C   UNL     1      -4.268  -0.458  25.078  0.00  0.00    -0.031 A 
ATOM     16  C   UNL     1      -3.567  -1.168  26.046  0.00  0.00    +0.024 A 
ATOM     17  C   UNL     1      -4.553  -1.057  23.855  0.00  0.00    +0.024 A 
ATOM     19  C   UNL     1      -3.178  -2.464  25.745  0.00  0.00    +0.111 A 
ATOM     20  C   UNL     1      -4.120  -2.358  23.653  0.00  0.00    +0.111 A 
ENDBRANCH  13  14
ENDBRANCH   5  13
ENDBRANCH   8   5
BRANCH  10  12
ATOM     12  C   UNL     1       0.792   2.487  23.501  0.00  0.00    +0.138 C 
BRANCH  12   6
ATOM      4  O   UNL     1       1.425  -0.058  22.331  0.00  0.00    -0.270 OA
ATOM      6  N   UNL     1       2.009   1.745  23.670  0.00  0.00    -0.308 N 
ATOM     15  C   UNL     1       2.230   0.513  23.061  0.00  0.00    +0.251 C 
ATOM     26  H   UNL     1       2.716   2.151  24.272  0.00  0.00    +0.149 HD
BRANCH  15  18
ATOM      1  S   UNL     1       4.974   0.771  23.209  0.00  0.00    -0.092 S 
ATOM     18  C   UNL     1       3.532  -0.140  23.357  0.00  0.00    +0.074 A 
ATOM     21  C   UNL     1       3.778  -1.436  23.755  0.00  0.00    +0.021 A 
ATOM     22  C   UNL     1       5.168  -1.684  23.940  0.00  0.00    +0.008 A 
ATOM     23  C   UNL     1       5.933  -0.569  23.677  0.00  0.00    +0.046 A 
ENDBRANCH  15  18
ENDBRANCH  12   6
ENDBRANCH  10  12
TORSDOF 7
ENDMDL
