MODEL 1
REMARK VINA RESULT:      -3.0      0.000      0.000
REMARK  Name = 45784034
REMARK  15 active torsions:
REMARK  status: ('A' for Active; 'I' for Inactive)
REMARK    1  A    between atoms: O_2  and  C_25
REMARK    2  A    between atoms: O_2  and  C_29
REMARK    3  A    between atoms: N_3  and  C_12
REMARK    4  A    between atoms: N_4  and  C_24
REMARK    5  A    between atoms: C_7  and  C_11
REMARK    6  A    between atoms: C_8  and  C_12
REMARK    7  A    between atoms: C_10  and  C_15
REMARK    8  A    between atoms: C_11  and  C_18
REMARK    9  A    between atoms: C_11  and  C_19
REMARK   10  A    between atoms: C_14  and  C_22
REMARK   11  A    between atoms: C_15  and  C_23
REMARK   12  A    between atoms: C_24  and  C_25
REMARK   13  A    between atoms: C_26  and  C_27
REMARK   14  A    between atoms: C_27  and  C_28
REMARK   15  A    between atoms: C_28  and  C_30
REMARK                            x       y       z     vdW  Elec       q    Type
REMARK                         _______ _______ _______ _____ _____    ______ ____
ROOT
ATOM      7  C   UNL     1      -3.475  -0.703  25.195  0.00  0.00    +0.000 C 
ATOM      8  C   UNL     1      -2.267  -0.090  24.449  0.00  0.00    +0.029 C 
ATOM      9  C   UNL     1      -4.410   0.403  25.706  0.00  0.00    +0.012 C 
ATOM     10  C   UNL     1      -4.918   1.338  24.588  0.00  0.00    +0.024 C 
ATOM     13  C   UNL     1      -2.667   1.026  23.518  0.00  0.00    -0.023 C 
ATOM     14  C   UNL     1      -3.850   1.668  23.556  0.00  0.00    -0.073 C 
ATOM     22  C   UNL     1      -4.180   2.709  22.522  0.00  0.00    +0.039 C 
ENDROOT
BRANCH   7  11
ATOM     11  C   UNL     1      -4.231  -1.703  24.309  0.00  0.00    -0.013 C 
ATOM     18  C   UNL     1      -3.997  -1.389  22.834  0.00  0.00    +0.007 C 
ATOM     19  C   UNL     1      -3.802  -3.131  24.633  0.00  0.00    +0.007 C 
ENDBRANCH   7  11
BRANCH   8  12
ATOM     12  C   UNL     1      -1.203   0.425  25.424  0.00  0.00    +0.092 C 
BRANCH  12   3
ATOM      3  N   UNL     1       0.132   0.308  24.840  0.00  0.00    -0.299 NA
ATOM      4  N   UNL     1       1.970   0.241  22.610  0.00  0.00    -0.298 NA
ATOM     16  C   UNL     1       0.214  -0.860  23.954  0.00  0.00    +0.100 C 
ATOM     17  C   UNL     1       0.493   1.530  24.112  0.00  0.00    +0.100 C 
ATOM     20  C   UNL     1       1.612  -0.982  23.338  0.00  0.00    +0.100 C 
ATOM     21  C   UNL     1       1.891   1.408  23.497  0.00  0.00    +0.100 C 
BRANCH   4  24
ATOM     24  C   UNL     1       3.304   0.124  22.024  0.00  0.00    +0.112 C 
BRANCH  24  25
ATOM     25  C   UNL     1       4.316   0.923  22.828  0.00  0.00    +0.174 C 
BRANCH  25   2
ATOM      2  O   UNL     1       5.475   0.124  23.029  0.00  0.00    -0.382 OA
ATOM     29  C   UNL     1       5.323  -0.744  24.144  0.00  0.00    +0.194 C 
ENDBRANCH  25   2
ENDBRANCH  24  25
ENDBRANCH   4  24
ENDBRANCH  12   3
ENDBRANCH   8  12
BRANCH  10  15
ATOM     15  C   UNL     1      -5.527   2.588  25.235  0.00  0.00    +0.105 C 
BRANCH  15  23
ATOM      1  O   UNL     1      -3.667   4.130  24.890  0.00  0.00    -0.425 OA
ATOM      5  N   UNL     1      -4.175   3.774  27.039  0.00  0.00    -0.112 NA
ATOM      6  N   UNL     1      -3.114   4.658  26.992  0.00  0.00    -0.112 NA
ATOM     23  C   UNL     1      -4.465   3.492  25.790  0.00  0.00    +0.218 A 
ATOM     26  C   UNL     1      -2.851   4.837  25.718  0.00  0.00    +0.217 A 
BRANCH  26  27
ATOM     27  C   UNL     1      -1.828   5.676  25.083  0.00  0.00    +0.097 C 
BRANCH  27  28
ATOM     28  C   UNL     1      -0.544   4.897  24.724  0.00  0.00    +0.006 C 
ATOM     30  C   UNL     1      -0.311   3.698  25.629  0.00  0.00    +0.004 C 
ENDBRANCH  27  28
ENDBRANCH  26  27
ENDBRANCH  15  23
ENDBRANCH  10  15
TORSDOF 10
ENDMDL
MODEL 2
REMARK VINA RESULT:      -2.7      1.562      6.069
REMARK  Name = 45784034
REMARK  15 active torsions:
REMARK  status: ('A' for Active; 'I' for Inactive)
REMARK    1  A    between atoms: O_2  and  C_25
REMARK    2  A    between atoms: O_2  and  C_29
REMARK    3  A    between atoms: N_3  and  C_12
REMARK    4  A    between atoms: N_4  and  C_24
REMARK    5  A    between atoms: C_7  and  C_11
REMARK    6  A    between atoms: C_8  and  C_12
REMARK    7  A    between atoms: C_10  and  C_15
REMARK    8  A    between atoms: C_11  and  C_18
REMARK    9  A    between atoms: C_11  and  C_19
REMARK   10  A    between atoms: C_14  and  C_22
REMARK   11  A    between atoms: C_15  and  C_23
REMARK   12  A    between atoms: C_24  and  C_25
REMARK   13  A    between atoms: C_26  and  C_27
REMARK   14  A    between atoms: C_27  and  C_28
REMARK   15  A    between atoms: C_28  and  C_30
REMARK                            x       y       z     vdW  Elec       q    Type
REMARK                         _______ _______ _______ _____ _____    ______ ____
ROOT
ATOM      7  C   UNL     1      -3.456  -1.353  23.768  0.00  0.00    +0.000 C 
ATOM      8  C   UNL     1      -4.087  -0.989  25.132  0.00  0.00    +0.029 C 
ATOM      9  C   UNL     1      -2.268  -0.431  23.461  0.00  0.00    +0.012 C 
ATOM     10  C   UNL     1      -1.178  -0.454  24.553  0.00  0.00    +0.024 C 
ATOM     13  C   UNL     1      -3.052  -0.739  26.200  0.00  0.00    -0.023 C 
ATOM     14  C   UNL     1      -1.747  -0.510  25.962  0.00  0.00    -0.073 C 
ATOM     22  C   UNL     1      -0.785  -0.357  27.108  0.00  0.00    +0.039 C 
ENDROOT
BRANCH   7  11
ATOM     11  C   UNL     1      -3.038  -2.830  23.721  0.00  0.00    -0.013 C 
ATOM     18  C   UNL     1      -1.517  -2.952  23.719  0.00  0.00    +0.007 C 
ATOM     19  C   UNL     1      -3.641  -3.592  24.897  0.00  0.00    +0.007 C 
ENDBRANCH   7  11
BRANCH   8  12
ATOM     12  C   UNL     1      -5.004   0.233  25.022  0.00  0.00    +0.092 C 
BRANCH  12   3
ATOM      3  N   UNL     1      -4.221   1.466  24.998  0.00  0.00    -0.299 NA
ATOM      4  N   UNL     1      -3.824   4.252  24.335  0.00  0.00    -0.298 NA
ATOM     16  C   UNL     1      -3.961   1.892  23.617  0.00  0.00    +0.100 C 
ATOM     17  C   UNL     1      -4.901   2.532  25.743  0.00  0.00    +0.100 C 
ATOM     20  C   UNL     1      -3.143   3.187  23.589  0.00  0.00    +0.100 C 
ATOM     21  C   UNL     1      -4.081   3.827  25.716  0.00  0.00    +0.100 C 
BRANCH   4  24
ATOM     24  C   UNL     1      -3.042   5.486  24.309  0.00  0.00    +0.112 C 
BRANCH  24  25
ATOM     25  C   UNL     1      -1.974   5.469  25.390  0.00  0.00    +0.174 C 
BRANCH  25   2
ATOM      2  O   UNL     1      -0.710   5.234  24.780  0.00  0.00    -0.382 OA
ATOM     29  C   UNL     1      -0.220   3.934  25.079  0.00  0.00    +0.194 C 
ENDBRANCH  25   2
ENDBRANCH  24  25
ENDBRANCH   4  24
ENDBRANCH  12   3
ENDBRANCH   8  12
BRANCH  10  15
ATOM     15  C   UNL     1      -0.241   0.741  24.336  0.00  0.00    +0.105 C 
BRANCH  15  23
ATOM      1  O   UNL     1       2.068   1.019  23.596  0.00  0.00    -0.425 OA
ATOM      5  N   UNL     1       0.880  -0.424  22.367  0.00  0.00    -0.112 NA
ATOM      6  N   UNL     1       2.157  -0.365  21.840  0.00  0.00    -0.112 NA
ATOM     23  C   UNL     1       0.873   0.400  23.389  0.00  0.00    +0.218 A 
ATOM     26  C   UNL     1       2.815   0.490  22.589  0.00  0.00    +0.217 A 
BRANCH  26  27
ATOM     27  C   UNL     1       4.210   0.937  22.494  0.00  0.00    +0.097 C 
BRANCH  27  28
ATOM     28  C   UNL     1       5.065   0.516  23.709  0.00  0.00    +0.006 C 
ATOM     30  C   UNL     1       5.058  -0.987  23.940  0.00  0.00    +0.004 C 
ENDBRANCH  27  28
ENDBRANCH  26  27
ENDBRANCH  15  23
ENDBRANCH  10  15
TORSDOF 10
ENDMDL
MODEL 3
REMARK VINA RESULT:      -2.0      1.782      4.616
REMARK  Name = 45784034
REMARK  15 active torsions:
REMARK  status: ('A' for Active; 'I' for Inactive)
REMARK    1  A    between atoms: O_2  and  C_25
REMARK    2  A    between atoms: O_2  and  C_29
REMARK    3  A    between atoms: N_3  and  C_12
REMARK    4  A    between atoms: N_4  and  C_24
REMARK    5  A    between atoms: C_7  and  C_11
REMARK    6  A    between atoms: C_8  and  C_12
REMARK    7  A    between atoms: C_10  and  C_15
REMARK    8  A    between atoms: C_11  and  C_18
REMARK    9  A    between atoms: C_11  and  C_19
REMARK   10  A    between atoms: C_14  and  C_22
REMARK   11  A    between atoms: C_15  and  C_23
REMARK   12  A    between atoms: C_24  and  C_25
REMARK   13  A    between atoms: C_26  and  C_27
REMARK   14  A    between atoms: C_27  and  C_28
REMARK   15  A    between atoms: C_28  and  C_30
REMARK                            x       y       z     vdW  Elec       q    Type
REMARK                         _______ _______ _______ _____ _____    ______ ____
ROOT
ATOM      7  C   UNL     1      -1.270   3.451  24.423  0.00  0.00    +0.000 C 
ATOM      8  C   UNL     1      -1.435   3.511  25.959  0.00  0.00    +0.029 C 
ATOM      9  C   UNL     1      -2.436   2.683  23.786  0.00  0.00    +0.012 C 
ATOM     10  C   UNL     1      -3.819   3.275  24.130  0.00  0.00    +0.024 C 
ATOM     13  C   UNL     1      -2.847   3.834  26.378  0.00  0.00    -0.023 C 
ATOM     14  C   UNL     1      -3.922   3.746  25.573  0.00  0.00    -0.073 C 
ATOM     22  C   UNL     1      -5.276   4.176  26.069  0.00  0.00    +0.039 C 
ENDROOT
BRANCH   7  11
ATOM     11  C   UNL     1      -1.136   4.856  23.819  0.00  0.00    -0.013 C 
ATOM     18  C   UNL     1      -1.165   5.913  24.920  0.00  0.00    +0.007 C 
ATOM     19  C   UNL     1       0.147   4.964  23.001  0.00  0.00    +0.007 C 
ENDBRANCH   7  11
BRANCH   8  12
ATOM     12  C   UNL     1      -0.998   2.202  26.626  0.00  0.00    +0.092 C 
BRANCH  12   3
ATOM      3  N   UNL     1      -0.091   1.457  25.756  0.00  0.00    -0.299 NA
ATOM      4  N   UNL     1       0.775   0.468  23.181  0.00  0.00    -0.298 NA
ATOM     16  C   UNL     1      -0.796   0.358  25.085  0.00  0.00    +0.100 C 
ATOM     17  C   UNL     1       0.532   2.345  24.768  0.00  0.00    +0.100 C 
ATOM     20  C   UNL     1       0.153  -0.422  24.169  0.00  0.00    +0.100 C 
ATOM     21  C   UNL     1       1.482   1.565  23.853  0.00  0.00    +0.100 C 
BRANCH   4  24
ATOM     24  C   UNL     1       1.681  -0.278  22.310  0.00  0.00    +0.112 C 
BRANCH  24  25
ATOM     25  C   UNL     1       3.076   0.326  22.342  0.00  0.00    +0.174 C 
BRANCH  25   2
ATOM      2  O   UNL     1       3.927  -0.531  23.094  0.00  0.00    -0.382 OA
ATOM     29  C   UNL     1       5.150   0.112  23.428  0.00  0.00    +0.194 C 
ENDBRANCH  25   2
ENDBRANCH  24  25
ENDBRANCH   4  24
ENDBRANCH  12   3
ENDBRANCH   8  12
BRANCH  10  15
ATOM     15  C   UNL     1      -4.897   2.249  23.760  0.00  0.00    +0.105 C 
BRANCH  15  23
ATOM      1  O   UNL     1      -4.515  -0.150  23.521  0.00  0.00    -0.425 OA
ATOM      5  N   UNL     1      -4.437   0.584  25.632  0.00  0.00    -0.112 NA
ATOM      6  N   UNL     1      -4.205  -0.778  25.645  0.00  0.00    -0.112 NA
ATOM     23  C   UNL     1      -4.613   0.908  24.373  0.00  0.00    +0.218 A 
ATOM     26  C   UNL     1      -4.261  -1.164  24.391  0.00  0.00    +0.217 A 
BRANCH  26  27
ATOM     27  C   UNL     1      -4.086  -2.503  23.816  0.00  0.00    +0.097 C 
BRANCH  27  28
ATOM     28  C   UNL     1      -3.115  -3.388  24.627  0.00  0.00    +0.006 C 
ATOM     30  C   UNL     1      -1.660  -2.995  24.432  0.00  0.00    +0.004 C 
ENDBRANCH  27  28
ENDBRANCH  26  27
ENDBRANCH  15  23
ENDBRANCH  10  15
TORSDOF 10
ENDMDL
MODEL 4
REMARK VINA RESULT:      -1.7      1.409      2.435
REMARK  Name = 45784034
REMARK  15 active torsions:
REMARK  status: ('A' for Active; 'I' for Inactive)
REMARK    1  A    between atoms: O_2  and  C_25
REMARK    2  A    between atoms: O_2  and  C_29
REMARK    3  A    between atoms: N_3  and  C_12
REMARK    4  A    between atoms: N_4  and  C_24
REMARK    5  A    between atoms: C_7  and  C_11
REMARK    6  A    between atoms: C_8  and  C_12
REMARK    7  A    between atoms: C_10  and  C_15
REMARK    8  A    between atoms: C_11  and  C_18
REMARK    9  A    between atoms: C_11  and  C_19
REMARK   10  A    between atoms: C_14  and  C_22
REMARK   11  A    between atoms: C_15  and  C_23
REMARK   12  A    between atoms: C_24  and  C_25
REMARK   13  A    between atoms: C_26  and  C_27
REMARK   14  A    between atoms: C_27  and  C_28
REMARK   15  A    between atoms: C_28  and  C_30
REMARK                            x       y       z     vdW  Elec       q    Type
REMARK                         _______ _______ _______ _____ _____    ______ ____
ROOT
ATOM      7  C   UNL     1      -1.512   0.159  25.528  0.00  0.00    +0.000 C 
ATOM      8  C   UNL     1      -1.309  -0.266  24.055  0.00  0.00    +0.029 C 
ATOM      9  C   UNL     1      -2.939   0.683  25.745  0.00  0.00    +0.012 C 
ATOM     10  C   UNL     1      -4.030  -0.334  25.349  0.00  0.00    +0.024 C 
ATOM     13  C   UNL     1      -2.474  -1.054  23.514  0.00  0.00    -0.023 C 
ATOM     14  C   UNL     1      -3.693  -1.107  24.083  0.00  0.00    -0.073 C 
ATOM     22  C   UNL     1      -4.760  -1.995  23.505  0.00  0.00    +0.039 C 
ENDROOT
BRANCH   7  11
ATOM     11  C   UNL     1      -1.191  -0.992  26.492  0.00  0.00    -0.013 C 
ATOM     18  C   UNL     1      -2.476  -1.558  27.091  0.00  0.00    +0.007 C 
ATOM     19  C   UNL     1      -0.402  -2.083  25.774  0.00  0.00    +0.007 C 
ENDBRANCH   7  11
BRANCH   8  12
ATOM     12  C   UNL     1      -1.053   0.943  23.149  0.00  0.00    +0.092 C 
BRANCH  12   3
ATOM      3  N   UNL     1       0.344   0.980  22.719  0.00  0.00    -0.299 NA
ATOM      4  N   UNL     1       3.127   0.232  22.942  0.00  0.00    -0.298 NA
ATOM     16  C   UNL     1       1.200   1.535  23.774  0.00  0.00    +0.100 C 
ATOM     17  C   UNL     1       0.807  -0.358  22.334  0.00  0.00    +0.100 C 
ATOM     20  C   UNL     1       2.665   1.571  23.327  0.00  0.00    +0.100 C 
ATOM     21  C   UNL     1       2.272  -0.321  21.885  0.00  0.00    +0.100 C 
BRANCH   4  24
ATOM     24  C   UNL     1       4.524   0.269  22.514  0.00  0.00    +0.112 C 
BRANCH  24  25
ATOM     25  C   UNL     1       5.439   0.566  23.691  0.00  0.00    +0.174 C 
BRANCH  25   2
ATOM      2  O   UNL     1       5.425  -0.549  24.574  0.00  0.00    -0.382 OA
ATOM     29  C   UNL     1       4.987  -1.730  23.915  0.00  0.00    +0.194 C 
ENDBRANCH  25   2
ENDBRANCH  24  25
ENDBRANCH   4  24
ENDBRANCH  12   3
ENDBRANCH   8  12
BRANCH  10  15
ATOM     15  C   UNL     1      -5.374   0.400  25.259  0.00  0.00    +0.105 C 
BRANCH  15  23
ATOM      1  O   UNL     1      -4.171   2.438  24.666  0.00  0.00    -0.425 OA
ATOM      5  N   UNL     1      -5.890   2.763  26.059  0.00  0.00    -0.112 NA
ATOM      6  N   UNL     1      -5.305   3.990  25.810  0.00  0.00    -0.112 NA
ATOM     23  C   UNL     1      -5.196   1.887  25.372  0.00  0.00    +0.218 A 
ATOM     26  C   UNL     1      -4.306   3.753  24.993  0.00  0.00    +0.217 A 
BRANCH  26  27
ATOM     27  C   UNL     1      -3.343   4.686  24.396  0.00  0.00    +0.097 C 
BRANCH  27  28
ATOM     28  C   UNL     1      -2.141   4.988  25.317  0.00  0.00    +0.006 C 
ATOM     30  C   UNL     1      -0.926   4.131  24.997  0.00  0.00    +0.004 C 
ENDBRANCH  27  28
ENDBRANCH  26  27
ENDBRANCH  15  23
ENDBRANCH  10  15
TORSDOF 10
ENDMDL
MODEL 5
REMARK VINA RESULT:      -1.6      2.046      6.416
REMARK  Name = 45784034
REMARK  15 active torsions:
REMARK  status: ('A' for Active; 'I' for Inactive)
REMARK    1  A    between atoms: O_2  and  C_25
REMARK    2  A    between atoms: O_2  and  C_29
REMARK    3  A    between atoms: N_3  and  C_12
REMARK    4  A    between atoms: N_4  and  C_24
REMARK    5  A    between atoms: C_7  and  C_11
REMARK    6  A    between atoms: C_8  and  C_12
REMARK    7  A    between atoms: C_10  and  C_15
REMARK    8  A    between atoms: C_11  and  C_18
REMARK    9  A    between atoms: C_11  and  C_19
REMARK   10  A    between atoms: C_14  and  C_22
REMARK   11  A    between atoms: C_15  and  C_23
REMARK   12  A    between atoms: C_24  and  C_25
REMARK   13  A    between atoms: C_26  and  C_27
REMARK   14  A    between atoms: C_27  and  C_28
REMARK   15  A    between atoms: C_28  and  C_30
REMARK                            x       y       z     vdW  Elec       q    Type
REMARK                         _______ _______ _______ _____ _____    ______ ____
ROOT
ATOM      7  C   UNL     1      -2.095   4.216  25.773  0.00  0.00    +0.000 C 
ATOM      8  C   UNL     1      -3.478   3.947  25.136  0.00  0.00    +0.029 C 
ATOM      9  C   UNL     1      -1.258   2.930  25.806  0.00  0.00    +0.012 C 
ATOM     10  C   UNL     1      -1.065   2.290  24.415  0.00  0.00    +0.024 C 
ATOM     13  C   UNL     1      -3.388   3.093  23.896  0.00  0.00    -0.023 C 
ATOM     14  C   UNL     1      -2.316   2.357  23.551  0.00  0.00    -0.073 C 
ATOM     22  C   UNL     1      -2.300   1.609  22.246  0.00  0.00    +0.039 C 
ENDROOT
BRANCH   7  11
ATOM     11  C   UNL     1      -1.353   5.344  25.042  0.00  0.00    -0.013 C 
ATOM     18  C   UNL     1      -0.169   4.781  24.260  0.00  0.00    +0.007 C 
ATOM     19  C   UNL     1      -2.304   6.095  24.116  0.00  0.00    +0.007 C 
ENDBRANCH   7  11
BRANCH   8  12
ATOM     12  C   UNL     1      -4.440   3.290  26.131  0.00  0.00    +0.092 C 
BRANCH  12   3
ATOM      3  N   UNL     1      -4.675   1.891  25.776  0.00  0.00    -0.299 NA
ATOM      4  N   UNL     1      -4.170  -0.489  24.216  0.00  0.00    -0.298 NA
ATOM     16  C   UNL     1      -5.141   1.777  24.389  0.00  0.00    +0.100 C 
ATOM     17  C   UNL     1      -3.462   1.091  25.977  0.00  0.00    +0.100 C 
ATOM     20  C   UNL     1      -5.384   0.311  24.014  0.00  0.00    +0.100 C 
ATOM     21  C   UNL     1      -3.706  -0.375  25.603  0.00  0.00    +0.100 C 
BRANCH   4  24
ATOM     24  C   UNL     1      -4.404  -1.887  23.858  0.00  0.00    +0.112 C 
BRANCH  24  25
ATOM     25  C   UNL     1      -3.489  -2.804  24.652  0.00  0.00    +0.174 C 
BRANCH  25   2
ATOM      2  O   UNL     1      -2.229  -2.871  23.997  0.00  0.00    -0.382 OA
ATOM     29  C   UNL     1      -1.167  -2.517  24.872  0.00  0.00    +0.194 C 
ENDBRANCH  25   2
ENDBRANCH  24  25
ENDBRANCH   4  24
ENDBRANCH  12   3
ENDBRANCH   8  12
BRANCH  10  15
ATOM     15  C   UNL     1      -0.545   0.860  24.601  0.00  0.00    +0.105 C 
BRANCH  15  23
ATOM      1  O   UNL     1       1.756   1.249  23.887  0.00  0.00    -0.425 OA
ATOM      5  N   UNL     1       0.660  -0.268  22.661  0.00  0.00    -0.112 NA
ATOM      6  N   UNL     1       1.939  -0.149  22.150  0.00  0.00    -0.112 NA
ATOM     23  C   UNL     1       0.598   0.566  23.673  0.00  0.00    +0.218 A 
ATOM     26  C   UNL     1       2.542   0.748  22.896  0.00  0.00    +0.217 A 
BRANCH  26  27
ATOM     27  C   UNL     1       3.913   1.265  22.812  0.00  0.00    +0.097 C 
BRANCH  27  28
ATOM     28  C   UNL     1       4.985   0.159  22.916  0.00  0.00    +0.006 C 
ATOM     30  C   UNL     1       5.383  -0.141  24.352  0.00  0.00    +0.004 C 
ENDBRANCH  27  28
ENDBRANCH  26  27
ENDBRANCH  15  23
ENDBRANCH  10  15
TORSDOF 10
ENDMDL
MODEL 6
REMARK VINA RESULT:      -1.2      2.044      4.603
REMARK  Name = 45784034
REMARK  15 active torsions:
REMARK  status: ('A' for Active; 'I' for Inactive)
REMARK    1  A    between atoms: O_2  and  C_25
REMARK    2  A    between atoms: O_2  and  C_29
REMARK    3  A    between atoms: N_3  and  C_12
REMARK    4  A    between atoms: N_4  and  C_24
REMARK    5  A    between atoms: C_7  and  C_11
REMARK    6  A    between atoms: C_8  and  C_12
REMARK    7  A    between atoms: C_10  and  C_15
REMARK    8  A    between atoms: C_11  and  C_18
REMARK    9  A    between atoms: C_11  and  C_19
REMARK   10  A    between atoms: C_14  and  C_22
REMARK   11  A    between atoms: C_15  and  C_23
REMARK   12  A    between atoms: C_24  and  C_25
REMARK   13  A    between atoms: C_26  and  C_27
REMARK   14  A    between atoms: C_27  and  C_28
REMARK   15  A    between atoms: C_28  and  C_30
REMARK                            x       y       z     vdW  Elec       q    Type
REMARK                         _______ _______ _______ _____ _____    ______ ____
ROOT
ATOM      7  C   UNL     1      -3.256   3.364  23.898  0.00  0.00    +0.000 C 
ATOM      8  C   UNL     1      -3.006   3.614  25.403  0.00  0.00    +0.029 C 
ATOM      9  C   UNL     1      -3.998   2.037  23.688  0.00  0.00    +0.012 C 
ATOM     10  C   UNL     1      -5.338   1.959  24.450  0.00  0.00    +0.024 C 
ATOM     13  C   UNL     1      -4.215   3.303  26.250  0.00  0.00    -0.023 C 
ATOM     14  C   UNL     1      -5.270   2.576  25.838  0.00  0.00    -0.073 C 
ATOM     22  C   UNL     1      -6.463   2.399  26.737  0.00  0.00    +0.039 C 
ENDROOT
BRANCH   7  11
ATOM     11  C   UNL     1      -4.017   4.533  23.255  0.00  0.00    -0.013 C 
ATOM     18  C   UNL     1      -3.284   5.847  23.507  0.00  0.00    +0.007 C 
ATOM     19  C   UNL     1      -4.197   4.292  21.759  0.00  0.00    +0.007 C 
ENDBRANCH   7  11
BRANCH   8  12
ATOM     12  C   UNL     1      -1.809   2.810  25.919  0.00  0.00    +0.092 C 
BRANCH  12   3
ATOM      3  N   UNL     1      -1.018   2.289  24.805  0.00  0.00    -0.299 NA
ATOM      4  N   UNL     1       0.999   0.559  23.667  0.00  0.00    -0.298 NA
ATOM     16  C   UNL     1       0.411   2.544  25.016  0.00  0.00    +0.100 C 
ATOM     17  C   UNL     1      -1.261   0.853  24.619  0.00  0.00    +0.100 C 
ATOM     20  C   UNL     1       1.242   1.995  23.851  0.00  0.00    +0.100 C 
ATOM     21  C   UNL     1      -0.431   0.305  23.453  0.00  0.00    +0.100 C 
BRANCH   4  24
ATOM     24  C   UNL     1       1.791   0.038  22.554  0.00  0.00    +0.112 C 
BRANCH  24  25
ATOM     25  C   UNL     1       3.211   0.576  22.607  0.00  0.00    +0.174 C 
BRANCH  25   2
ATOM      2  O   UNL     1       4.044  -0.393  23.231  0.00  0.00    -0.382 OA
ATOM     29  C   UNL     1       5.335   0.132  23.510  0.00  0.00    +0.194 C 
ENDBRANCH  25   2
ENDBRANCH  24  25
ENDBRANCH   4  24
ENDBRANCH  12   3
ENDBRANCH   8  12
BRANCH  10  15
ATOM     15  C   UNL     1      -5.806   0.498  24.469  0.00  0.00    +0.105 C 
BRANCH  15  23
ATOM      1  O   UNL     1      -4.325  -1.420  24.180  0.00  0.00    -0.425 OA
ATOM      5  N   UNL     1      -4.119  -0.394  26.157  0.00  0.00    -0.112 NA
ATOM      6  N   UNL     1      -3.229  -1.451  26.131  0.00  0.00    -0.112 NA
ATOM     23  C   UNL     1      -4.737  -0.413  25.000  0.00  0.00    +0.218 A 
ATOM     26  C   UNL     1      -3.384  -2.022  24.958  0.00  0.00    +0.217 A 
BRANCH  26  27
ATOM     27  C   UNL     1      -2.697  -3.186  24.386  0.00  0.00    +0.097 C 
BRANCH  27  28
ATOM     28  C   UNL     1      -1.224  -2.900  24.021  0.00  0.00    +0.006 C 
ATOM     30  C   UNL     1      -0.369  -2.579  25.237  0.00  0.00    +0.004 C 
ENDBRANCH  27  28
ENDBRANCH  26  27
ENDBRANCH  15  23
ENDBRANCH  10  15
TORSDOF 10
ENDMDL
MODEL 7
REMARK VINA RESULT:       0.7      2.332      4.817
REMARK  Name = 45784034
REMARK  15 active torsions:
REMARK  status: ('A' for Active; 'I' for Inactive)
REMARK    1  A    between atoms: O_2  and  C_25
REMARK    2  A    between atoms: O_2  and  C_29
REMARK    3  A    between atoms: N_3  and  C_12
REMARK    4  A    between atoms: N_4  and  C_24
REMARK    5  A    between atoms: C_7  and  C_11
REMARK    6  A    between atoms: C_8  and  C_12
REMARK    7  A    between atoms: C_10  and  C_15
REMARK    8  A    between atoms: C_11  and  C_18
REMARK    9  A    between atoms: C_11  and  C_19
REMARK   10  A    between atoms: C_14  and  C_22
REMARK   11  A    between atoms: C_15  and  C_23
REMARK   12  A    between atoms: C_24  and  C_25
REMARK   13  A    between atoms: C_26  and  C_27
REMARK   14  A    between atoms: C_27  and  C_28
REMARK   15  A    between atoms: C_28  and  C_30
REMARK                            x       y       z     vdW  Elec       q    Type
REMARK                         _______ _______ _______ _____ _____    ______ ____
ROOT
ATOM      7  C   UNL     1      -3.169   2.106  24.592  0.00  0.00    +0.000 C 
ATOM      8  C   UNL     1      -1.968   2.882  24.001  0.00  0.00    +0.029 C 
ATOM      9  C   UNL     1      -2.683   0.887  25.387  0.00  0.00    +0.012 C 
ATOM     10  C   UNL     1      -1.698   1.248  26.520  0.00  0.00    +0.024 C 
ATOM     13  C   UNL     1      -0.843   3.047  24.991  0.00  0.00    -0.023 C 
ATOM     14  C   UNL     1      -0.711   2.336  26.126  0.00  0.00    -0.073 C 
ATOM     22  C   UNL     1       0.406   2.643  27.086  0.00  0.00    +0.039 C 
ENDROOT
BRANCH   7  11
ATOM     11  C   UNL     1      -4.052   3.016  25.457  0.00  0.00    -0.013 C 
ATOM     18  C   UNL     1      -4.210   4.384  24.800  0.00  0.00    +0.007 C 
ATOM     19  C   UNL     1      -5.413   2.369  25.693  0.00  0.00    +0.007 C 
ENDBRANCH   7  11
BRANCH   8  12
ATOM     12  C   UNL     1      -1.431   2.211  22.733  0.00  0.00    +0.092 C 
BRANCH  12   3
ATOM      3  N   UNL     1      -0.268   1.381  23.042  0.00  0.00    -0.299 NA
ATOM      4  N   UNL     1       2.378   0.352  22.498  0.00  0.00    -0.298 NA
ATOM     16  C   UNL     1      -0.038   0.391  21.983  0.00  0.00    +0.100 C 
ATOM     17  C   UNL     1       0.928   2.209  23.238  0.00  0.00    +0.100 C 
ATOM     20  C   UNL     1       1.183  -0.478  22.303  0.00  0.00    +0.100 C 
ATOM     21  C   UNL     1       2.149   1.340  23.559  0.00  0.00    +0.100 C 
BRANCH   4  24
ATOM     24  C   UNL     1       3.542  -0.478  22.805  0.00  0.00    +0.112 C 
BRANCH  24  25
ATOM     25  C   UNL     1       4.796   0.373  22.912  0.00  0.00    +0.174 C 
BRANCH  25   2
ATOM      2  O   UNL     1       5.673  -0.222  23.860  0.00  0.00    -0.382 OA
ATOM     29  C   UNL     1       5.254  -1.536  24.204  0.00  0.00    +0.194 C 
ENDBRANCH  25   2
ENDBRANCH  24  25
ENDBRANCH   4  24
ENDBRANCH  12   3
ENDBRANCH   8  12
BRANCH  10  15
ATOM     15  C   UNL     1      -1.010  -0.036  26.999  0.00  0.00    +0.105 C 
BRANCH  15  23
ATOM      1  O   UNL     1      -2.440  -1.647  25.852  0.00  0.00    -0.425 OA
ATOM      5  N   UNL     1      -0.287  -1.743  25.250  0.00  0.00    -0.112 NA
ATOM      6  N   UNL     1      -0.975  -2.701  24.529  0.00  0.00    -0.112 NA
ATOM     23  C   UNL     1      -1.181  -1.153  26.009  0.00  0.00    +0.218 A 
ATOM     26  C   UNL     1      -2.227  -2.609  24.913  0.00  0.00    +0.217 A 
BRANCH  26  27
ATOM     27  C   UNL     1      -3.398  -3.379  24.476  0.00  0.00    +0.097 C 
BRANCH  27  28
ATOM     28  C   UNL     1      -4.277  -2.619  23.458  0.00  0.00    +0.006 C 
ATOM     30  C   UNL     1      -4.628  -1.214  23.920  0.00  0.00    +0.004 C 
ENDBRANCH  27  28
ENDBRANCH  26  27
ENDBRANCH  15  23
ENDBRANCH  10  15
TORSDOF 10
ENDMDL
MODEL 8
REMARK VINA RESULT:       0.7      2.371      4.682
REMARK  Name = 45784034
REMARK  15 active torsions:
REMARK  status: ('A' for Active; 'I' for Inactive)
REMARK    1  A    between atoms: O_2  and  C_25
REMARK    2  A    between atoms: O_2  and  C_29
REMARK    3  A    between atoms: N_3  and  C_12
REMARK    4  A    between atoms: N_4  and  C_24
REMARK    5  A    between atoms: C_7  and  C_11
REMARK    6  A    between atoms: C_8  and  C_12
REMARK    7  A    between atoms: C_10  and  C_15
REMARK    8  A    between atoms: C_11  and  C_18
REMARK    9  A    between atoms: C_11  and  C_19
REMARK   10  A    between atoms: C_14  and  C_22
REMARK   11  A    between atoms: C_15  and  C_23
REMARK   12  A    between atoms: C_24  and  C_25
REMARK   13  A    between atoms: C_26  and  C_27
REMARK   14  A    between atoms: C_27  and  C_28
REMARK   15  A    between atoms: C_28  and  C_30
REMARK                            x       y       z     vdW  Elec       q    Type
REMARK                         _______ _______ _______ _____ _____    ______ ____
ROOT
ATOM      7  C   UNL     1      -2.376   2.749  24.225  0.00  0.00    +0.000 C 
ATOM      8  C   UNL     1      -1.198   1.771  24.437  0.00  0.00    +0.029 C 
ATOM      9  C   UNL     1      -3.686   1.977  24.016  0.00  0.00    +0.012 C 
ATOM     10  C   UNL     1      -4.021   1.015  25.177  0.00  0.00    +0.024 C 
ATOM     13  C   UNL     1      -1.545   0.641  25.373  0.00  0.00    -0.023 C 
ATOM     14  C   UNL     1      -2.798   0.296  25.725  0.00  0.00    -0.073 C 
ATOM     22  C   UNL     1      -3.027  -0.795  26.735  0.00  0.00    +0.039 C 
ENDROOT
BRANCH   7  11
ATOM     11  C   UNL     1      -2.497   3.741  25.391  0.00  0.00    -0.013 C 
ATOM     18  C   UNL     1      -1.563   4.929  25.176  0.00  0.00    +0.007 C 
ATOM     19  C   UNL     1      -3.941   4.209  25.545  0.00  0.00    +0.007 C 
ENDBRANCH   7  11
BRANCH   8  12
ATOM     12  C   UNL     1      -0.699   1.191  23.110  0.00  0.00    +0.092 C 
BRANCH  12   3
ATOM      3  N   UNL     1       0.689   0.746  23.230  0.00  0.00    -0.299 NA
ATOM      4  N   UNL     1       3.458   0.698  22.402  0.00  0.00    -0.298 NA
ATOM     16  C   UNL     1       1.111   0.025  22.023  0.00  0.00    +0.100 C 
ATOM     17  C   UNL     1       1.581   1.882  23.487  0.00  0.00    +0.100 C 
ATOM     20  C   UNL     1       2.566  -0.440  22.146  0.00  0.00    +0.100 C 
ATOM     21  C   UNL     1       3.036   1.418  23.610  0.00  0.00    +0.100 C 
BRANCH   4  24
ATOM     24  C   UNL     1       4.845   0.254  22.520  0.00  0.00    +0.112 C 
BRANCH  24  25
ATOM     25  C   UNL     1       5.355   0.455  23.937  0.00  0.00    +0.174 C 
BRANCH  25   2
ATOM      2  O   UNL     1       5.733  -0.809  24.470  0.00  0.00    -0.382 OA
ATOM     29  C   UNL     1       4.870  -1.844  24.018  0.00  0.00    +0.194 C 
ENDBRANCH  25   2
ENDBRANCH  24  25
ENDBRANCH   4  24
ENDBRANCH  12   3
ENDBRANCH   8  12
BRANCH  10  15
ATOM     15  C   UNL     1      -5.121   0.052  24.713  0.00  0.00    +0.105 C 
BRANCH  15  23
ATOM      1  O   UNL     1      -3.197  -1.411  24.370  0.00  0.00    -0.425 OA
ATOM      5  N   UNL     1      -5.155  -2.317  23.777  0.00  0.00    -0.112 NA
ATOM      6  N   UNL     1      -4.162  -3.247  23.532  0.00  0.00    -0.112 NA
ATOM     23  C   UNL     1      -4.547  -1.261  24.265  0.00  0.00    +0.218 A 
ATOM     26  C   UNL     1      -3.037  -2.675  23.892  0.00  0.00    +0.217 A 
BRANCH  26  27
ATOM     27  C   UNL     1      -1.666  -3.200  23.855  0.00  0.00    +0.097 C 
BRANCH  27  28
ATOM     28  C   UNL     1      -0.605  -2.151  24.251  0.00  0.00    +0.006 C 
ATOM     30  C   UNL     1       0.112  -2.501  25.545  0.00  0.00    +0.004 C 
ENDBRANCH  27  28
ENDBRANCH  26  27
ENDBRANCH  15  23
ENDBRANCH  10  15
TORSDOF 10
ENDMDL
