MODEL 1
REMARK VINA RESULT:      -3.6      0.000      0.000
REMARK  Name = 56774179
REMARK  8 active torsions:
REMARK  status: ('A' for Active; 'I' for Inactive)
REMARK    1  A    between atoms: N_3  and  C_7
REMARK    2  A    between atoms: C_5  and  C_10
REMARK    3  A    between atoms: C_5  and  C_11
REMARK    4  A    between atoms: C_6  and  C_9
REMARK    5  A    between atoms: C_9  and  C_14
REMARK    6  A    between atoms: C_12  and  C_13
REMARK    7  A    between atoms: C_19  and  C_20
REMARK    8  A    between atoms: C_20  and  C_21
REMARK                            x       y       z     vdW  Elec       q    Type
REMARK                         _______ _______ _______ _____ _____    ______ ____
ROOT
ATOM      5  C   UNL     1      -1.038   3.898  24.702  0.00  0.00    -0.013 C 
ATOM      6  C   UNL     1       0.172   3.083  25.203  0.00  0.00    +0.004 C 
ATOM      7  C   UNL     1      -1.797   3.394  25.947  0.00  0.00    +0.079 C 
ATOM      8  C   UNL     1      -0.839   2.184  25.946  0.00  0.00    +0.027 C 
ATOM     10  C   UNL     1      -0.779   5.387  24.635  0.00  0.00    +0.013 C 
ATOM     11  C   UNL     1      -1.662   3.422  23.402  0.00  0.00    +0.013 C 
ENDROOT
BRANCH   7   3
ATOM      1  O   UNL     1      -4.096   5.061  26.383  0.00  0.00    -0.276 OA
ATOM      3  N   UNL     1      -3.203   3.031  25.730  0.00  0.00    -0.312 N 
ATOM     13  C   UNL     1      -4.256   3.909  25.971  0.00  0.00    +0.216 C 
ATOM     27  H   UNL     1      -3.438   2.099  25.397  0.00  0.00    +0.149 HD
BRANCH  13  12
ATOM     12  C   UNL     1      -5.635   3.292  25.671  0.00  0.00    +0.075 C 
ATOM     15  C   UNL     1      -6.075   2.090  26.531  0.00  0.00    +0.013 C 
ATOM     16  C   UNL     1      -5.743   2.360  24.447  0.00  0.00    +0.013 C 
ATOM     17  C   UNL     1      -6.758   1.533  25.264  0.00  0.00    +0.001 C 
ENDBRANCH  13  12
ENDBRANCH   7   3
BRANCH   6   9
ATOM      9  C   UNL     1       1.021   2.363  24.147  0.00  0.00    +0.063 C 
BRANCH   9  14
ATOM      2  O   UNL     1       0.553  -1.060  23.245  0.00  0.00    -0.359 OA
ATOM      4  N   UNL     1       1.023   0.223  22.995  0.00  0.00    -0.083 NA
ATOM     14  C   UNL     1       0.674   0.935  24.070  0.00  0.00    +0.084 A 
ATOM     18  C   UNL     1      -0.012   0.162  25.023  0.00  0.00    +0.071 A 
ATOM     21  C   UNL     1      -0.062  -1.084  24.456  0.00  0.00    +0.138 A 
BRANCH  21  20
ATOM     20  C   UNL     1      -0.635  -2.405  24.892  0.00  0.00    +0.080 C 
BRANCH  20  19
ATOM     19  C   UNL     1      -2.152  -2.290  25.029  0.00  0.00    -0.004 C 
ATOM     22  C   UNL     1      -2.850  -2.754  23.744  0.00  0.00    +0.004 C 
ATOM     23  C   UNL     1      -2.557  -0.852  25.382  0.00  0.00    +0.004 C 
ATOM     24  C   UNL     1      -4.365  -2.598  23.836  0.00  0.00    +0.000 C 
ATOM     25  C   UNL     1      -4.074  -0.700  25.473  0.00  0.00    +0.000 C 
ATOM     26  C   UNL     1      -4.764  -1.169  24.196  0.00  0.00    +0.000 C 
ENDBRANCH  20  19
ENDBRANCH  21  20
ENDBRANCH   9  14
ENDBRANCH   6   9
TORSDOF 6
ENDMDL
MODEL 2
REMARK VINA RESULT:      -3.4      1.648      6.874
REMARK  Name = 56774179
REMARK  8 active torsions:
REMARK  status: ('A' for Active; 'I' for Inactive)
REMARK    1  A    between atoms: N_3  and  C_7
REMARK    2  A    between atoms: C_5  and  C_10
REMARK    3  A    between atoms: C_5  and  C_11
REMARK    4  A    between atoms: C_6  and  C_9
REMARK    5  A    between atoms: C_9  and  C_14
REMARK    6  A    between atoms: C_12  and  C_13
REMARK    7  A    between atoms: C_19  and  C_20
REMARK    8  A    between atoms: C_20  and  C_21
REMARK                            x       y       z     vdW  Elec       q    Type
REMARK                         _______ _______ _______ _____ _____    ______ ____
ROOT
ATOM      5  C   UNL     1      -3.654  -1.049  24.098  0.00  0.00    -0.013 C 
ATOM      6  C   UNL     1      -4.277  -0.577  25.429  0.00  0.00    +0.004 C 
ATOM      7  C   UNL     1      -2.277  -0.877  24.770  0.00  0.00    +0.079 C 
ATOM      8  C   UNL     1      -2.945   0.154  25.703  0.00  0.00    +0.027 C 
ATOM     10  C   UNL     1      -4.041  -2.461  23.718  0.00  0.00    +0.013 C 
ATOM     11  C   UNL     1      -3.848  -0.122  22.912  0.00  0.00    +0.013 C 
ENDROOT
BRANCH   7   3
ATOM      1  O   UNL     1       0.483  -1.673  24.677  0.00  0.00    -0.276 OA
ATOM      3  N   UNL     1      -1.222  -0.307  23.922  0.00  0.00    -0.312 N 
ATOM     13  C   UNL     1       0.094  -0.759  23.945  0.00  0.00    +0.216 C 
ATOM     27  H   UNL     1      -1.444   0.457  23.287  0.00  0.00    +0.149 HD
BRANCH  13  12
ATOM     12  C   UNL     1       1.009   0.001  22.967  0.00  0.00    +0.075 C 
ATOM     15  C   UNL     1       1.315  -0.673  21.613  0.00  0.00    +0.013 C 
ATOM     16  C   UNL     1       2.527  -0.037  23.241  0.00  0.00    +0.013 C 
ATOM     17  C   UNL     1       2.725  -0.055  21.712  0.00  0.00    +0.001 C 
ENDBRANCH  13  12
ENDBRANCH   7   3
BRANCH   6   9
ATOM      9  C   UNL     1      -5.507   0.337  25.344  0.00  0.00    +0.063 C 
BRANCH   9  14
ATOM      2  O   UNL     1      -5.335   3.825  26.090  0.00  0.00    -0.359 OA
ATOM      4  N   UNL     1      -5.994   2.602  26.080  0.00  0.00    -0.083 NA
ATOM     14  C   UNL     1      -5.133   1.750  25.516  0.00  0.00    +0.084 A 
ATOM     18  C   UNL     1      -3.926   2.372  25.154  0.00  0.00    +0.071 A 
ATOM     21  C   UNL     1      -4.105   3.675  25.536  0.00  0.00    +0.138 A 
BRANCH  21  20
ATOM     20  C   UNL     1      -3.246   4.909  25.464  0.00  0.00    +0.080 C 
BRANCH  20  19
ATOM     19  C   UNL     1      -1.771   4.511  25.438  0.00  0.00    -0.004 C 
ATOM     22  C   UNL     1      -1.349   4.087  24.025  0.00  0.00    +0.004 C 
ATOM     23  C   UNL     1      -1.494   3.391  26.451  0.00  0.00    +0.004 C 
ATOM     24  C   UNL     1       0.108   3.634  23.984  0.00  0.00    +0.000 C 
ATOM     25  C   UNL     1      -0.035   2.940  26.405  0.00  0.00    +0.000 C 
ATOM     26  C   UNL     1       0.382   2.527  24.997  0.00  0.00    +0.000 C 
ENDBRANCH  20  19
ENDBRANCH  21  20
ENDBRANCH   9  14
ENDBRANCH   6   9
TORSDOF 6
ENDMDL
MODEL 3
REMARK VINA RESULT:      -3.3      1.635      5.036
REMARK  Name = 56774179
REMARK  8 active torsions:
REMARK  status: ('A' for Active; 'I' for Inactive)
REMARK    1  A    between atoms: N_3  and  C_7
REMARK    2  A    between atoms: C_5  and  C_10
REMARK    3  A    between atoms: C_5  and  C_11
REMARK    4  A    between atoms: C_6  and  C_9
REMARK    5  A    between atoms: C_9  and  C_14
REMARK    6  A    between atoms: C_12  and  C_13
REMARK    7  A    between atoms: C_19  and  C_20
REMARK    8  A    between atoms: C_20  and  C_21
REMARK                            x       y       z     vdW  Elec       q    Type
REMARK                         _______ _______ _______ _____ _____    ______ ____
ROOT
ATOM      5  C   UNL     1      -3.205  -2.240  25.023  0.00  0.00    -0.013 C 
ATOM      6  C   UNL     1      -1.975  -2.258  24.092  0.00  0.00    +0.004 C 
ATOM      7  C   UNL     1      -3.958  -1.518  23.886  0.00  0.00    +0.079 C 
ATOM      8  C   UNL     1      -2.582  -1.025  23.391  0.00  0.00    +0.027 C 
ATOM     10  C   UNL     1      -3.709  -3.619  25.387  0.00  0.00    +0.013 C 
ATOM     11  C   UNL     1      -3.075  -1.389  26.273  0.00  0.00    +0.013 C 
ENDROOT
BRANCH   7   3
ATOM      1  O   UNL     1      -3.486   1.307  23.643  0.00  0.00    -0.276 OA
ATOM      3  N   UNL     1      -4.856  -0.434  24.307  0.00  0.00    -0.312 N 
ATOM     13  C   UNL     1      -4.541   0.913  24.148  0.00  0.00    +0.216 C 
ATOM     27  H   UNL     1      -5.749  -0.658  24.740  0.00  0.00    +0.149 HD
BRANCH  13  12
ATOM     12  C   UNL     1      -5.642   1.855  24.670  0.00  0.00    +0.075 C 
ATOM     15  C   UNL     1      -5.307   3.358  24.757  0.00  0.00    +0.013 C 
ATOM     16  C   UNL     1      -5.874   1.897  26.195  0.00  0.00    +0.013 C 
ATOM     17  C   UNL     1      -6.179   3.400  26.029  0.00  0.00    +0.001 C 
ENDBRANCH  13  12
ENDBRANCH   7   3
BRANCH   6   9
ATOM      9  C   UNL     1      -0.602  -2.022  24.737  0.00  0.00    +0.063 C 
BRANCH   9  14
ATOM      2  O   UNL     1       1.111   0.789  23.354  0.00  0.00    -0.359 OA
ATOM      4  N   UNL     1       0.838  -0.571  23.422  0.00  0.00    -0.083 NA
ATOM     14  C   UNL     1      -0.075  -0.692  24.391  0.00  0.00    +0.084 A 
ATOM     18  C   UNL     1      -0.413   0.545  24.965  0.00  0.00    +0.071 A 
ATOM     21  C   UNL     1       0.360   1.444  24.278  0.00  0.00    +0.138 A 
BRANCH  21  20
ATOM     20  C   UNL     1       0.529   2.938  24.345  0.00  0.00    +0.080 C 
BRANCH  20  19
ATOM     19  C   UNL     1      -0.821   3.598  24.619  0.00  0.00    -0.004 C 
ATOM     22  C   UNL     1      -0.680   5.125  24.654  0.00  0.00    +0.004 C 
ATOM     23  C   UNL     1      -1.424   3.074  25.930  0.00  0.00    +0.004 C 
ATOM     24  C   UNL     1      -2.007   5.807  24.980  0.00  0.00    +0.000 C 
ATOM     25  C   UNL     1      -2.751   3.759  26.253  0.00  0.00    +0.000 C 
ATOM     26  C   UNL     1      -2.608   5.278  26.279  0.00  0.00    +0.000 C 
ENDBRANCH  20  19
ENDBRANCH  21  20
ENDBRANCH   9  14
ENDBRANCH   6   9
TORSDOF 6
ENDMDL
MODEL 4
REMARK VINA RESULT:      -3.3      1.884      5.228
REMARK  Name = 56774179
REMARK  8 active torsions:
REMARK  status: ('A' for Active; 'I' for Inactive)
REMARK    1  A    between atoms: N_3  and  C_7
REMARK    2  A    between atoms: C_5  and  C_10
REMARK    3  A    between atoms: C_5  and  C_11
REMARK    4  A    between atoms: C_6  and  C_9
REMARK    5  A    between atoms: C_9  and  C_14
REMARK    6  A    between atoms: C_12  and  C_13
REMARK    7  A    between atoms: C_19  and  C_20
REMARK    8  A    between atoms: C_20  and  C_21
REMARK                            x       y       z     vdW  Elec       q    Type
REMARK                         _______ _______ _______ _____ _____    ______ ____
ROOT
ATOM      5  C   UNL     1      -1.965   4.253  24.934  0.00  0.00    -0.013 C 
ATOM      6  C   UNL     1      -3.389   4.160  24.348  0.00  0.00    +0.004 C 
ATOM      7  C   UNL     1      -1.458   3.684  23.593  0.00  0.00    +0.079 C 
ATOM      8  C   UNL     1      -2.853   3.046  23.424  0.00  0.00    +0.027 C 
ATOM     10  C   UNL     1      -1.538   5.667  25.264  0.00  0.00    +0.013 C 
ATOM     11  C   UNL     1      -1.672   3.337  26.108  0.00  0.00    +0.013 C 
ENDROOT
BRANCH   7   3
ATOM      1  O   UNL     1      -1.560   0.913  22.838  0.00  0.00    -0.276 OA
ATOM      3  N   UNL     1      -0.370   2.703  23.689  0.00  0.00    -0.312 N 
ATOM     13  C   UNL     1      -0.512   1.375  23.297  0.00  0.00    +0.216 C 
ATOM     27  H   UNL     1       0.533   2.987  24.062  0.00  0.00    +0.149 HD
BRANCH  13  12
ATOM     12  C   UNL     1       0.770   0.546  23.500  0.00  0.00    +0.075 C 
ATOM     15  C   UNL     1       2.118   1.291  23.404  0.00  0.00    +0.013 C 
ATOM     16  C   UNL     1       1.251  -0.317  22.314  0.00  0.00    +0.013 C 
ATOM     17  C   UNL     1       2.691   0.012  22.759  0.00  0.00    +0.001 C 
ENDBRANCH  13  12
ENDBRANCH   7   3
BRANCH   6   9
ATOM      9  C   UNL     1      -4.513   3.725  25.297  0.00  0.00    +0.063 C 
BRANCH   9  14
ATOM      2  O   UNL     1      -6.161   0.590  24.841  0.00  0.00    -0.359 OA
ATOM      4  N   UNL     1      -6.168   1.958  25.079  0.00  0.00    -0.083 NA
ATOM     14  C   UNL     1      -4.882   2.318  25.074  0.00  0.00    +0.084 A 
ATOM     18  C   UNL     1      -4.024   1.228  24.841  0.00  0.00    +0.071 A 
ATOM     21  C   UNL     1      -4.878   0.167  24.701  0.00  0.00    +0.138 A 
BRANCH  21  20
ATOM     20  C   UNL     1      -4.680  -1.301  24.435  0.00  0.00    +0.080 C 
BRANCH  20  19
ATOM     19  C   UNL     1      -3.378  -1.772  25.079  0.00  0.00    -0.004 C 
ATOM     22  C   UNL     1      -2.682  -0.613  25.805  0.00  0.00    +0.004 C 
ATOM     23  C   UNL     1      -2.449  -2.395  24.028  0.00  0.00    +0.004 C 
ATOM     24  C   UNL     1      -1.350  -1.046  26.412  0.00  0.00    +0.000 C 
ATOM     25  C   UNL     1      -1.117  -2.827  24.639  0.00  0.00    +0.000 C 
ATOM     26  C   UNL     1      -0.432  -1.673  25.366  0.00  0.00    +0.000 C 
ENDBRANCH  20  19
ENDBRANCH  21  20
ENDBRANCH   9  14
ENDBRANCH   6   9
TORSDOF 6
ENDMDL
MODEL 5
REMARK VINA RESULT:      -3.2      2.507      7.168
REMARK  Name = 56774179
REMARK  8 active torsions:
REMARK  status: ('A' for Active; 'I' for Inactive)
REMARK    1  A    between atoms: N_3  and  C_7
REMARK    2  A    between atoms: C_5  and  C_10
REMARK    3  A    between atoms: C_5  and  C_11
REMARK    4  A    between atoms: C_6  and  C_9
REMARK    5  A    between atoms: C_9  and  C_14
REMARK    6  A    between atoms: C_12  and  C_13
REMARK    7  A    between atoms: C_19  and  C_20
REMARK    8  A    between atoms: C_20  and  C_21
REMARK                            x       y       z     vdW  Elec       q    Type
REMARK                         _______ _______ _______ _____ _____    ______ ____
ROOT
ATOM      5  C   UNL     1      -1.243  -0.020  23.783  0.00  0.00    -0.013 C 
ATOM      6  C   UNL     1      -2.086  -1.300  23.960  0.00  0.00    +0.004 C 
ATOM      7  C   UNL     1      -0.106  -0.930  23.275  0.00  0.00    +0.079 C 
ATOM      8  C   UNL     1      -0.753  -2.066  24.095  0.00  0.00    +0.027 C 
ATOM     10  C   UNL     1      -1.822   0.951  22.777  0.00  0.00    +0.013 C 
ATOM     11  C   UNL     1      -0.880   0.715  25.061  0.00  0.00    +0.013 C 
ENDROOT
BRANCH   7   3
ATOM      1  O   UNL     1       2.104  -0.109  21.632  0.00  0.00    -0.276 OA
ATOM      3  N   UNL     1       1.244  -0.573  23.728  0.00  0.00    -0.312 N 
ATOM     13  C   UNL     1       2.257  -0.185  22.855  0.00  0.00    +0.216 C 
ATOM     27  H   UNL     1       1.470  -0.610  24.720  0.00  0.00    +0.149 HD
BRANCH  13  12
ATOM     12  C   UNL     1       3.582   0.135  23.572  0.00  0.00    +0.075 C 
ATOM     15  C   UNL     1       4.699   0.794  22.737  0.00  0.00    +0.013 C 
ATOM     16  C   UNL     1       4.558  -1.036  23.813  0.00  0.00    +0.013 C 
ATOM     17  C   UNL     1       5.702  -0.030  23.572  0.00  0.00    +0.001 C 
ENDBRANCH  13  12
ENDBRANCH   7   3
BRANCH   6   9
ATOM      9  C   UNL     1      -3.000  -1.375  25.190  0.00  0.00    +0.063 C 
BRANCH   9  14
ATOM      2  O   UNL     1      -5.909   0.643  24.730  0.00  0.00    -0.359 OA
ATOM      4  N   UNL     1      -5.200  -0.542  24.580  0.00  0.00    -0.083 NA
ATOM     14  C   UNL     1      -4.019  -0.314  25.162  0.00  0.00    +0.084 A 
ATOM     18  C   UNL     1      -3.926   0.985  25.691  0.00  0.00    +0.071 A 
ATOM     21  C   UNL     1      -5.140   1.545  25.393  0.00  0.00    +0.138 A 
BRANCH  21  20
ATOM     20  C   UNL     1      -5.755   2.895  25.646  0.00  0.00    +0.080 C 
BRANCH  20  19
ATOM     19  C   UNL     1      -4.711   3.987  25.423  0.00  0.00    -0.004 C 
ATOM     22  C   UNL     1      -4.031   3.819  24.059  0.00  0.00    +0.004 C 
ATOM     23  C   UNL     1      -3.674   3.984  26.555  0.00  0.00    +0.004 C 
ATOM     24  C   UNL     1      -2.946   4.868  23.835  0.00  0.00    +0.000 C 
ATOM     25  C   UNL     1      -2.589   5.035  26.328  0.00  0.00    +0.000 C 
ATOM     26  C   UNL     1      -1.921   4.868  24.966  0.00  0.00    +0.000 C 
ENDBRANCH  20  19
ENDBRANCH  21  20
ENDBRANCH   9  14
ENDBRANCH   6   9
TORSDOF 6
ENDMDL
MODEL 6
REMARK VINA RESULT:      -3.1      2.246      5.000
REMARK  Name = 56774179
REMARK  8 active torsions:
REMARK  status: ('A' for Active; 'I' for Inactive)
REMARK    1  A    between atoms: N_3  and  C_7
REMARK    2  A    between atoms: C_5  and  C_10
REMARK    3  A    between atoms: C_5  and  C_11
REMARK    4  A    between atoms: C_6  and  C_9
REMARK    5  A    between atoms: C_9  and  C_14
REMARK    6  A    between atoms: C_12  and  C_13
REMARK    7  A    between atoms: C_19  and  C_20
REMARK    8  A    between atoms: C_20  and  C_21
REMARK                            x       y       z     vdW  Elec       q    Type
REMARK                         _______ _______ _______ _____ _____    ______ ____
ROOT
ATOM      5  C   UNL     1      -0.164  -0.267  23.752  0.00  0.00    -0.013 C 
ATOM      6  C   UNL     1      -0.466  -1.485  24.650  0.00  0.00    +0.004 C 
ATOM      7  C   UNL     1       0.197   0.499  25.041  0.00  0.00    +0.079 C 
ATOM      8  C   UNL     1      -0.732  -0.480  25.791  0.00  0.00    +0.027 C 
ATOM     10  C   UNL     1       0.967  -0.502  22.775  0.00  0.00    +0.013 C 
ATOM     11  C   UNL     1      -1.357   0.332  23.028  0.00  0.00    +0.013 C 
ENDROOT
BRANCH   7   3
ATOM      1  O   UNL     1       0.830   2.434  27.068  0.00  0.00    -0.276 OA
ATOM      3  N   UNL     1      -0.252   1.896  25.097  0.00  0.00    -0.312 N 
ATOM     13  C   UNL     1       0.107   2.765  26.124  0.00  0.00    +0.216 C 
ATOM     27  H   UNL     1      -0.857   2.261  24.366  0.00  0.00    +0.149 HD
BRANCH  13  12
ATOM     12  C   UNL     1      -0.492   4.174  25.959  0.00  0.00    +0.075 C 
ATOM     15  C   UNL     1      -2.030   4.290  25.928  0.00  0.00    +0.013 C 
ATOM     16  C   UNL     1      -0.494   4.781  24.540  0.00  0.00    +0.013 C 
ATOM     17  C   UNL     1      -1.846   5.429  24.904  0.00  0.00    +0.001 C 
ENDBRANCH  13  12
ENDBRANCH   7   3
BRANCH   6   9
ATOM      9  C   UNL     1      -1.668  -2.359  24.269  0.00  0.00    +0.063 C 
BRANCH   9  14
ATOM      2  O   UNL     1      -4.968  -1.011  24.073  0.00  0.00    -0.359 OA
ATOM      4  N   UNL     1      -3.947  -1.831  23.611  0.00  0.00    -0.083 NA
ATOM     14  C   UNL     1      -2.934  -1.634  24.459  0.00  0.00    +0.084 A 
ATOM     18  C   UNL     1      -3.254  -0.708  25.467  0.00  0.00    +0.071 A 
ATOM     21  C   UNL     1      -4.543  -0.346  25.178  0.00  0.00    +0.138 A 
BRANCH  21  20
ATOM     20  C   UNL     1      -5.529   0.595  25.817  0.00  0.00    +0.080 C 
BRANCH  20  19
ATOM     19  C   UNL     1      -5.578   1.903  25.030  0.00  0.00    -0.004 C 
ATOM     22  C   UNL     1      -4.351   2.034  24.118  0.00  0.00    +0.004 C 
ATOM     23  C   UNL     1      -5.683   3.104  25.981  0.00  0.00    +0.004 C 
ATOM     24  C   UNL     1      -4.351   3.359  23.360  0.00  0.00    +0.000 C 
ATOM     25  C   UNL     1      -5.681   4.428  25.219  0.00  0.00    +0.000 C 
ATOM     26  C   UNL     1      -4.464   4.550  24.307  0.00  0.00    +0.000 C 
ENDBRANCH  20  19
ENDBRANCH  21  20
ENDBRANCH   9  14
ENDBRANCH   6   9
TORSDOF 6
ENDMDL
MODEL 7
REMARK VINA RESULT:      -3.0      2.404      4.940
REMARK  Name = 56774179
REMARK  8 active torsions:
REMARK  status: ('A' for Active; 'I' for Inactive)
REMARK    1  A    between atoms: N_3  and  C_7
REMARK    2  A    between atoms: C_5  and  C_10
REMARK    3  A    between atoms: C_5  and  C_11
REMARK    4  A    between atoms: C_6  and  C_9
REMARK    5  A    between atoms: C_9  and  C_14
REMARK    6  A    between atoms: C_12  and  C_13
REMARK    7  A    between atoms: C_19  and  C_20
REMARK    8  A    between atoms: C_20  and  C_21
REMARK                            x       y       z     vdW  Elec       q    Type
REMARK                         _______ _______ _______ _____ _____    ______ ____
ROOT
ATOM      5  C   UNL     1      -3.406   3.295  24.199  0.00  0.00    -0.013 C 
ATOM      6  C   UNL     1      -2.324   3.949  25.082  0.00  0.00    +0.004 C 
ATOM      7  C   UNL     1      -3.874   2.543  25.462  0.00  0.00    +0.079 C 
ATOM      8  C   UNL     1      -2.440   2.716  26.004  0.00  0.00    +0.027 C 
ATOM     10  C   UNL     1      -4.386   4.285  23.610  0.00  0.00    +0.013 C 
ATOM     11  C   UNL     1      -2.899   2.361  23.115  0.00  0.00    +0.013 C 
ENDROOT
BRANCH   7   3
ATOM      1  O   UNL     1      -2.175   0.235  25.671  0.00  0.00    -0.276 OA
ATOM      3  N   UNL     1      -4.262   1.141  25.261  0.00  0.00    -0.312 N 
ATOM     13  C   UNL     1      -3.365   0.083  25.384  0.00  0.00    +0.216 C 
ATOM     27  H   UNL     1      -5.223   0.914  25.014  0.00  0.00    +0.149 HD
BRANCH  13  12
ATOM     12  C   UNL     1      -4.013  -1.289  25.121  0.00  0.00    +0.075 C 
ATOM     15  C   UNL     1      -3.088  -2.523  25.130  0.00  0.00    +0.013 C 
ATOM     16  C   UNL     1      -4.348  -1.646  23.658  0.00  0.00    +0.013 C 
ATOM     17  C   UNL     1      -3.976  -3.102  24.010  0.00  0.00    +0.001 C 
ENDBRANCH  13  12
ENDBRANCH   7   3
BRANCH   6   9
ATOM      9  C   UNL     1      -0.938   4.158  24.457  0.00  0.00    +0.063 C 
BRANCH   9  14
ATOM      2  O   UNL     1       1.078   1.238  24.852  0.00  0.00    -0.359 OA
ATOM      4  N   UNL     1       0.569   2.449  25.303  0.00  0.00    -0.083 NA
ATOM     14  C   UNL     1      -0.221   2.881  24.316  0.00  0.00    +0.084 A 
ATOM     18  C   UNL     1      -0.248   1.993  23.226  0.00  0.00    +0.071 A 
ATOM     21  C   UNL     1       0.585   0.978  23.614  0.00  0.00    +0.138 A 
BRANCH  21  20
ATOM     20  C   UNL     1       1.035  -0.305  22.967  0.00  0.00    +0.080 C 
BRANCH  20  19
ATOM     19  C   UNL     1       2.548  -0.279  22.768  0.00  0.00    -0.004 C 
ATOM     22  C   UNL     1       3.244  -1.204  23.775  0.00  0.00    +0.004 C 
ATOM     23  C   UNL     1       3.086   1.154  22.880  0.00  0.00    +0.004 C 
ATOM     24  C   UNL     1       4.763  -1.156  23.632  0.00  0.00    +0.000 C 
ATOM     25  C   UNL     1       4.606   1.199  22.737  0.00  0.00    +0.000 C 
ATOM     26  C   UNL     1       5.292   0.272  23.735  0.00  0.00    +0.000 C 
ENDBRANCH  20  19
ENDBRANCH  21  20
ENDBRANCH   9  14
ENDBRANCH   6   9
TORSDOF 6
ENDMDL
MODEL 8
REMARK VINA RESULT:      -2.8      2.277      5.020
REMARK  Name = 56774179
REMARK  8 active torsions:
REMARK  status: ('A' for Active; 'I' for Inactive)
REMARK    1  A    between atoms: N_3  and  C_7
REMARK    2  A    between atoms: C_5  and  C_10
REMARK    3  A    between atoms: C_5  and  C_11
REMARK    4  A    between atoms: C_6  and  C_9
REMARK    5  A    between atoms: C_9  and  C_14
REMARK    6  A    between atoms: C_12  and  C_13
REMARK    7  A    between atoms: C_19  and  C_20
REMARK    8  A    between atoms: C_20  and  C_21
REMARK                            x       y       z     vdW  Elec       q    Type
REMARK                         _______ _______ _______ _____ _____    ______ ____
ROOT
ATOM      5  C   UNL     1      -2.304   4.767  25.242  0.00  0.00    -0.013 C 
ATOM      6  C   UNL     1      -2.845   4.052  23.986  0.00  0.00    +0.004 C 
ATOM      7  C   UNL     1      -1.060   3.863  25.127  0.00  0.00    +0.079 C 
ATOM      8  C   UNL     1      -1.957   2.853  24.379  0.00  0.00    +0.027 C 
ATOM     10  C   UNL     1      -2.074   6.249  25.042  0.00  0.00    +0.013 C 
ATOM     11  C   UNL     1      -3.084   4.532  26.523  0.00  0.00    +0.013 C 
ENDROOT
BRANCH   7   3
ATOM      1  O   UNL     1       1.053   1.944  25.462  0.00  0.00    -0.276 OA
ATOM      3  N   UNL     1      -0.527   3.350  26.395  0.00  0.00    -0.312 N 
ATOM     13  C   UNL     1       0.503   2.416  26.461  0.00  0.00    +0.216 C 
ATOM     27  H   UNL     1      -0.921   3.675  27.276  0.00  0.00    +0.149 HD
BRANCH  13  12
ATOM     12  C   UNL     1       0.880   2.035  27.904  0.00  0.00    +0.075 C 
ATOM     15  C   UNL     1       0.122   2.744  29.045  0.00  0.00    +0.013 C 
ATOM     16  C   UNL     1       2.172   2.649  28.485  0.00  0.00    +0.013 C 
ATOM     17  C   UNL     1       1.442   2.705  29.843  0.00  0.00    +0.001 C 
ENDBRANCH  13  12
ENDBRANCH   7   3
BRANCH   6   9
ATOM      9  C   UNL     1      -4.350   3.752  23.941  0.00  0.00    +0.063 C 
BRANCH   9  14
ATOM      2  O   UNL     1      -5.543   0.736  25.433  0.00  0.00    -0.359 OA
ATOM      4  N   UNL     1      -5.526   2.118  25.303  0.00  0.00    -0.083 NA
ATOM     14  C   UNL     1      -4.627   2.365  24.346  0.00  0.00    +0.084 A 
ATOM     18  C   UNL     1      -4.049   1.187  23.840  0.00  0.00    +0.071 A 
ATOM     21  C   UNL     1      -4.659   0.192  24.557  0.00  0.00    +0.138 A 
BRANCH  21  20
ATOM     20  C   UNL     1      -4.546  -1.308  24.560  0.00  0.00    +0.080 C 
BRANCH  20  19
ATOM     19  C   UNL     1      -3.204  -1.724  25.160  0.00  0.00    -0.004 C 
ATOM     22  C   UNL     1      -2.483  -0.513  25.767  0.00  0.00    +0.004 C 
ATOM     23  C   UNL     1      -2.327  -2.409  24.102  0.00  0.00    +0.004 C 
ATOM     24  C   UNL     1      -1.114  -0.894  26.326  0.00  0.00    +0.000 C 
ATOM     25  C   UNL     1      -0.958  -2.787  24.665  0.00  0.00    +0.000 C 
ATOM     26  C   UNL     1      -0.248  -1.582  25.275  0.00  0.00    +0.000 C 
ENDBRANCH  20  19
ENDBRANCH  21  20
ENDBRANCH   9  14
ENDBRANCH   6   9
TORSDOF 6
ENDMDL
MODEL 9
REMARK VINA RESULT:      -0.6      1.594      4.932
REMARK  Name = 56774179
REMARK  8 active torsions:
REMARK  status: ('A' for Active; 'I' for Inactive)
REMARK    1  A    between atoms: N_3  and  C_7
REMARK    2  A    between atoms: C_5  and  C_10
REMARK    3  A    between atoms: C_5  and  C_11
REMARK    4  A    between atoms: C_6  and  C_9
REMARK    5  A    between atoms: C_9  and  C_14
REMARK    6  A    between atoms: C_12  and  C_13
REMARK    7  A    between atoms: C_19  and  C_20
REMARK    8  A    between atoms: C_20  and  C_21
REMARK                            x       y       z     vdW  Elec       q    Type
REMARK                         _______ _______ _______ _____ _____    ______ ____
ROOT
ATOM      5  C   UNL     1      -1.297   4.382  24.967  0.00  0.00    -0.013 C 
ATOM      6  C   UNL     1      -2.586   4.706  24.183  0.00  0.00    +0.004 C 
ATOM      7  C   UNL     1      -0.923   3.433  23.810  0.00  0.00    +0.079 C 
ATOM      8  C   UNL     1      -2.433   3.325  23.512  0.00  0.00    +0.027 C 
ATOM     10  C   UNL     1      -0.394   5.579  25.168  0.00  0.00    +0.013 C 
ATOM     11  C   UNL     1      -1.491   3.653  26.284  0.00  0.00    +0.013 C 
ENDROOT
BRANCH   7   3
ATOM      1  O   UNL     1      -1.578   0.818  22.816  0.00  0.00    -0.276 OA
ATOM      3  N   UNL     1      -0.308   2.159  24.206  0.00  0.00    -0.312 N 
ATOM     13  C   UNL     1      -0.693   0.935  23.668  0.00  0.00    +0.216 C 
ATOM     27  H   UNL     1       0.429   2.152  24.908  0.00  0.00    +0.149 HD
BRANCH  13  12
ATOM     12  C   UNL     1       0.098  -0.253  24.247  0.00  0.00    +0.075 C 
ATOM     15  C   UNL     1      -0.226  -1.657  23.696  0.00  0.00    +0.013 C 
ATOM     16  C   UNL     1      -0.329  -0.782  25.632  0.00  0.00    +0.013 C 
ATOM     17  C   UNL     1       0.033  -2.191  25.120  0.00  0.00    +0.001 C 
ENDBRANCH  13  12
ENDBRANCH   7   3
BRANCH   6   9
ATOM      9  C   UNL     1      -3.875   4.889  24.995  0.00  0.00    +0.063 C 
BRANCH   9  14
ATOM      2  O   UNL     1      -6.239   2.286  25.614  0.00  0.00    -0.359 OA
ATOM      4  N   UNL     1      -5.760   3.577  25.790  0.00  0.00    -0.083 NA
ATOM     14  C   UNL     1      -4.653   3.641  25.045  0.00  0.00    +0.084 A 
ATOM     18  C   UNL     1      -4.384   2.431  24.383  0.00  0.00    +0.071 A 
ATOM     21  C   UNL     1      -5.411   1.612  24.773  0.00  0.00    +0.138 A 
BRANCH  21  20
ATOM     20  C   UNL     1      -5.780   0.186  24.467  0.00  0.00    +0.080 C 
BRANCH  20  19
ATOM     19  C   UNL     1      -4.535  -0.696  24.537  0.00  0.00    -0.004 C 
ATOM     22  C   UNL     1      -4.764  -2.018  23.793  0.00  0.00    +0.004 C 
ATOM     23  C   UNL     1      -4.133  -0.952  25.997  0.00  0.00    +0.004 C 
ATOM     24  C   UNL     1      -3.551  -2.940  23.894  0.00  0.00    +0.000 C 
ATOM     25  C   UNL     1      -2.920  -1.876  26.093  0.00  0.00    +0.000 C 
ATOM     26  C   UNL     1      -3.150  -3.186  25.346  0.00  0.00    +0.000 C 
ENDBRANCH  20  19
ENDBRANCH  21  20
ENDBRANCH   9  14
ENDBRANCH   6   9
TORSDOF 6
ENDMDL
MODEL 10
REMARK VINA RESULT:      -0.6      1.871      5.227
REMARK  Name = 56774179
REMARK  8 active torsions:
REMARK  status: ('A' for Active; 'I' for Inactive)
REMARK    1  A    between atoms: N_3  and  C_7
REMARK    2  A    between atoms: C_5  and  C_10
REMARK    3  A    between atoms: C_5  and  C_11
REMARK    4  A    between atoms: C_6  and  C_9
REMARK    5  A    between atoms: C_9  and  C_14
REMARK    6  A    between atoms: C_12  and  C_13
REMARK    7  A    between atoms: C_19  and  C_20
REMARK    8  A    between atoms: C_20  and  C_21
REMARK                            x       y       z     vdW  Elec       q    Type
REMARK                         _______ _______ _______ _____ _____    ______ ____
ROOT
ATOM      5  C   UNL     1      -0.169   2.888  25.969  0.00  0.00    -0.013 C 
ATOM      6  C   UNL     1      -0.816   4.227  25.558  0.00  0.00    +0.004 C 
ATOM      7  C   UNL     1       0.552   2.905  24.605  0.00  0.00    +0.079 C 
ATOM      8  C   UNL     1      -0.603   3.792  24.093  0.00  0.00    +0.027 C 
ATOM     10  C   UNL     1       0.714   2.994  27.192  0.00  0.00    +0.013 C 
ATOM     11  C   UNL     1      -1.118   1.712  26.116  0.00  0.00    +0.013 C 
ENDROOT
BRANCH   7   3
ATOM      1  O   UNL     1       2.915   1.720  23.479  0.00  0.00    -0.276 OA
ATOM      3  N   UNL     1       0.648   1.610  23.920  0.00  0.00    -0.312 N 
ATOM     13  C   UNL     1       1.842   1.114  23.404  0.00  0.00    +0.216 C 
ATOM     27  H   UNL     1      -0.186   1.038  23.803  0.00  0.00    +0.149 HD
BRANCH  13  12
ATOM     12  C   UNL     1       1.682  -0.261  22.730  0.00  0.00    +0.075 C 
ATOM     15  C   UNL     1       2.003  -0.355  21.224  0.00  0.00    +0.013 C 
ATOM     16  C   UNL     1       0.250  -0.715  22.376  0.00  0.00    +0.013 C 
ATOM     17  C   UNL     1       0.855  -1.381  21.123  0.00  0.00    +0.001 C 
ENDBRANCH  13  12
ENDBRANCH   7   3
BRANCH   6   9
ATOM      9  C   UNL     1      -2.281   4.451  25.956  0.00  0.00    +0.063 C 
BRANCH   9  14
ATOM      2  O   UNL     1      -4.540   2.814  23.728  0.00  0.00    -0.359 OA
ATOM      4  N   UNL     1      -3.795   3.914  24.132  0.00  0.00    -0.083 NA
ATOM     14  C   UNL     1      -3.173   3.520  25.247  0.00  0.00    +0.084 A 
ATOM     18  C   UNL     1      -3.485   2.193  25.592  0.00  0.00    +0.071 A 
ATOM     21  C   UNL     1      -4.348   1.795  24.605  0.00  0.00    +0.138 A 
BRANCH  21  20
ATOM     20  C   UNL     1      -5.084   0.514  24.319  0.00  0.00    +0.080 C 
BRANCH  20  19
ATOM     19  C   UNL     1      -4.094  -0.647  24.251  0.00  0.00    -0.004 C 
ATOM     22  C   UNL     1      -4.766  -1.900  23.676  0.00  0.00    +0.004 C 
ATOM     23  C   UNL     1      -3.498  -0.933  25.637  0.00  0.00    +0.004 C 
ATOM     24  C   UNL     1      -3.810  -3.090  23.648  0.00  0.00    +0.000 C 
ATOM     25  C   UNL     1      -2.543  -2.125  25.605  0.00  0.00    +0.000 C 
ATOM     26  C   UNL     1      -3.213  -3.366  25.025  0.00  0.00    +0.000 C 
ENDBRANCH  20  19
ENDBRANCH  21  20
ENDBRANCH   9  14
ENDBRANCH   6   9
TORSDOF 6
ENDMDL
