MODEL 1
REMARK VINA RESULT:      -1.1      0.000      0.000
REMARK  Name = 44716626
REMARK  8 active torsions:
REMARK  status: ('A' for Active; 'I' for Inactive)
REMARK    1  A    between atoms: O_2  and  C_9
REMARK    2  A    between atoms: N_5  and  C_22
REMARK    3  A    between atoms: N_6  and  C_26
REMARK    4  A    between atoms: C_7  and  C_15
REMARK    5  A    between atoms: C_10  and  C_16
REMARK    6  A    between atoms: C_12  and  C_19
REMARK    7  A    between atoms: C_16  and  C_20
REMARK    8  A    between atoms: C_16  and  C_21
REMARK                            x       y       z     vdW  Elec       q    Type
REMARK                         _______ _______ _______ _____ _____    ______ ____
ROOT
ATOM      1  S   UNL     1      -5.619   1.836  26.013  0.00  0.00    -0.057 S 
ATOM      4  N   UNL     1      -4.411   3.892  25.013  0.00  0.00    -0.229 NA
ATOM      6  N   UNL     1      -6.534   4.334  25.956  0.00  0.00    -0.327 N 
ATOM      7  C   UNL     1      -2.305   0.311  24.115  0.00  0.00    -0.022 C 
ATOM      8  C   UNL     1      -1.405   1.595  24.299  0.00  0.00    +0.033 C 
ATOM      9  C   UNL     1      -0.152   1.546  23.381  0.00  0.00    +0.123 C 
ATOM     10  C   UNL     1       0.643   0.230  23.524  0.00  0.00    +0.029 C 
ATOM     11  C   UNL     1      -1.441  -0.960  24.296  0.00  0.00    +0.008 C 
ATOM     12  C   UNL     1      -2.243   2.931  24.152  0.00  0.00    +0.042 C 
ATOM     13  C   UNL     1      -0.240  -1.006  23.361  0.00  0.00    +0.007 C 
ATOM     14  C   UNL     1      -3.414   0.281  25.212  0.00  0.00    +0.051 C 
ATOM     15  C   UNL     1      -2.978   0.266  22.718  0.00  0.00    +0.012 C 
ATOM     17  C   UNL     1      -3.577   2.800  24.848  0.00  0.00    +0.057 A 
ATOM     18  C   UNL     1      -4.087   1.604  25.307  0.00  0.00    +0.015 A 
ATOM     19  C   UNL     1      -1.502   4.172  24.670  0.00  0.00    +0.014 C 
ATOM     25  C   UNL     1      -5.509   3.505  25.626  0.00  0.00    +0.158 A 
ATOM     26  C   UNL     1      -6.563   5.765  25.679  0.00  0.00    +0.127 C 
ATOM     29  H   UNL     1      -7.351   3.954  26.428  0.00  0.00    +0.148 HD
ENDROOT
BRANCH   9   2
ATOM      2  O   UNL     1       0.731   2.613  23.725  0.00  0.00    -0.391 OA
ATOM     27  H   UNL     1       0.235   3.251  24.267  0.00  0.00    +0.210 HD
ENDBRANCH   9   2
BRANCH  10  16
ATOM     16  C   UNL     1       1.813   0.159  22.534  0.00  0.00    +0.077 C 
ATOM     21  C   UNL     1       1.465  -0.773  21.379  0.00  0.00    +0.017 C 
BRANCH  16  20
ATOM      3  O   UNL     1       3.237  -1.450  23.659  0.00  0.00    -0.276 OA
ATOM      5  N   UNL     1       4.035   0.700  23.324  0.00  0.00    -0.312 N 
ATOM     20  C   UNL     1       3.087  -0.308  23.230  0.00  0.00    +0.216 C 
ATOM     28  H   UNL     1       3.828   1.627  22.962  0.00  0.00    +0.149 HD
BRANCH   5  22
ATOM     22  C   UNL     1       5.314   0.501  23.946  0.00  0.00    +0.073 C 
ATOM     23  C   UNL     1       5.753  -0.860  24.402  0.00  0.00    +0.024 C 
ATOM     24  C   UNL     1       6.424  -0.209  23.228  0.00  0.00    +0.024 C 
ENDBRANCH   5  22
ENDBRANCH  16  20
ENDBRANCH  10  16
TORSDOF 4
ENDMDL
MODEL 2
REMARK VINA RESULT:      -0.1      2.899      7.323
REMARK  Name = 44716626
REMARK  8 active torsions:
REMARK  status: ('A' for Active; 'I' for Inactive)
REMARK    1  A    between atoms: O_2  and  C_9
REMARK    2  A    between atoms: N_5  and  C_22
REMARK    3  A    between atoms: N_6  and  C_26
REMARK    4  A    between atoms: C_7  and  C_15
REMARK    5  A    between atoms: C_10  and  C_16
REMARK    6  A    between atoms: C_12  and  C_19
REMARK    7  A    between atoms: C_16  and  C_20
REMARK    8  A    between atoms: C_16  and  C_21
REMARK                            x       y       z     vdW  Elec       q    Type
REMARK                         _______ _______ _______ _____ _____    ______ ____
ROOT
ATOM      1  S   UNL     1       1.638  -1.627  23.619  0.00  0.00    -0.057 S 
ATOM      4  N   UNL     1       1.470   0.925  23.237  0.00  0.00    -0.229 NA
ATOM      6  N   UNL     1       3.593  -0.020  22.798  0.00  0.00    -0.327 N 
ATOM      7  C   UNL     1      -2.075  -0.574  25.042  0.00  0.00    -0.022 C 
ATOM      8  C   UNL     1      -2.278   0.656  24.073  0.00  0.00    +0.033 C 
ATOM      9  C   UNL     1      -3.448   1.565  24.547  0.00  0.00    +0.123 C 
ATOM     10  C   UNL     1      -4.751   0.777  24.800  0.00  0.00    +0.029 C 
ATOM     11  C   UNL     1      -3.418  -1.320  25.224  0.00  0.00    +0.008 C 
ATOM     12  C   UNL     1      -0.927   1.445  23.826  0.00  0.00    +0.042 C 
ATOM     13  C   UNL     1      -4.540  -0.421  25.725  0.00  0.00    +0.007 C 
ATOM     14  C   UNL     1      -1.063  -1.581  24.412  0.00  0.00    +0.051 C 
ATOM     15  C   UNL     1      -1.549  -0.138  26.434  0.00  0.00    +0.012 C 
ATOM     17  C   UNL     1       0.222   0.484  23.644  0.00  0.00    +0.057 A 
ATOM     18  C   UNL     1       0.144  -0.865  23.920  0.00  0.00    +0.015 A 
ATOM     19  C   UNL     1      -0.998   2.410  22.633  0.00  0.00    +0.014 C 
ATOM     25  C   UNL     1       2.290  -0.102  23.178  0.00  0.00    +0.158 A 
ATOM     26  C   UNL     1       4.264   1.213  22.405  0.00  0.00    +0.127 C 
ATOM     29  H   UNL     1       4.161  -0.863  22.781  0.00  0.00    +0.148 HD
ENDROOT
BRANCH   9   2
ATOM      2  O   UNL     1      -3.730   2.538  23.542  0.00  0.00    -0.391 OA
ATOM     27  H   UNL     1      -4.545   3.003  23.795  0.00  0.00    +0.210 HD
ENDBRANCH   9   2
BRANCH  10  16
ATOM     16  C   UNL     1      -5.859   1.674  25.367  0.00  0.00    +0.077 C 
ATOM     21  C   UNL     1      -7.005   1.787  24.366  0.00  0.00    +0.017 C 
BRANCH  16  20
ATOM      3  O   UNL     1      -6.004   4.075  25.680  0.00  0.00    -0.276 OA
ATOM      5  N   UNL     1      -3.972   3.023  26.054  0.00  0.00    -0.312 N 
ATOM     20  C   UNL     1      -5.316   3.056  25.712  0.00  0.00    +0.216 C 
ATOM     28  H   UNL     1      -3.466   2.142  26.039  0.00  0.00    +0.149 HD
BRANCH   5  22
ATOM     22  C   UNL     1      -3.238   4.204  26.412  0.00  0.00    +0.073 C 
ATOM     23  C   UNL     1      -1.759   4.301  26.176  0.00  0.00    +0.024 C 
ATOM     24  C   UNL     1      -2.705   5.135  25.364  0.00  0.00    +0.024 C 
ENDBRANCH   5  22
ENDBRANCH  16  20
ENDBRANCH  10  16
TORSDOF 4
ENDMDL
MODEL 3
REMARK VINA RESULT:       2.8      1.713      2.689
REMARK  Name = 44716626
REMARK  8 active torsions:
REMARK  status: ('A' for Active; 'I' for Inactive)
REMARK    1  A    between atoms: O_2  and  C_9
REMARK    2  A    between atoms: N_5  and  C_22
REMARK    3  A    between atoms: N_6  and  C_26
REMARK    4  A    between atoms: C_7  and  C_15
REMARK    5  A    between atoms: C_10  and  C_16
REMARK    6  A    between atoms: C_12  and  C_19
REMARK    7  A    between atoms: C_16  and  C_20
REMARK    8  A    between atoms: C_16  and  C_21
REMARK                            x       y       z     vdW  Elec       q    Type
REMARK                         _______ _______ _______ _____ _____    ______ ____
ROOT
ATOM      1  S   UNL     1      -4.564   3.823  25.693  0.00  0.00    -0.057 S 
ATOM      4  N   UNL     1      -4.867   1.266  25.924  0.00  0.00    -0.229 NA
ATOM      6  N   UNL     1      -6.651   2.569  26.766  0.00  0.00    -0.327 N 
ATOM      7  C   UNL     1      -0.958   2.211  24.546  0.00  0.00    -0.022 C 
ATOM      8  C   UNL     1      -1.551   0.847  24.014  0.00  0.00    +0.033 C 
ATOM      9  C   UNL     1      -0.434  -0.215  23.810  0.00  0.00    +0.123 C 
ATOM     10  C   UNL     1       0.738   0.307  22.951  0.00  0.00    +0.029 C 
ATOM     11  C   UNL     1       0.192   2.675  23.621  0.00  0.00    +0.008 C 
ATOM     12  C   UNL     1      -2.753   0.335  24.908  0.00  0.00    +0.042 C 
ATOM     13  C   UNL     1       1.293   1.635  23.465  0.00  0.00    +0.007 C 
ATOM     14  C   UNL     1      -2.060   3.315  24.511  0.00  0.00    +0.051 C 
ATOM     15  C   UNL     1      -0.418   2.085  25.995  0.00  0.00    +0.012 C 
ATOM     17  C   UNL     1      -3.653   1.484  25.296  0.00  0.00    +0.057 A 
ATOM     18  C   UNL     1      -3.321   2.811  25.118  0.00  0.00    +0.015 A 
ATOM     19  C   UNL     1      -3.579  -0.773  24.237  0.00  0.00    +0.014 C 
ATOM     25  C   UNL     1      -5.438   2.425  26.169  0.00  0.00    +0.158 A 
ATOM     26  C   UNL     1      -7.488   1.464  27.219  0.00  0.00    +0.127 C 
ATOM     29  H   UNL     1      -7.022   3.503  26.921  0.00  0.00    +0.148 HD
ENDROOT
BRANCH   9   2
ATOM      2  O   UNL     1      -0.978  -1.352  23.139  0.00  0.00    -0.391 OA
ATOM     27  H   UNL     1      -0.356  -2.091  23.248  0.00  0.00    +0.210 HD
ENDBRANCH   9   2
BRANCH  10  16
ATOM     16  C   UNL     1       1.874  -0.720  22.851  0.00  0.00    +0.077 C 
ATOM     21  C   UNL     1       1.952  -1.540  24.134  0.00  0.00    +0.017 C 
BRANCH  16  20
ATOM      3  O   UNL     1       3.448   0.576  21.537  0.00  0.00    -0.276 OA
ATOM      5  N   UNL     1       4.100  -0.179  23.629  0.00  0.00    -0.312 N 
ATOM     20  C   UNL     1       3.207  -0.031  22.578  0.00  0.00    +0.216 C 
ATOM     28  H   UNL     1       3.833  -0.714  24.451  0.00  0.00    +0.149 HD
BRANCH   5  22
ATOM     22  C   UNL     1       5.423   0.377  23.601  0.00  0.00    +0.073 C 
ATOM     23  C   UNL     1       6.555  -0.271  24.343  0.00  0.00    +0.024 C 
ATOM     24  C   UNL     1       6.531  -0.293  22.843  0.00  0.00    +0.024 C 
ENDBRANCH   5  22
ENDBRANCH  16  20
ENDBRANCH  10  16
TORSDOF 4
ENDMDL
