MODEL 1
REMARK VINA RESULT:       6.0      0.000      0.000
REMARK  Name = 7144188
REMARK  4 active torsions:
REMARK  status: ('A' for Active; 'I' for Inactive)
REMARK    1  A    between atoms: O_6  and  C_30
REMARK    2  A    between atoms: O_6  and  C_33
REMARK    3  A    between atoms: C_18  and  C_23
REMARK    4  A    between atoms: C_20  and  C_24
REMARK                            x       y       z     vdW  Elec       q    Type
REMARK                         _______ _______ _______ _____ _____    ______ ____
ROOT
ATOM      4  O   UNL     1      -3.431   4.189  27.470  0.00  0.00    -0.268 OA
ATOM      5  O   UNL     1      -5.726   0.407  24.984  0.00  0.00    -0.268 OA
ATOM      7  N   UNL     1      -2.743   3.442  25.360  0.00  0.00    -0.311 N 
ATOM      8  N   UNL     1      -4.127   1.282  23.519  0.00  0.00    -0.295 N 
ATOM     11  C   UNL     1      -4.216   3.750  23.281  0.00  0.00    +0.027 C 
ATOM     12  C   UNL     1      -2.055   2.588  23.098  0.00  0.00    +0.054 C 
ATOM     13  C   UNL     1      -2.896   3.727  22.523  0.00  0.00    +0.018 C 
ATOM     14  C   UNL     1      -3.925   4.068  24.749  0.00  0.00    +0.130 C 
ATOM     15  C   UNL     1      -4.959   2.414  23.117  0.00  0.00    +0.113 C 
ATOM     16  C   UNL     1      -2.795   1.248  22.899  0.00  0.00    +0.117 C 
ATOM     17  C   UNL     1      -1.754   2.805  24.584  0.00  0.00    +0.034 A 
ATOM     18  C   UNL     1      -0.604   2.379  25.168  0.00  0.00    +0.002 A 
ATOM     19  C   UNL     1      -2.608   3.629  26.747  0.00  0.00    +0.252 A 
ATOM     20  C   UNL     1      -4.610   0.376  24.468  0.00  0.00    +0.266 C 
ATOM     21  C   UNL     1      -0.432   2.550  26.598  0.00  0.00    +0.015 A 
ATOM     22  C   UNL     1      -1.362   3.119  27.365  0.00  0.00    +0.071 A 
ENDROOT
BRANCH  20  24
ATOM      9  N   UNL     1      -2.773  -0.365  25.804  0.00  0.00    -0.247 NA
ATOM     10  N   UNL     1      -3.052  -2.982  24.835  0.00  0.00    -0.259 NA
ATOM     24  C   UNL     1      -3.721  -0.703  24.913  0.00  0.00    +0.144 A 
ATOM     27  C   UNL     1      -3.863  -1.983  24.435  0.00  0.00    +0.143 A 
ATOM     31  C   UNL     1      -1.963  -1.363  26.205  0.00  0.00    +0.131 A 
ATOM     32  C   UNL     1      -2.100  -2.650  25.729  0.00  0.00    +0.130 A 
ENDBRANCH  20  24
BRANCH  18  23
ATOM     23  C   UNL     1       0.470   1.727  24.389  0.00  0.00    -0.016 A 
ATOM     25  C   UNL     1       0.432   0.352  24.174  0.00  0.00    +0.012 A 
ATOM     26  C   UNL     1       1.512   2.492  23.875  0.00  0.00    +0.012 A 
ATOM     28  C   UNL     1       1.447  -0.262  23.440  0.00  0.00    +0.046 A 
ATOM     29  C   UNL     1       2.527   1.878  23.141  0.00  0.00    +0.046 A 
ATOM     30  C   UNL     1       2.493   0.501  22.923  0.00  0.00    +0.130 A 
BRANCH  30   6
ATOM      6  O   UNL     1       3.483  -0.099  22.206  0.00  0.00    -0.406 OA
BRANCH   6  33
ATOM      1  F   UNL     1       4.977   0.889  23.579  0.00  0.00    -0.133 F 
ATOM      2  F   UNL     1       4.881  -1.295  23.565  0.00  0.00    -0.133 F 
ATOM      3  F   UNL     1       5.739  -0.202  21.846  0.00  0.00    -0.133 F 
ATOM     33  C   UNL     1       4.776  -0.193  22.792  0.00  0.00    +0.575 C 
ENDBRANCH   6  33
ENDBRANCH  30   6
ENDBRANCH  18  23
TORSDOF 4
ENDMDL
