MODEL 1
REMARK VINA RESULT:      -0.6      0.000      0.000
REMARK  Name = 40481335
REMARK  4 active torsions:
REMARK  status: ('A' for Active; 'I' for Inactive)
REMARK    1  A    between atoms: O_3  and  C_11
REMARK    2  A    between atoms: N_4  and  C_10
REMARK    3  A    between atoms: C_14  and  C_15
REMARK    4  A    between atoms: C_20  and  C_21
REMARK                            x       y       z     vdW  Elec       q    Type
REMARK                         _______ _______ _______ _____ _____    ______ ____
ROOT
ATOM      4  N   UNL     1      -3.476   0.364  23.994  0.00  0.00    -0.217 N 
ATOM      5  N   UNL     1      -4.739  -0.049  24.168  0.00  0.00    -0.043 NA
ATOM      6  N   UNL     1      -3.343  -1.784  24.259  0.00  0.00    -0.108 NA
ATOM      7  N   UNL     1      -4.651  -1.364  24.329  0.00  0.00    -0.023 NA
ATOM     14  C   UNL     1      -2.633  -0.700  24.052  0.00  0.00    +0.182 A 
ENDROOT
BRANCH   4  10
ATOM      1  O   UNL     1      -4.541   3.275  25.093  0.00  0.00    -0.369 OA
ATOM      2  O   UNL     1      -1.543   3.507  24.446  0.00  0.00    -0.369 OA
ATOM      8  C   UNL     1      -2.341   2.400  24.920  0.00  0.00    +0.176 C 
ATOM      9  C   UNL     1      -3.371   2.979  25.871  0.00  0.00    +0.180 C 
ATOM     10  C   UNL     1      -3.162   1.833  23.776  0.00  0.00    +0.168 C 
ATOM     11  C   UNL     1      -2.694   4.236  26.363  0.00  0.00    +0.171 C 
ATOM     12  C   UNL     1      -4.367   2.771  23.760  0.00  0.00    +0.190 C 
ATOM     13  C   UNL     1      -1.949   4.699  25.133  0.00  0.00    +0.194 C 
BRANCH  11   3
ATOM      3  O   UNL     1      -3.594   5.212  26.837  0.00  0.00    -0.387 OA
ATOM     27  H   UNL     1      -4.493   4.851  26.745  0.00  0.00    +0.210 HD
ENDBRANCH  11   3
ENDBRANCH   4  10
BRANCH  14  15
ATOM     15  C   UNL     1      -1.202  -0.614  23.906  0.00  0.00    +0.021 A 
ATOM     16  C   UNL     1      -0.372  -1.404  24.702  0.00  0.00    +0.012 A 
ATOM     17  C   UNL     1      -0.647   0.258  22.969  0.00  0.00    +0.012 A 
ATOM     18  C   UNL     1       1.014  -1.320  24.561  0.00  0.00    +0.009 A 
ATOM     19  C   UNL     1       0.738   0.341  22.828  0.00  0.00    +0.009 A 
ATOM     20  C   UNL     1       1.569  -0.448  23.624  0.00  0.00    -0.018 A 
BRANCH  20  21
ATOM     21  C   UNL     1       3.006  -0.362  23.477  0.00  0.00    -0.018 A 
ATOM     22  C   UNL     1       3.581   0.775  22.907  0.00  0.00    +0.008 A 
ATOM     23  C   UNL     1       3.815  -1.413  23.907  0.00  0.00    +0.008 A 
ATOM     24  C   UNL     1       4.966   0.859  22.767  0.00  0.00    +0.001 A 
ATOM     25  C   UNL     1       5.201  -1.328  23.766  0.00  0.00    +0.001 A 
ATOM     26  C   UNL     1       5.776  -0.192  23.197  0.00  0.00    +0.000 A 
ENDBRANCH  20  21
ENDBRANCH  14  15
TORSDOF 4
ENDMDL
MODEL 2
REMARK VINA RESULT:       0.2      2.579      4.105
REMARK  Name = 40481335
REMARK  4 active torsions:
REMARK  status: ('A' for Active; 'I' for Inactive)
REMARK    1  A    between atoms: O_3  and  C_11
REMARK    2  A    between atoms: N_4  and  C_10
REMARK    3  A    between atoms: C_14  and  C_15
REMARK    4  A    between atoms: C_20  and  C_21
REMARK                            x       y       z     vdW  Elec       q    Type
REMARK                         _______ _______ _______ _____ _____    ______ ____
ROOT
ATOM      4  N   UNL     1      -4.621   1.854  25.277  0.00  0.00    -0.217 N 
ATOM      5  N   UNL     1      -5.702   2.593  25.562  0.00  0.00    -0.043 NA
ATOM      6  N   UNL     1      -4.001   3.911  24.982  0.00  0.00    -0.108 NA
ATOM      7  N   UNL     1      -5.317   3.850  25.380  0.00  0.00    -0.023 NA
ATOM     14  C   UNL     1      -3.590   2.665  24.924  0.00  0.00    +0.182 A 
ENDROOT
BRANCH   4  10
ATOM      1  O   UNL     1      -3.622  -0.730  23.506  0.00  0.00    -0.369 OA
ATOM      2  O   UNL     1      -3.534  -1.489  26.485  0.00  0.00    -0.369 OA
ATOM      8  C   UNL     1      -3.330  -0.229  25.808  0.00  0.00    +0.176 C 
ATOM      9  C   UNL     1      -2.612  -0.544  24.510  0.00  0.00    +0.180 C 
ATOM     10  C   UNL     1      -4.668   0.340  25.370  0.00  0.00    +0.168 C 
ATOM     11  C   UNL     1      -1.897  -1.834  24.832  0.00  0.00    +0.171 C 
ATOM     12  C   UNL     1      -4.906  -0.397  24.054  0.00  0.00    +0.190 C 
ATOM     13  C   UNL     1      -2.889  -2.529  25.737  0.00  0.00    +0.194 C 
BRANCH  11   3
ATOM      3  O   UNL     1      -1.587  -2.605  23.694  0.00  0.00    -0.387 OA
ATOM     27  H   UNL     1      -2.293  -3.265  23.585  0.00  0.00    +0.210 HD
ENDBRANCH  11   3
ENDBRANCH   4  10
BRANCH  14  15
ATOM     15  C   UNL     1      -2.277   2.201  24.554  0.00  0.00    +0.021 A 
ATOM     16  C   UNL     1      -1.278   2.090  25.522  0.00  0.00    +0.012 A 
ATOM     17  C   UNL     1      -2.004   1.866  23.228  0.00  0.00    +0.012 A 
ATOM     18  C   UNL     1      -0.007   1.641  25.163  0.00  0.00    +0.009 A 
ATOM     19  C   UNL     1      -0.733   1.417  22.869  0.00  0.00    +0.009 A 
ATOM     20  C   UNL     1       0.266   1.304  23.837  0.00  0.00    -0.018 A 
BRANCH  20  21
ATOM     21  C   UNL     1       1.584   0.840  23.464  0.00  0.00    -0.018 A 
ATOM     22  C   UNL     1       1.858  -0.528  23.433  0.00  0.00    +0.008 A 
ATOM     23  C   UNL     1       2.580   1.758  23.135  0.00  0.00    +0.008 A 
ATOM     24  C   UNL     1       3.128  -0.977  23.072  0.00  0.00    +0.001 A 
ATOM     25  C   UNL     1       3.851   1.310  22.774  0.00  0.00    +0.001 A 
ATOM     26  C   UNL     1       4.125  -0.058  22.743  0.00  0.00    +0.000 A 
ENDBRANCH  20  21
ENDBRANCH  14  15
TORSDOF 4
ENDMDL
MODEL 3
REMARK VINA RESULT:       0.5      2.544      3.892
REMARK  Name = 40481335
REMARK  4 active torsions:
REMARK  status: ('A' for Active; 'I' for Inactive)
REMARK    1  A    between atoms: O_3  and  C_11
REMARK    2  A    between atoms: N_4  and  C_10
REMARK    3  A    between atoms: C_14  and  C_15
REMARK    4  A    between atoms: C_20  and  C_21
REMARK                            x       y       z     vdW  Elec       q    Type
REMARK                         _______ _______ _______ _____ _____    ______ ____
ROOT
ATOM      4  N   UNL     1      -3.614   2.042  24.443  0.00  0.00    -0.217 N 
ATOM      5  N   UNL     1      -4.716   2.789  24.295  0.00  0.00    -0.043 NA
ATOM      6  N   UNL     1      -3.042   3.642  23.095  0.00  0.00    -0.108 NA
ATOM      7  N   UNL     1      -4.360   3.766  23.470  0.00  0.00    -0.023 NA
ATOM     14  C   UNL     1      -2.599   2.569  23.708  0.00  0.00    +0.182 A 
ENDROOT
BRANCH   4  10
ATOM      1  O   UNL     1      -4.953  -0.961  24.427  0.00  0.00    -0.369 OA
ATOM      2  O   UNL     1      -2.238  -1.105  25.864  0.00  0.00    -0.369 OA
ATOM      8  C   UNL     1      -2.709  -0.273  24.782  0.00  0.00    +0.176 C 
ATOM      9  C   UNL     1      -3.617  -1.138  23.930  0.00  0.00    +0.180 C 
ATOM     10  C   UNL     1      -3.623   0.810  25.329  0.00  0.00    +0.168 C 
ATOM     11  C   UNL     1      -3.098  -2.529  24.202  0.00  0.00    +0.171 C 
ATOM     12  C   UNL     1      -4.958   0.073  25.423  0.00  0.00    +0.190 C 
ATOM     13  C   UNL     1      -2.710  -2.444  25.660  0.00  0.00    +0.194 C 
BRANCH  11   3
ATOM      3  O   UNL     1      -4.049  -3.542  23.964  0.00  0.00    -0.387 OA
ATOM     27  H   UNL     1      -3.834  -3.952  23.109  0.00  0.00    +0.210 HD
ENDBRANCH  11   3
ENDBRANCH   4  10
BRANCH  14  15
ATOM     15  C   UNL     1      -1.271   2.015  23.637  0.00  0.00    +0.021 A 
ATOM     16  C   UNL     1      -1.012   0.929  22.800  0.00  0.00    +0.012 A 
ATOM     17  C   UNL     1      -0.245   2.563  24.407  0.00  0.00    +0.012 A 
ATOM     18  C   UNL     1       0.275   0.393  22.732  0.00  0.00    +0.009 A 
ATOM     19  C   UNL     1       1.041   2.027  24.339  0.00  0.00    +0.009 A 
ATOM     20  C   UNL     1       1.301   0.942  23.501  0.00  0.00    -0.018 A 
BRANCH  20  21
ATOM     21  C   UNL     1       2.635   0.386  23.432  0.00  0.00    -0.018 A 
ATOM     22  C   UNL     1       3.702   1.184  23.017  0.00  0.00    +0.008 A 
ATOM     23  C   UNL     1       2.854  -0.947  23.780  0.00  0.00    +0.008 A 
ATOM     24  C   UNL     1       4.988   0.648  22.951  0.00  0.00    +0.001 A 
ATOM     25  C   UNL     1       4.141  -1.482  23.714  0.00  0.00    +0.001 A 
ATOM     26  C   UNL     1       5.208  -0.684  23.299  0.00  0.00    +0.000 A 
ENDBRANCH  20  21
ENDBRANCH  14  15
TORSDOF 4
ENDMDL
MODEL 4
REMARK VINA RESULT:       1.1      1.093      2.150
REMARK  Name = 40481335
REMARK  4 active torsions:
REMARK  status: ('A' for Active; 'I' for Inactive)
REMARK    1  A    between atoms: O_3  and  C_11
REMARK    2  A    between atoms: N_4  and  C_10
REMARK    3  A    between atoms: C_14  and  C_15
REMARK    4  A    between atoms: C_20  and  C_21
REMARK                            x       y       z     vdW  Elec       q    Type
REMARK                         _______ _______ _______ _____ _____    ______ ____
ROOT
ATOM      4  N   UNL     1      -3.529  -0.629  24.657  0.00  0.00    -0.217 N 
ATOM      5  N   UNL     1      -4.755  -1.166  24.618  0.00  0.00    -0.043 NA
ATOM      6  N   UNL     1      -3.294  -2.513  23.608  0.00  0.00    -0.108 NA
ATOM      7  N   UNL     1      -4.606  -2.318  23.975  0.00  0.00    -0.023 NA
ATOM     14  C   UNL     1      -2.644  -1.456  24.040  0.00  0.00    +0.182 A 
ENDROOT
BRANCH   4  10
ATOM      1  O   UNL     1      -2.461   2.361  23.802  0.00  0.00    -0.369 OA
ATOM      2  O   UNL     1      -4.519   2.665  26.067  0.00  0.00    -0.369 OA
ATOM      8  C   UNL     1      -4.400   1.697  25.000  0.00  0.00    +0.176 C 
ATOM      9  C   UNL     1      -3.894   2.449  23.784  0.00  0.00    +0.180 C 
ATOM     10  C   UNL     1      -3.289   0.713  25.323  0.00  0.00    +0.168 C 
ATOM     11  C   UNL     1      -4.372   3.857  24.045  0.00  0.00    +0.171 C 
ATOM     12  C   UNL     1      -2.051   1.474  24.853  0.00  0.00    +0.190 C 
ATOM     13  C   UNL     1      -4.228   3.969  25.546  0.00  0.00    +0.194 C 
BRANCH  11   3
ATOM      3  O   UNL     1      -3.623   4.841  23.366  0.00  0.00    -0.387 OA
ATOM     27  H   UNL     1      -2.955   4.382  22.830  0.00  0.00    +0.210 HD
ENDBRANCH  11   3
ENDBRANCH   4  10
BRANCH  14  15
ATOM     15  C   UNL     1      -1.236  -1.187  23.902  0.00  0.00    +0.021 A 
ATOM     16  C   UNL     1      -0.774  -0.427  22.827  0.00  0.00    +0.012 A 
ATOM     17  C   UNL     1      -0.335  -1.687  24.841  0.00  0.00    +0.012 A 
ATOM     18  C   UNL     1       0.590  -0.167  22.693  0.00  0.00    +0.009 A 
ATOM     19  C   UNL     1       1.029  -1.427  24.707  0.00  0.00    +0.009 A 
ATOM     20  C   UNL     1       1.492  -0.667  23.632  0.00  0.00    -0.018 A 
BRANCH  20  21
ATOM     21  C   UNL     1       2.907  -0.398  23.493  0.00  0.00    -0.018 A 
ATOM     22  C   UNL     1       3.840  -1.358  23.885  0.00  0.00    +0.008 A 
ATOM     23  C   UNL     1       3.336   0.819  22.966  0.00  0.00    +0.008 A 
ATOM     24  C   UNL     1       5.204  -1.099  23.750  0.00  0.00    +0.001 A 
ATOM     25  C   UNL     1       4.701   1.078  22.830  0.00  0.00    +0.001 A 
ATOM     26  C   UNL     1       5.635   0.118  23.223  0.00  0.00    +0.000 A 
ENDBRANCH  20  21
ENDBRANCH  14  15
TORSDOF 4
ENDMDL
MODEL 5
REMARK VINA RESULT:       1.6      3.529      7.094
REMARK  Name = 40481335
REMARK  4 active torsions:
REMARK  status: ('A' for Active; 'I' for Inactive)
REMARK    1  A    between atoms: O_3  and  C_11
REMARK    2  A    between atoms: N_4  and  C_10
REMARK    3  A    between atoms: C_14  and  C_15
REMARK    4  A    between atoms: C_20  and  C_21
REMARK                            x       y       z     vdW  Elec       q    Type
REMARK                         _______ _______ _______ _____ _____    ______ ____
ROOT
ATOM      4  N   UNL     1       1.168  -0.537  23.629  0.00  0.00    -0.217 N 
ATOM      5  N   UNL     1       2.422  -0.759  23.215  0.00  0.00    -0.043 NA
ATOM      6  N   UNL     1       1.965   1.422  23.147  0.00  0.00    -0.108 NA
ATOM      7  N   UNL     1       2.905   0.442  22.922  0.00  0.00    -0.023 NA
ATOM     14  C   UNL     1       0.898   0.794  23.584  0.00  0.00    +0.182 A 
ENDROOT
BRANCH   4  10
ATOM      1  O   UNL     1      -0.815  -1.273  26.147  0.00  0.00    -0.369 OA
ATOM      2  O   UNL     1      -1.919  -2.608  23.605  0.00  0.00    -0.369 OA
ATOM      8  C   UNL     1      -1.188  -1.378  23.805  0.00  0.00    +0.176 C 
ATOM      9  C   UNL     1      -1.682  -0.785  25.110  0.00  0.00    +0.180 C 
ATOM     10  C   UNL     1       0.276  -1.687  24.060  0.00  0.00    +0.168 C 
ATOM     11  C   UNL     1      -3.073  -1.357  25.228  0.00  0.00    +0.171 C 
ATOM     12  C   UNL     1       0.274  -1.997  25.555  0.00  0.00    +0.190 C 
ATOM     13  C   UNL     1      -2.899  -2.741  24.644  0.00  0.00    +0.194 C 
BRANCH  11   3
ATOM      3  O   UNL     1      -3.556  -1.397  26.552  0.00  0.00    -0.387 OA
ATOM     27  H   UNL     1      -2.790  -1.315  27.145  0.00  0.00    +0.210 HD
ENDBRANCH  11   3
ENDBRANCH   4  10
BRANCH  14  15
ATOM     15  C   UNL     1      -0.361   1.385  23.962  0.00  0.00    +0.021 A 
ATOM     16  C   UNL     1      -1.416   1.419  23.050  0.00  0.00    +0.012 A 
ATOM     17  C   UNL     1      -0.524   1.923  25.238  0.00  0.00    +0.012 A 
ATOM     18  C   UNL     1      -2.635   1.991  23.416  0.00  0.00    +0.009 A 
ATOM     19  C   UNL     1      -1.742   2.495  25.604  0.00  0.00    +0.009 A 
ATOM     20  C   UNL     1      -2.798   2.529  24.693  0.00  0.00    -0.018 A 
BRANCH  20  21
ATOM     21  C   UNL     1      -4.062   3.123  25.072  0.00  0.00    -0.018 A 
ATOM     22  C   UNL     1      -4.224   4.508  25.023  0.00  0.00    +0.008 A 
ATOM     23  C   UNL     1      -5.117   2.311  25.486  0.00  0.00    +0.008 A 
ATOM     24  C   UNL     1      -5.442   5.080  25.387  0.00  0.00    +0.001 A 
ATOM     25  C   UNL     1      -6.337   2.884  25.851  0.00  0.00    +0.001 A 
ATOM     26  C   UNL     1      -6.499   4.269  25.801  0.00  0.00    +0.000 A 
ENDBRANCH  20  21
ENDBRANCH  14  15
TORSDOF 4
ENDMDL
MODEL 6
REMARK VINA RESULT:       1.6      3.524      7.114
REMARK  Name = 40481335
REMARK  4 active torsions:
REMARK  status: ('A' for Active; 'I' for Inactive)
REMARK    1  A    between atoms: O_3  and  C_11
REMARK    2  A    between atoms: N_4  and  C_10
REMARK    3  A    between atoms: C_14  and  C_15
REMARK    4  A    between atoms: C_20  and  C_21
REMARK                            x       y       z     vdW  Elec       q    Type
REMARK                         _______ _______ _______ _____ _____    ______ ____
ROOT
ATOM      4  N   UNL     1       1.115  -0.529  23.578  0.00  0.00    -0.217 N 
ATOM      5  N   UNL     1       2.365  -0.755  23.152  0.00  0.00    -0.043 NA
ATOM      6  N   UNL     1       1.907   1.425  23.069  0.00  0.00    -0.108 NA
ATOM      7  N   UNL     1       2.844   0.443  22.842  0.00  0.00    -0.023 NA
ATOM     14  C   UNL     1       0.845   0.802  23.525  0.00  0.00    +0.182 A 
ENDROOT
BRANCH   4  10
ATOM      1  O   UNL     1      -0.836  -1.243  26.127  0.00  0.00    -0.369 OA
ATOM      2  O   UNL     1      -1.971  -2.600  23.611  0.00  0.00    -0.369 OA
ATOM      8  C   UNL     1      -1.238  -1.368  23.791  0.00  0.00    +0.176 C 
ATOM      9  C   UNL     1      -1.715  -0.764  25.097  0.00  0.00    +0.180 C 
ATOM     10  C   UNL     1       0.229  -1.675  24.030  0.00  0.00    +0.168 C 
ATOM     11  C   UNL     1      -3.105  -1.335  25.237  0.00  0.00    +0.171 C 
ATOM     12  C   UNL     1       0.246  -1.973  25.528  0.00  0.00    +0.190 C 
ATOM     13  C   UNL     1      -2.938  -2.723  24.664  0.00  0.00    +0.194 C 
BRANCH  11   3
ATOM      3  O   UNL     1      -3.571  -1.363  26.567  0.00  0.00    -0.387 OA
ATOM     27  H   UNL     1      -2.801  -1.501  27.145  0.00  0.00    +0.210 HD
ENDBRANCH  11   3
ENDBRANCH   4  10
BRANCH  14  15
ATOM     15  C   UNL     1      -0.410   1.395  23.912  0.00  0.00    +0.021 A 
ATOM     16  C   UNL     1      -0.560   1.937  25.188  0.00  0.00    +0.012 A 
ATOM     17  C   UNL     1      -1.474   1.426  23.011  0.00  0.00    +0.012 A 
ATOM     18  C   UNL     1      -1.775   2.511  25.563  0.00  0.00    +0.009 A 
ATOM     19  C   UNL     1      -2.689   2.000  23.385  0.00  0.00    +0.009 A 
ATOM     20  C   UNL     1      -2.839   2.543  24.661  0.00  0.00    -0.018 A 
BRANCH  20  21
ATOM     21  C   UNL     1      -4.100   3.138  25.050  0.00  0.00    -0.018 A 
ATOM     22  C   UNL     1      -5.165   2.324  25.437  0.00  0.00    +0.008 A 
ATOM     23  C   UNL     1      -4.249   4.524  25.038  0.00  0.00    +0.008 A 
ATOM     24  C   UNL     1      -6.379   2.897  25.813  0.00  0.00    +0.001 A 
ATOM     25  C   UNL     1      -5.465   5.098  25.414  0.00  0.00    +0.001 A 
ATOM     26  C   UNL     1      -6.530   4.284  25.802  0.00  0.00    +0.000 A 
ENDBRANCH  20  21
ENDBRANCH  14  15
TORSDOF 4
ENDMDL
MODEL 7
REMARK VINA RESULT:       2.2      1.869      2.834
REMARK  Name = 40481335
REMARK  4 active torsions:
REMARK  status: ('A' for Active; 'I' for Inactive)
REMARK    1  A    between atoms: O_3  and  C_11
REMARK    2  A    between atoms: N_4  and  C_10
REMARK    3  A    between atoms: C_14  and  C_15
REMARK    4  A    between atoms: C_20  and  C_21
REMARK                            x       y       z     vdW  Elec       q    Type
REMARK                         _______ _______ _______ _____ _____    ______ ____
ROOT
ATOM      4  N   UNL     1      -4.935   2.560  25.387  0.00  0.00    -0.217 N 
ATOM      5  N   UNL     1      -6.231   2.448  25.708  0.00  0.00    -0.043 NA
ATOM      6  N   UNL     1      -5.497   0.551  24.796  0.00  0.00    -0.108 NA
ATOM      7  N   UNL     1      -6.569   1.217  25.344  0.00  0.00    -0.023 NA
ATOM     14  C   UNL     1      -4.496   1.400  24.832  0.00  0.00    +0.182 A 
ENDROOT
BRANCH   4  10
ATOM      1  O   UNL     1      -2.055   3.468  26.689  0.00  0.00    -0.369 OA
ATOM      2  O   UNL     1      -2.815   5.479  24.490  0.00  0.00    -0.369 OA
ATOM      8  C   UNL     1      -3.077   4.066  24.631  0.00  0.00    +0.176 C 
ATOM      9  C   UNL     1      -1.843   3.456  25.268  0.00  0.00    +0.180 C 
ATOM     10  C   UNL     1      -4.177   3.848  25.655  0.00  0.00    +0.168 C 
ATOM     11  C   UNL     1      -0.751   4.413  24.856  0.00  0.00    +0.171 C 
ATOM     12  C   UNL     1      -3.397   3.895  26.967  0.00  0.00    +0.190 C 
ATOM     13  C   UNL     1      -1.465   5.745  24.895  0.00  0.00    +0.194 C 
BRANCH  11   3
ATOM      3  O   UNL     1       0.371   4.388  25.709  0.00  0.00    -0.387 OA
ATOM     27  H   UNL     1       1.152   4.205  25.160  0.00  0.00    +0.210 HD
ENDBRANCH  11   3
ENDBRANCH   4  10
BRANCH  14  15
ATOM     15  C   UNL     1      -3.150   1.174  24.372  0.00  0.00    +0.021 A 
ATOM     16  C   UNL     1      -2.237   0.505  25.188  0.00  0.00    +0.012 A 
ATOM     17  C   UNL     1      -2.759   1.626  23.112  0.00  0.00    +0.012 A 
ATOM     18  C   UNL     1      -0.934   0.287  24.742  0.00  0.00    +0.009 A 
ATOM     19  C   UNL     1      -1.455   1.408  22.666  0.00  0.00    +0.009 A 
ATOM     20  C   UNL     1      -0.542   0.738  23.481  0.00  0.00    -0.018 A 
BRANCH  20  21
ATOM     21  C   UNL     1       0.810   0.512  23.019  0.00  0.00    -0.018 A 
ATOM     22  C   UNL     1       1.059  -0.444  22.033  0.00  0.00    +0.008 A 
ATOM     23  C   UNL     1       1.863   1.251  23.557  0.00  0.00    +0.008 A 
ATOM     24  C   UNL     1       2.363  -0.660  21.586  0.00  0.00    +0.001 A 
ATOM     25  C   UNL     1       3.167   1.034  23.109  0.00  0.00    +0.001 A 
ATOM     26  C   UNL     1       3.417   0.079  22.124  0.00  0.00    +0.000 A 
ENDBRANCH  20  21
ENDBRANCH  14  15
TORSDOF 4
ENDMDL
