MODEL 1
REMARK VINA RESULT:      -2.4      0.000      0.000
REMARK  Name = 28960252
REMARK  8 active torsions:
REMARK  status: ('A' for Active; 'I' for Inactive)
REMARK    1  A    between atoms: O_3  and  C_11
REMARK    2  A    between atoms: O_4  and  C_21
REMARK    3  A    between atoms: O_4  and  C_24
REMARK    4  A    between atoms: N_7  and  C_10
REMARK    5  A    between atoms: N_8  and  C_12
REMARK    6  A    between atoms: N_9  and  C_23
REMARK    7  A    between atoms: C_20  and  C_21
REMARK    8  A    between atoms: C_23  and  C_25
REMARK                            x       y       z     vdW  Elec       q    Type
REMARK                         _______ _______ _______ _____ _____    ______ ____
ROOT
ATOM      1  O   UNL     1      -8.601 -10.781   9.436  0.00  0.00    -0.342 OA
ATOM      2  O   UNL     1      -9.758  -9.214   8.177  0.00  0.00    -0.347 OA
ATOM     10  C   UNL     1      -8.217  -8.441   9.873  0.00  0.00    +0.143 C 
ATOM     11  C   UNL     1      -9.348  -8.432  10.927  0.00  0.00    +0.159 C 
ATOM     12  C   UNL     1      -9.957  -9.827  11.187  0.00  0.00    +0.136 C 
ATOM     13  C   UNL     1      -8.492  -9.503   8.794  0.00  0.00    +0.270 C 
ATOM     14  C   UNL     1      -9.939 -10.740   9.942  0.00  0.00    +0.170 C 
ATOM     15  C   UNL     1     -10.671 -10.167   8.743  0.00  0.00    +0.196 C 
ENDROOT
BRANCH  12   8
ATOM      6  O   UNL     1      -9.705  -8.870  13.897  0.00  0.00    -0.253 OA
ATOM      8  N   UNL     1      -9.267 -10.478  12.280  0.00  0.00    -0.291 N 
ATOM      9  N   UNL     1      -8.474 -10.768  14.415  0.00  0.00    -0.296 N 
ATOM     22  C   UNL     1      -9.196  -9.939  13.560  0.00  0.00    +0.300 C 
ATOM     27  H   UNL     1      -8.746 -11.327  12.084  0.00  0.00    +0.151 HD
ATOM     29  H   UNL     1      -8.109 -11.643  14.053  0.00  0.00    +0.151 HD
BRANCH   9  23
ATOM     23  C   UNL     1      -8.246 -10.451  15.805  0.00  0.00    +0.132 C 
BRANCH  23  25
ATOM     25  C   UNL     1      -6.929  -9.762  15.939  0.00  0.00    -0.016 C 
ATOM     26  C   UNL     1      -5.781 -10.395  16.204  0.00  0.00    +0.005 C 
ENDBRANCH  23  25
ENDBRANCH   9  23
ENDBRANCH  12   8
BRANCH  10   7
ATOM      7  N   UNL     1      -6.930  -8.711  10.517  0.00  0.00    -0.293 NA
ATOM     16  C   UNL     1      -6.662 -10.155  10.543  0.00  0.00    +0.086 C 
ATOM     17  C   UNL     1      -5.851  -7.984   9.835  0.00  0.00    +0.086 C 
ATOM     18  C   UNL     1      -5.346 -10.459  11.262  0.00  0.00    +0.030 C 
ATOM     19  C   UNL     1      -4.507  -8.212  10.528  0.00  0.00    +0.030 C 
ATOM     20  C   UNL     1      -4.181  -9.702  10.628  0.00  0.00    +0.100 C 
BRANCH  20  21
ATOM      5  O   UNL     1      -1.811  -9.630  11.039  0.00  0.00    -0.251 OA
ATOM     21  C   UNL     1      -2.937  -9.890  11.440  0.00  0.00    +0.310 C 
BRANCH  21   4
ATOM      4  O   UNL     1      -3.266 -10.385  12.668  0.00  0.00    -0.468 OA
ATOM     24  C   UNL     1      -2.188 -10.465  13.606  0.00  0.00    +0.280 C 
ENDBRANCH  21   4
ENDBRANCH  20  21
ENDBRANCH  10   7
BRANCH  11   3
ATOM      3  O   UNL     1     -10.381  -7.559  10.453  0.00  0.00    -0.388 OA
ATOM     28  H   UNL     1     -10.849  -8.021   9.737  0.00  0.00    +0.210 HD
ENDBRANCH  11   3
TORSDOF 7
ENDMDL
MODEL 2
REMARK VINA RESULT:      -2.2     15.734     18.356
REMARK  Name = 28960252
REMARK  8 active torsions:
REMARK  status: ('A' for Active; 'I' for Inactive)
REMARK    1  A    between atoms: O_3  and  C_11
REMARK    2  A    between atoms: O_4  and  C_21
REMARK    3  A    between atoms: O_4  and  C_24
REMARK    4  A    between atoms: N_7  and  C_10
REMARK    5  A    between atoms: N_8  and  C_12
REMARK    6  A    between atoms: N_9  and  C_23
REMARK    7  A    between atoms: C_20  and  C_21
REMARK    8  A    between atoms: C_23  and  C_25
REMARK                            x       y       z     vdW  Elec       q    Type
REMARK                         _______ _______ _______ _____ _____    ______ ____
ROOT
ATOM      1  O   UNL     1      -4.250   2.887  26.578  0.00  0.00    -0.342 OA
ATOM      2  O   UNL     1      -5.605   4.538  25.673  0.00  0.00    -0.347 OA
ATOM     10  C   UNL     1      -4.839   2.743  24.245  0.00  0.00    +0.143 C 
ATOM     11  C   UNL     1      -3.584   3.558  23.857  0.00  0.00    +0.159 C 
ATOM     12  C   UNL     1      -2.663   3.875  25.056  0.00  0.00    +0.136 C 
ATOM     13  C   UNL     1      -5.320   3.129  25.655  0.00  0.00    +0.270 C 
ATOM     14  C   UNL     1      -3.430   4.044  26.384  0.00  0.00    +0.170 C 
ATOM     15  C   UNL     1      -4.489   5.131  26.355  0.00  0.00    +0.196 C 
ENDROOT
BRANCH  12   8
ATOM      6  O   UNL     1      -0.374   3.432  23.356  0.00  0.00    -0.253 OA
ATOM      8  N   UNL     1      -1.658   2.844  25.199  0.00  0.00    -0.291 N 
ATOM      9  N   UNL     1       0.228   1.635  24.696  0.00  0.00    -0.296 N 
ATOM     22  C   UNL     1      -0.583   2.705  24.327  0.00  0.00    +0.300 C 
ATOM     27  H   UNL     1      -1.785   2.144  25.924  0.00  0.00    +0.151 HD
ATOM     29  H   UNL     1      -0.013   1.103  25.526  0.00  0.00    +0.151 HD
BRANCH   9  23
ATOM     23  C   UNL     1       1.416   1.265  23.963  0.00  0.00    +0.132 C 
BRANCH  23  25
ATOM     25  C   UNL     1       1.084   0.154  23.025  0.00  0.00    -0.016 C 
ATOM     26  C   UNL     1       1.868  -0.223  22.008  0.00  0.00    +0.005 C 
ENDBRANCH  23  25
ENDBRANCH   9  23
ENDBRANCH  12   8
BRANCH  10   7
ATOM      7  N   UNL     1      -4.544   1.310  24.197  0.00  0.00    -0.293 NA
ATOM     16  C   UNL     1      -3.367   1.055  23.356  0.00  0.00    +0.086 C 
ATOM     17  C   UNL     1      -4.352   0.779  25.553  0.00  0.00    +0.086 C 
ATOM     18  C   UNL     1      -3.078  -0.444  23.251  0.00  0.00    +0.030 C 
ATOM     19  C   UNL     1      -4.097  -0.729  25.525  0.00  0.00    +0.030 C 
ATOM     20  C   UNL     1      -2.905  -1.073  24.632  0.00  0.00    +0.100 C 
BRANCH  20  21
ATOM      5  O   UNL     1      -3.722  -3.312  24.297  0.00  0.00    -0.251 OA
ATOM     21  C   UNL     1      -2.781  -2.560  24.512  0.00  0.00    +0.310 C 
BRANCH  21   4
ATOM      4  O   UNL     1      -1.477  -2.923  24.678  0.00  0.00    -0.468 OA
ATOM     24  C   UNL     1      -0.647  -1.951  25.323  0.00  0.00    +0.280 C 
ENDBRANCH  21   4
ENDBRANCH  20  21
ENDBRANCH  10   7
BRANCH  11   3
ATOM      3  O   UNL     1      -4.026   4.791  23.276  0.00  0.00    -0.388 OA
ATOM     28  H   UNL     1      -4.451   5.311  23.979  0.00  0.00    +0.210 HD
ENDBRANCH  11   3
TORSDOF 7
ENDMDL
MODEL 3
REMARK VINA RESULT:      -1.9     15.770     18.454
REMARK  Name = 28960252
REMARK  8 active torsions:
REMARK  status: ('A' for Active; 'I' for Inactive)
REMARK    1  A    between atoms: O_3  and  C_11
REMARK    2  A    between atoms: O_4  and  C_21
REMARK    3  A    between atoms: O_4  and  C_24
REMARK    4  A    between atoms: N_7  and  C_10
REMARK    5  A    between atoms: N_8  and  C_12
REMARK    6  A    between atoms: N_9  and  C_23
REMARK    7  A    between atoms: C_20  and  C_21
REMARK    8  A    between atoms: C_23  and  C_25
REMARK                            x       y       z     vdW  Elec       q    Type
REMARK                         _______ _______ _______ _____ _____    ______ ____
ROOT
ATOM      1  O   UNL     1      -2.723  -0.848  23.260  0.00  0.00    -0.342 OA
ATOM      2  O   UNL     1      -4.433  -1.900  24.420  0.00  0.00    -0.347 OA
ATOM     10  C   UNL     1      -3.450   0.103  25.352  0.00  0.00    +0.143 C 
ATOM     11  C   UNL     1      -2.407  -0.740  26.121  0.00  0.00    +0.159 C 
ATOM     12  C   UNL     1      -1.475  -1.555  25.198  0.00  0.00    +0.136 C 
ATOM     13  C   UNL     1      -3.887  -0.619  24.065  0.00  0.00    +0.270 C 
ATOM     14  C   UNL     1      -2.156  -2.003  23.888  0.00  0.00    +0.170 C 
ATOM     15  C   UNL     1      -3.402  -2.845  24.092  0.00  0.00    +0.196 C 
ENDROOT
BRANCH  12   8
ATOM      6  O   UNL     1      -0.054  -1.479  22.687  0.00  0.00    -0.253 OA
ATOM      8  N   UNL     1      -0.283  -0.792  24.893  0.00  0.00    -0.291 N 
ATOM      9  N   UNL     1       1.460   0.005  23.630  0.00  0.00    -0.296 N 
ATOM     22  C   UNL     1       0.337  -0.818  23.648  0.00  0.00    +0.300 C 
ATOM     27  H   UNL     1       0.164  -0.275  25.645  0.00  0.00    +0.151 HD
ATOM     29  H   UNL     1       1.695   0.530  24.467  0.00  0.00    +0.151 HD
BRANCH   9  23
ATOM     23  C   UNL     1       2.293   0.167  22.462  0.00  0.00    +0.132 C 
BRANCH  23  25
ATOM     25  C   UNL     1       3.512   0.941  22.834  0.00  0.00    -0.016 C 
ATOM     26  C   UNL     1       4.687   0.380  23.143  0.00  0.00    +0.005 C 
ENDBRANCH  23  25
ENDBRANCH   9  23
ENDBRANCH  12   8
BRANCH  10   7
ATOM      7  N   UNL     1      -2.891   1.414  25.019  0.00  0.00    -0.293 NA
ATOM     16  C   UNL     1      -3.913   2.460  25.165  0.00  0.00    +0.086 C 
ATOM     17  C   UNL     1      -1.717   1.701  25.854  0.00  0.00    +0.086 C 
ATOM     18  C   UNL     1      -3.361   3.831  24.768  0.00  0.00    +0.030 C 
ATOM     19  C   UNL     1      -1.088   3.044  25.481  0.00  0.00    +0.030 C 
ATOM     20  C   UNL     1      -2.109   4.178  25.571  0.00  0.00    +0.100 C 
BRANCH  20  21
ATOM      5  O   UNL     1      -2.082   6.520  25.017  0.00  0.00    -0.251 OA
ATOM     21  C   UNL     1      -1.498   5.445  25.058  0.00  0.00    +0.310 C 
BRANCH  21   4
ATOM      4  O   UNL     1      -0.218   5.203  24.655  0.00  0.00    -0.468 OA
ATOM     24  C   UNL     1      -0.058   4.903  23.265  0.00  0.00    +0.280 C 
ENDBRANCH  21   4
ENDBRANCH  20  21
ENDBRANCH  10   7
BRANCH  11   3
ATOM      3  O   UNL     1      -3.119  -1.647  26.973  0.00  0.00    -0.388 OA
ATOM     28  H   UNL     1      -3.109  -2.520  26.545  0.00  0.00    +0.210 HD
ENDBRANCH  11   3
TORSDOF 7
ENDMDL
MODEL 4
REMARK VINA RESULT:      -1.8     26.662     28.357
REMARK  Name = 28960252
REMARK  8 active torsions:
REMARK  status: ('A' for Active; 'I' for Inactive)
REMARK    1  A    between atoms: O_3  and  C_11
REMARK    2  A    between atoms: O_4  and  C_21
REMARK    3  A    between atoms: O_4  and  C_24
REMARK    4  A    between atoms: N_7  and  C_10
REMARK    5  A    between atoms: N_8  and  C_12
REMARK    6  A    between atoms: N_9  and  C_23
REMARK    7  A    between atoms: C_20  and  C_21
REMARK    8  A    between atoms: C_23  and  C_25
REMARK                            x       y       z     vdW  Elec       q    Type
REMARK                         _______ _______ _______ _____ _____    ______ ____
ROOT
ATOM      1  O   UNL     1      10.726   6.716  20.662  0.00  0.00    -0.342 OA
ATOM      2  O   UNL     1       9.832   7.946  22.414  0.00  0.00    -0.347 OA
ATOM     10  C   UNL     1      11.446   8.999  20.952  0.00  0.00    +0.143 C 
ATOM     11  C   UNL     1      12.606   8.538  21.864  0.00  0.00    +0.159 C 
ATOM     12  C   UNL     1      12.729   7.003  21.973  0.00  0.00    +0.136 C 
ATOM     13  C   UNL     1      10.263   8.018  21.044  0.00  0.00    +0.270 C 
ATOM     14  C   UNL     1      11.374   6.274  21.860  0.00  0.00    +0.170 C 
ATOM     15  C   UNL     1      10.352   6.698  22.899  0.00  0.00    +0.196 C 
ENDROOT
BRANCH  12   8
ATOM      6  O   UNL     1      15.596   7.322  21.909  0.00  0.00    -0.253 OA
ATOM      8  N   UNL     1      13.639   6.503  20.965  0.00  0.00    -0.291 N 
ATOM      9  N   UNL     1      15.650   6.121  19.924  0.00  0.00    -0.296 N 
ATOM     22  C   UNL     1      15.014   6.706  21.016  0.00  0.00    +0.300 C 
ATOM     27  H   UNL     1      13.249   6.050  20.144  0.00  0.00    +0.151 HD
ATOM     29  H   UNL     1      15.088   5.614  19.246  0.00  0.00    +0.151 HD
BRANCH   9  23
ATOM     23  C   UNL     1      17.078   6.179  19.726  0.00  0.00    +0.132 C 
BRANCH  23  25
ATOM     25  C   UNL     1      17.405   5.659  18.367  0.00  0.00    -0.016 C 
ATOM     26  C   UNL     1      16.566   5.713  17.326  0.00  0.00    +0.005 C 
ENDBRANCH  23  25
ENDBRANCH   9  23
ENDBRANCH  12   8
BRANCH  10   7
ATOM      7  N   UNL     1      11.903   9.094  19.565  0.00  0.00    -0.293 NA
ATOM     16  C   UNL     1      13.362   8.942  19.492  0.00  0.00    +0.086 C 
ATOM     17  C   UNL     1      11.224   8.093  18.730  0.00  0.00    +0.086 C 
ATOM     18  C   UNL     1      13.863   9.094  18.055  0.00  0.00    +0.030 C 
ATOM     19  C   UNL     1      11.650   8.215  17.265  0.00  0.00    +0.030 C 
ATOM     20  C   UNL     1      13.168   8.107  17.119  0.00  0.00    +0.100 C 
BRANCH  20  21
ATOM      5  O   UNL     1      12.766   8.713  14.825  0.00  0.00    -0.251 OA
ATOM     21  C   UNL     1      13.555   8.379  15.699  0.00  0.00    +0.310 C 
BRANCH  21   4
ATOM      4  O   UNL     1      14.898   8.195  15.550  0.00  0.00    -0.468 OA
ATOM     24  C   UNL     1      15.515   8.976  14.522  0.00  0.00    +0.280 C 
ENDBRANCH  21   4
ENDBRANCH  20  21
ENDBRANCH  10   7
BRANCH  11   3
ATOM      3  O   UNL     1      12.372   9.076  23.173  0.00  0.00    -0.388 OA
ATOM     28  H   UNL     1      12.000   8.364  23.720  0.00  0.00    +0.210 HD
ENDBRANCH  11   3
TORSDOF 7
ENDMDL
MODEL 5
REMARK VINA RESULT:      -1.5     15.769     18.057
REMARK  Name = 28960252
REMARK  8 active torsions:
REMARK  status: ('A' for Active; 'I' for Inactive)
REMARK    1  A    between atoms: O_3  and  C_11
REMARK    2  A    between atoms: O_4  and  C_21
REMARK    3  A    between atoms: O_4  and  C_24
REMARK    4  A    between atoms: N_7  and  C_10
REMARK    5  A    between atoms: N_8  and  C_12
REMARK    6  A    between atoms: N_9  and  C_23
REMARK    7  A    between atoms: C_20  and  C_21
REMARK    8  A    between atoms: C_23  and  C_25
REMARK                            x       y       z     vdW  Elec       q    Type
REMARK                         _______ _______ _______ _____ _____    ______ ____
ROOT
ATOM      1  O   UNL     1      -4.287   3.484  23.515  0.00  0.00    -0.342 OA
ATOM      2  O   UNL     1      -4.606   4.935  25.296  0.00  0.00    -0.347 OA
ATOM     10  C   UNL     1      -2.808   3.322  25.412  0.00  0.00    +0.143 C 
ATOM     11  C   UNL     1      -3.746   2.292  26.081  0.00  0.00    +0.159 C 
ATOM     12  C   UNL     1      -4.937   1.877  25.190  0.00  0.00    +0.136 C 
ATOM     13  C   UNL     1      -3.608   4.272  24.502  0.00  0.00    +0.270 C 
ATOM     14  C   UNL     1      -5.417   3.004  24.251  0.00  0.00    +0.170 C 
ATOM     15  C   UNL     1      -5.838   4.273  24.969  0.00  0.00    +0.196 C 
ENDROOT
BRANCH  12   8
ATOM      6  O   UNL     1      -4.047  -0.676  26.197  0.00  0.00    -0.253 OA
ATOM      8  N   UNL     1      -4.595   0.705  24.413  0.00  0.00    -0.291 N 
ATOM      9  N   UNL     1      -3.909  -1.449  24.013  0.00  0.00    -0.296 N 
ATOM     22  C   UNL     1      -4.172  -0.489  24.987  0.00  0.00    +0.300 C 
ATOM     27  H   UNL     1      -4.589   0.783  23.401  0.00  0.00    +0.151 HD
ATOM     29  H   UNL     1      -4.062  -1.210  23.038  0.00  0.00    +0.151 HD
BRANCH   9  23
ATOM     23  C   UNL     1      -3.455  -2.782  24.331  0.00  0.00    +0.132 C 
BRANCH  23  25
ATOM     25  C   UNL     1      -1.971  -2.838  24.194  0.00  0.00    -0.016 C 
ATOM     26  C   UNL     1      -1.118  -2.437  25.144  0.00  0.00    +0.005 C 
ENDBRANCH  23  25
ENDBRANCH   9  23
ENDBRANCH  12   8
BRANCH  10   7
ATOM      7  N   UNL     1      -1.781   2.635  24.628  0.00  0.00    -0.293 NA
ATOM     16  C   UNL     1      -0.628   3.517  24.405  0.00  0.00    +0.086 C 
ATOM     17  C   UNL     1      -1.374   1.390  25.293  0.00  0.00    +0.086 C 
ATOM     18  C   UNL     1       0.432   2.833  23.540  0.00  0.00    +0.030 C 
ATOM     19  C   UNL     1      -0.339   0.630  24.460  0.00  0.00    +0.030 C 
ATOM     20  C   UNL     1       0.875   1.506  24.154  0.00  0.00    +0.100 C 
BRANCH  20  21
ATOM      5  O   UNL     1       1.475  -0.217  22.583  0.00  0.00    -0.251 OA
ATOM     21  C   UNL     1       1.791   0.782  23.217  0.00  0.00    +0.310 C 
BRANCH  21   4
ATOM      4  O   UNL     1       3.003   1.407  23.191  0.00  0.00    -0.468 OA
ATOM     24  C   UNL     1       4.113   0.580  22.828  0.00  0.00    +0.280 C 
ENDBRANCH  21   4
ENDBRANCH  20  21
ENDBRANCH  10   7
BRANCH  11   3
ATOM      3  O   UNL     1      -4.254   2.881  27.285  0.00  0.00    -0.388 OA
ATOM     28  H   UNL     1      -4.614   2.163  27.834  0.00  0.00    +0.210 HD
ENDBRANCH  11   3
TORSDOF 7
ENDMDL
MODEL 6
REMARK VINA RESULT:      -0.5     26.178     29.125
REMARK  Name = 28960252
REMARK  8 active torsions:
REMARK  status: ('A' for Active; 'I' for Inactive)
REMARK    1  A    between atoms: O_3  and  C_11
REMARK    2  A    between atoms: O_4  and  C_21
REMARK    3  A    between atoms: O_4  and  C_24
REMARK    4  A    between atoms: N_7  and  C_10
REMARK    5  A    between atoms: N_8  and  C_12
REMARK    6  A    between atoms: N_9  and  C_23
REMARK    7  A    between atoms: C_20  and  C_21
REMARK    8  A    between atoms: C_23  and  C_25
REMARK                            x       y       z     vdW  Elec       q    Type
REMARK                         _______ _______ _______ _____ _____    ______ ____
ROOT
ATOM      1  O   UNL     1      14.563  -8.121  29.400  0.00  0.00    -0.342 OA
ATOM      2  O   UNL     1      16.423  -9.332  28.729  0.00  0.00    -0.347 OA
ATOM     10  C   UNL     1      15.162 -10.096  30.646  0.00  0.00    +0.143 C 
ATOM     11  C   UNL     1      16.049  -9.254  31.593  0.00  0.00    +0.159 C 
ATOM     12  C   UNL     1      15.967  -7.736  31.322  0.00  0.00    +0.136 C 
ATOM     13  C   UNL     1      15.090  -9.446  29.252  0.00  0.00    +0.270 C 
ATOM     14  C   UNL     1      15.716  -7.395  29.838  0.00  0.00    +0.170 C 
ATOM     15  C   UNL     1      16.765  -7.946  28.889  0.00  0.00    +0.196 C 
ENDROOT
BRANCH  12   8
ATOM      6  O   UNL     1      14.834  -5.097  31.039  0.00  0.00    -0.253 OA
ATOM      8  N   UNL     1      14.936  -7.138  32.142  0.00  0.00    -0.291 N 
ATOM      9  N   UNL     1      13.465  -5.529  32.862  0.00  0.00    -0.296 N 
ATOM     22  C   UNL     1      14.449  -5.852  31.931  0.00  0.00    +0.300 C 
ATOM     27  H   UNL     1      14.608  -7.651  32.955  0.00  0.00    +0.151 HD
ATOM     29  H   UNL     1      13.196  -6.225  33.551  0.00  0.00    +0.151 HD
BRANCH   9  23
ATOM     23  C   UNL     1      12.788  -4.254  32.873  0.00  0.00    +0.132 C 
BRANCH  23  25
ATOM     25  C   UNL     1      11.466  -4.397  32.195  0.00  0.00    -0.016 C 
ATOM     26  C   UNL     1      10.382  -4.919  32.779  0.00  0.00    +0.005 C 
ENDBRANCH  23  25
ENDBRANCH   9  23
ENDBRANCH  12   8
BRANCH  10   7
ATOM      7  N   UNL     1      13.814 -10.227  31.202  0.00  0.00    -0.293 NA
ATOM     16  C   UNL     1      13.587  -9.216  32.243  0.00  0.00    +0.086 C 
ATOM     17  C   UNL     1      12.807 -10.128  30.137  0.00  0.00    +0.086 C 
ATOM     18  C   UNL     1      12.202  -9.375  32.873  0.00  0.00    +0.030 C 
ATOM     19  C   UNL     1      11.394 -10.318  30.694  0.00  0.00    +0.030 C 
ATOM     20  C   UNL     1      11.102  -9.321  31.815  0.00  0.00    +0.100 C 
BRANCH  20  21
ATOM      5  O   UNL     1       9.439 -10.750  32.806  0.00  0.00    -0.251 OA
ATOM     21  C   UNL     1       9.774  -9.635  32.431  0.00  0.00    +0.310 C 
BRANCH  21   4
ATOM      4  O   UNL     1       9.025  -8.498  32.500  0.00  0.00    -0.468 OA
ATOM     24  C   UNL     1       7.772  -8.545  31.810  0.00  0.00    +0.280 C 
ENDBRANCH  21   4
ENDBRANCH  20  21
ENDBRANCH  10   7
BRANCH  11   3
ATOM      3  O   UNL     1      17.405  -9.682  31.416  0.00  0.00    -0.388 OA
ATOM     28  H   UNL     1      17.662 -10.179  32.211  0.00  0.00    +0.210 HD
ENDBRANCH  11   3
TORSDOF 7
ENDMDL
MODEL 7
REMARK VINA RESULT:      -0.0     15.936     18.687
REMARK  Name = 28960252
REMARK  8 active torsions:
REMARK  status: ('A' for Active; 'I' for Inactive)
REMARK    1  A    between atoms: O_3  and  C_11
REMARK    2  A    between atoms: O_4  and  C_21
REMARK    3  A    between atoms: O_4  and  C_24
REMARK    4  A    between atoms: N_7  and  C_10
REMARK    5  A    between atoms: N_8  and  C_12
REMARK    6  A    between atoms: N_9  and  C_23
REMARK    7  A    between atoms: C_20  and  C_21
REMARK    8  A    between atoms: C_23  and  C_25
REMARK                            x       y       z     vdW  Elec       q    Type
REMARK                         _______ _______ _______ _____ _____    ______ ____
ROOT
ATOM      1  O   UNL     1      -1.497   3.210  23.708  0.00  0.00    -0.342 OA
ATOM      2  O   UNL     1       0.766   3.699  23.856  0.00  0.00    -0.347 OA
ATOM     10  C   UNL     1      -0.063   1.679  24.897  0.00  0.00    +0.143 C 
ATOM     11  C   UNL     1      -0.315   2.439  26.220  0.00  0.00    +0.159 C 
ATOM     12  C   UNL     1      -1.352   3.575  26.087  0.00  0.00    +0.136 C 
ATOM     13  C   UNL     1      -0.184   2.633  23.695  0.00  0.00    +0.270 C 
ATOM     14  C   UNL     1      -1.352   4.238  24.694  0.00  0.00    +0.170 C 
ATOM     15  C   UNL     1      -0.014   4.826  24.285  0.00  0.00    +0.196 C 
ENDROOT
BRANCH  12   8
ATOM      6  O   UNL     1      -3.808   4.222  24.719  0.00  0.00    -0.253 OA
ATOM      8  N   UNL     1      -2.677   3.081  26.395  0.00  0.00    -0.291 N 
ATOM      9  N   UNL     1      -4.949   2.830  26.184  0.00  0.00    -0.296 N 
ATOM     22  C   UNL     1      -3.810   3.450  25.677  0.00  0.00    +0.300 C 
ATOM     27  H   UNL     1      -2.795   2.499  27.218  0.00  0.00    +0.151 HD
ATOM     29  H   UNL     1      -4.849   2.190  26.966  0.00  0.00    +0.151 HD
BRANCH   9  23
ATOM     23  C   UNL     1      -6.264   3.035  25.626  0.00  0.00    +0.132 C 
BRANCH  23  25
ATOM     25  C   UNL     1      -6.640   1.844  24.809  0.00  0.00    -0.016 C 
ATOM     26  C   UNL     1      -5.834   0.796  24.606  0.00  0.00    +0.005 C 
ENDBRANCH  23  25
ENDBRANCH   9  23
ENDBRANCH  12   8
BRANCH  10   7
ATOM      7  N   UNL     1      -1.019   0.580  24.756  0.00  0.00    -0.293 NA
ATOM     16  C   UNL     1      -0.392  -0.563  24.080  0.00  0.00    +0.086 C 
ATOM     17  C   UNL     1      -1.553   0.191  26.068  0.00  0.00    +0.086 C 
ATOM     18  C   UNL     1      -1.393  -1.701  23.875  0.00  0.00    +0.030 C 
ATOM     19  C   UNL     1      -2.595  -0.920  25.934  0.00  0.00    +0.030 C 
ATOM     20  C   UNL     1      -2.021  -2.131  25.199  0.00  0.00    +0.100 C 
BRANCH  20  21
ATOM      5  O   UNL     1      -3.547  -3.889  25.813  0.00  0.00    -0.251 OA
ATOM     21  C   UNL     1      -3.108  -3.132  24.956  0.00  0.00    +0.310 C 
BRANCH  21   4
ATOM      4  O   UNL     1      -3.513  -3.058  23.657  0.00  0.00    -0.468 OA
ATOM     24  C   UNL     1      -4.724  -2.330  23.431  0.00  0.00    +0.280 C 
ENDBRANCH  21   4
ENDBRANCH  20  21
ENDBRANCH  10   7
BRANCH  11   3
ATOM      3  O   UNL     1       0.933   3.000  26.647  0.00  0.00    -0.388 OA
ATOM     28  H   UNL     1       1.422   2.304  27.118  0.00  0.00    +0.210 HD
ENDBRANCH  11   3
TORSDOF 7
ENDMDL
MODEL 8
REMARK VINA RESULT:       0.0     15.701     18.140
REMARK  Name = 28960252
REMARK  8 active torsions:
REMARK  status: ('A' for Active; 'I' for Inactive)
REMARK    1  A    between atoms: O_3  and  C_11
REMARK    2  A    between atoms: O_4  and  C_21
REMARK    3  A    between atoms: O_4  and  C_24
REMARK    4  A    between atoms: N_7  and  C_10
REMARK    5  A    between atoms: N_8  and  C_12
REMARK    6  A    between atoms: N_9  and  C_23
REMARK    7  A    between atoms: C_20  and  C_21
REMARK    8  A    between atoms: C_23  and  C_25
REMARK                            x       y       z     vdW  Elec       q    Type
REMARK                         _______ _______ _______ _____ _____    ______ ____
ROOT
ATOM      1  O   UNL     1      -1.859  -1.154  25.989  0.00  0.00    -0.342 OA
ATOM      2  O   UNL     1      -2.127  -3.084  24.731  0.00  0.00    -0.347 OA
ATOM     10  C   UNL     1      -2.167  -0.942  23.607  0.00  0.00    +0.143 C 
ATOM     11  C   UNL     1      -3.699  -0.848  23.794  0.00  0.00    +0.159 C 
ATOM     12  C   UNL     1      -4.136  -0.816  25.274  0.00  0.00    +0.136 C 
ATOM     13  C   UNL     1      -1.535  -1.774  24.737  0.00  0.00    +0.270 C 
ATOM     14  C   UNL     1      -3.197  -1.613  26.204  0.00  0.00    +0.170 C 
ATOM     15  C   UNL     1      -3.050  -3.076  25.831  0.00  0.00    +0.196 C 
ENDROOT
BRANCH  12   8
ATOM      6  O   UNL     1      -6.205   1.089  24.630  0.00  0.00    -0.253 OA
ATOM      8  N   UNL     1      -4.235   0.553  25.735  0.00  0.00    -0.291 N 
ATOM      9  N   UNL     1      -5.123   2.658  25.954  0.00  0.00    -0.296 N 
ATOM     22  C   UNL     1      -5.274   1.403  25.370  0.00  0.00    +0.300 C 
ATOM     27  H   UNL     1      -3.472   0.932  26.288  0.00  0.00    +0.151 HD
ATOM     29  H   UNL     1      -4.332   2.819  26.569  0.00  0.00    +0.151 HD
BRANCH   9  23
ATOM     23  C   UNL     1      -6.061   3.736  25.744  0.00  0.00    +0.132 C 
BRANCH  23  25
ATOM     25  C   UNL     1      -5.389   4.826  24.978  0.00  0.00    -0.016 C 
ATOM     26  C   UNL     1      -4.540   4.612  23.966  0.00  0.00    +0.005 C 
ENDBRANCH  23  25
ENDBRANCH   9  23
ENDBRANCH  12   8
BRANCH  10   7
ATOM      7  N   UNL     1      -1.578   0.397  23.589  0.00  0.00    -0.293 NA
ATOM     16  C   UNL     1      -2.595   1.401  23.245  0.00  0.00    +0.086 C 
ATOM     17  C   UNL     1      -0.951   0.701  24.882  0.00  0.00    +0.086 C 
ATOM     18  C   UNL     1      -1.984   2.801  23.168  0.00  0.00    +0.030 C 
ATOM     19  C   UNL     1      -0.283   2.077  24.863  0.00  0.00    +0.030 C 
ATOM     20  C   UNL     1      -1.276   3.169  24.470  0.00  0.00    +0.100 C 
BRANCH  20  21
ATOM      5  O   UNL     1       0.363   4.660  23.531  0.00  0.00    -0.251 OA
ATOM     21  C   UNL     1      -0.555   4.473  24.318  0.00  0.00    +0.310 C 
BRANCH  21   4
ATOM      4  O   UNL     1      -1.081   5.388  25.181  0.00  0.00    -0.468 OA
ATOM     24  C   UNL     1      -2.130   4.904  26.025  0.00  0.00    +0.280 C 
ENDBRANCH  21   4
ENDBRANCH  20  21
ENDBRANCH  10   7
BRANCH  11   3
ATOM      3  O   UNL     1      -4.287  -1.994  23.164  0.00  0.00    -0.388 OA
ATOM     28  H   UNL     1      -5.251  -1.870  23.170  0.00  0.00    +0.210 HD
ENDBRANCH  11   3
TORSDOF 7
ENDMDL
MODEL 9
REMARK VINA RESULT:       0.2     16.115     18.051
REMARK  Name = 28960252
REMARK  8 active torsions:
REMARK  status: ('A' for Active; 'I' for Inactive)
REMARK    1  A    between atoms: O_3  and  C_11
REMARK    2  A    between atoms: O_4  and  C_21
REMARK    3  A    between atoms: O_4  and  C_24
REMARK    4  A    between atoms: N_7  and  C_10
REMARK    5  A    between atoms: N_8  and  C_12
REMARK    6  A    between atoms: N_9  and  C_23
REMARK    7  A    between atoms: C_20  and  C_21
REMARK    8  A    between atoms: C_23  and  C_25
REMARK                            x       y       z     vdW  Elec       q    Type
REMARK                         _______ _______ _______ _____ _____    ______ ____
ROOT
ATOM      1  O   UNL     1      -1.700  -1.331  26.167  0.00  0.00    -0.342 OA
ATOM      2  O   UNL     1      -3.018  -2.744  24.885  0.00  0.00    -0.347 OA
ATOM     10  C   UNL     1      -1.482  -1.247  23.767  0.00  0.00    +0.143 C 
ATOM     11  C   UNL     1      -2.572  -0.154  23.686  0.00  0.00    +0.159 C 
ATOM     12  C   UNL     1      -3.061   0.328  25.069  0.00  0.00    +0.136 C 
ATOM     13  C   UNL     1      -1.713  -2.152  24.991  0.00  0.00    +0.270 C 
ATOM     14  C   UNL     1      -3.018  -0.774  26.148  0.00  0.00    +0.170 C 
ATOM     15  C   UNL     1      -3.834  -2.007  25.809  0.00  0.00    +0.196 C 
ENDROOT
BRANCH  12   8
ATOM      6  O   UNL     1      -3.616   3.111  24.542  0.00  0.00    -0.253 OA
ATOM      8  N   UNL     1      -2.284   1.470  25.504  0.00  0.00    -0.291 N 
ATOM      9  N   UNL     1      -1.712   3.680  25.740  0.00  0.00    -0.296 N 
ATOM     22  C   UNL     1      -2.629   2.783  25.200  0.00  0.00    +0.300 C 
ATOM     27  H   UNL     1      -1.407   1.300  25.986  0.00  0.00    +0.151 HD
ATOM     29  H   UNL     1      -0.938   3.317  26.288  0.00  0.00    +0.151 HD
BRANCH   9  23
ATOM     23  C   UNL     1      -1.829   5.110  25.578  0.00  0.00    +0.132 C 
BRANCH  23  25
ATOM     25  C   UNL     1      -0.815   5.573  24.586  0.00  0.00    -0.016 C 
ATOM     26  C   UNL     1      -0.102   4.750  23.809  0.00  0.00    +0.005 C 
ENDBRANCH  23  25
ENDBRANCH   9  23
ENDBRANCH  12   8
BRANCH  10   7
ATOM      7  N   UNL     1      -0.156  -0.633  23.849  0.00  0.00    -0.293 NA
ATOM     16  C   UNL     1       0.848  -1.488  23.201  0.00  0.00    +0.086 C 
ATOM     17  C   UNL     1      -0.173   0.709  23.253  0.00  0.00    +0.086 C 
ATOM     18  C   UNL     1       2.249  -0.886  23.326  0.00  0.00    +0.030 C 
ATOM     19  C   UNL     1       1.192   1.388  23.378  0.00  0.00    +0.030 C 
ATOM     20  C   UNL     1       2.295   0.531  22.759  0.00  0.00    +0.100 C 
BRANCH  20  21
ATOM      5  O   UNL     1       3.986   2.235  22.580  0.00  0.00    -0.251 OA
ATOM     21  C   UNL     1       3.629   1.155  23.033  0.00  0.00    +0.310 C 
BRANCH  21   4
ATOM      4  O   UNL     1       4.354   0.339  23.850  0.00  0.00    -0.468 OA
ATOM     24  C   UNL     1       5.710   0.118  23.450  0.00  0.00    +0.280 C 
ENDBRANCH  21   4
ENDBRANCH  20  21
ENDBRANCH  10   7
BRANCH  11   3
ATOM      3  O   UNL     1      -3.685  -0.699  22.967  0.00  0.00    -0.388 OA
ATOM     28  H   UNL     1      -4.445  -0.109  23.111  0.00  0.00    +0.210 HD
ENDBRANCH  11   3
TORSDOF 7
ENDMDL
MODEL 10
REMARK VINA RESULT:       0.2     15.898     18.954
REMARK  Name = 28960252
REMARK  8 active torsions:
REMARK  status: ('A' for Active; 'I' for Inactive)
REMARK    1  A    between atoms: O_3  and  C_11
REMARK    2  A    between atoms: O_4  and  C_21
REMARK    3  A    between atoms: O_4  and  C_24
REMARK    4  A    between atoms: N_7  and  C_10
REMARK    5  A    between atoms: N_8  and  C_12
REMARK    6  A    between atoms: N_9  and  C_23
REMARK    7  A    between atoms: C_20  and  C_21
REMARK    8  A    between atoms: C_23  and  C_25
REMARK                            x       y       z     vdW  Elec       q    Type
REMARK                         _______ _______ _______ _____ _____    ______ ____
ROOT
ATOM      1  O   UNL     1      -1.188   3.085  26.591  0.00  0.00    -0.342 OA
ATOM      2  O   UNL     1       0.532   4.107  25.418  0.00  0.00    -0.347 OA
ATOM     10  C   UNL     1      -1.337   3.190  24.187  0.00  0.00    +0.143 C 
ATOM     11  C   UNL     1      -0.615   1.828  24.063  0.00  0.00    +0.159 C 
ATOM     12  C   UNL     1      -0.338   1.154  25.424  0.00  0.00    +0.136 C 
ATOM     13  C   UNL     1      -0.893   3.923  25.465  0.00  0.00    +0.270 C 
ATOM     14  C   UNL     1      -0.092   2.164  26.564  0.00  0.00    +0.170 C 
ATOM     15  C   UNL     1       1.062   3.116  26.312  0.00  0.00    +0.196 C 
ENDROOT
BRANCH  12   8
ATOM      6  O   UNL     1      -0.761  -1.546  24.500  0.00  0.00    -0.253 OA
ATOM      8  N   UNL     1      -1.431   0.274  25.777  0.00  0.00    -0.291 N 
ATOM      9  N   UNL     1      -2.694  -1.643  25.780  0.00  0.00    -0.296 N 
ATOM     22  C   UNL     1      -1.555  -1.020  25.280  0.00  0.00    +0.300 C 
ATOM     27  H   UNL     1      -2.181   0.643  26.353  0.00  0.00    +0.151 HD
ATOM     29  H   UNL     1      -3.280  -1.136  26.436  0.00  0.00    +0.151 HD
BRANCH   9  23
ATOM     23  C   UNL     1      -3.066  -2.993  25.428  0.00  0.00    +0.132 C 
BRANCH  23  25
ATOM     25  C   UNL     1      -3.922  -2.960  24.206  0.00  0.00    -0.016 C 
ATOM     26  C   UNL     1      -4.414  -1.837  23.670  0.00  0.00    +0.005 C 
ENDBRANCH  23  25
ENDBRANCH   9  23
ENDBRANCH  12   8
BRANCH  10   7
ATOM      7  N   UNL     1      -2.787   2.992  24.208  0.00  0.00    -0.293 NA
ATOM     16  C   UNL     1      -3.113   1.566  24.070  0.00  0.00    +0.086 C 
ATOM     17  C   UNL     1      -3.365   3.550  25.438  0.00  0.00    +0.086 C 
ATOM     18  C   UNL     1      -4.627   1.346  24.035  0.00  0.00    +0.030 C 
ATOM     19  C   UNL     1      -4.887   3.400  25.451  0.00  0.00    +0.030 C 
ATOM     20  C   UNL     1      -5.301   1.941  25.270  0.00  0.00    +0.100 C 
BRANCH  20  21
ATOM      5  O   UNL     1      -7.377   1.692  24.077  0.00  0.00    -0.251 OA
ATOM     21  C   UNL     1      -6.790   1.854  25.139  0.00  0.00    +0.310 C 
BRANCH  21   4
ATOM      4  O   UNL     1      -7.364   1.984  26.369  0.00  0.00    -0.468 OA
ATOM     24  C   UNL     1      -6.717   1.268  27.426  0.00  0.00    +0.280 C 
ENDBRANCH  21   4
ENDBRANCH  20  21
ENDBRANCH  10   7
BRANCH  11   3
ATOM      3  O   UNL     1       0.634   2.055  23.397  0.00  0.00    -0.388 OA
ATOM     28  H   UNL     1       0.812   1.281  22.836  0.00  0.00    +0.210 HD
ENDBRANCH  11   3
TORSDOF 7
ENDMDL
