MODEL 1
REMARK VINA RESULT:       8.8      0.000      0.000
REMARK  Name = 40779459
REMARK  6 active torsions:
REMARK  status: ('A' for Active; 'I' for Inactive)
REMARK    1  A    between atoms: N_5  and  C_19
REMARK    2  A    between atoms: N_6  and  C_16
REMARK    3  A    between atoms: C_9  and  C_15
REMARK    4  A    between atoms: C_10  and  C_16
REMARK    5  A    between atoms: C_18  and  C_21
REMARK    6  A    between atoms: C_20  and  C_22
REMARK                            x       y       z     vdW  Elec       q    Type
REMARK                         _______ _______ _______ _____ _____    ______ ____
ROOT
ATOM      4  N   UNL     1      -4.999   4.294  24.884  0.00  0.00    -0.297 NA
ATOM      8  C   UNL     1      -2.570   4.344  25.823  0.00  0.00    +0.002 C 
ATOM      9  C   UNL     1      -2.560   4.005  24.307  0.00  0.00    +0.055 C 
ATOM     10  C   UNL     1      -4.913   3.466  26.116  0.00  0.00    +0.074 C 
ATOM     11  C   UNL     1      -3.446   3.315  26.570  0.00  0.00    +0.024 C 
ATOM     12  C   UNL     1      -3.261   5.717  25.968  0.00  0.00    +0.019 C 
ATOM     13  C   UNL     1      -4.037   3.795  23.869  0.00  0.00    +0.094 C 
ATOM     14  C   UNL     1      -4.617   5.681  25.240  0.00  0.00    +0.085 C 
ENDROOT
BRANCH   9  15
ATOM      5  N   UNL     1      -2.011   1.996  22.857  0.00  0.00    -0.270 N 
ATOM      7  N   UNL     1      -1.066   1.082  22.578  0.00  0.00    -0.171 NA
ATOM     15  C   UNL     1      -1.650   2.883  23.828  0.00  0.00    +0.044 A 
ATOM     17  C   UNL     1      -0.380   2.524  24.212  0.00  0.00    +0.053 A 
ATOM     18  C   UNL     1      -0.073   1.409  23.409  0.00  0.00    +0.093 A 
ATOM     19  C   UNL     1      -3.264   1.958  22.138  0.00  0.00    +0.172 C 
BRANCH  18  21
ATOM     21  C   UNL     1       1.150   0.651  23.420  0.00  0.00    +0.003 A 
ATOM     23  C   UNL     1       2.379   1.309  23.470  0.00  0.00    +0.018 A 
ATOM     24  C   UNL     1       1.107  -0.740  23.383  0.00  0.00    +0.011 A 
ATOM     25  C   UNL     1       3.582   0.584  23.483  0.00  0.00    -0.017 A 
ATOM     28  C   UNL     1       2.291  -1.477  23.394  0.00  0.00    +0.009 A 
ATOM     29  C   UNL     1       3.537  -0.830  23.444  0.00  0.00    -0.018 A 
ATOM     32  C   UNL     1       4.827   1.231  23.532  0.00  0.00    +0.008 A 
ATOM     34  C   UNL     1       4.739  -1.556  23.456  0.00  0.00    +0.008 A 
ATOM     35  C   UNL     1       6.012   0.493  23.544  0.00  0.00    +0.001 A 
ATOM     36  C   UNL     1       5.967  -0.897  23.506  0.00  0.00    +0.001 A 
ENDBRANCH  18  21
ENDBRANCH   9  15
BRANCH  10  16
ATOM     16  C   UNL     1      -5.603   2.110  25.956  0.00  0.00    +0.123 C 
BRANCH  16   6
ATOM      1  O   UNL     1      -5.605   0.058  23.947  0.00  0.00    -0.270 OA
ATOM      6  N   UNL     1      -4.640   1.064  25.803  0.00  0.00    -0.310 N 
ATOM     20  C   UNL     1      -4.717   0.104  24.794  0.00  0.00    +0.244 C 
ATOM     38  H   UNL     1      -3.928   0.991  26.522  0.00  0.00    +0.149 HD
BRANCH  20  22
ATOM      2  O   UNL     1      -0.246  -1.614  25.966  0.00  0.00    -0.453 OA
ATOM      3  O   UNL     1      -0.633  -3.712  24.845  0.00  0.00    -0.453 OA
ATOM     22  C   UNL     1      -3.654  -0.933  24.788  0.00  0.00    +0.040 A 
ATOM     26  C   UNL     1      -2.439  -0.684  25.431  0.00  0.00    +0.062 A 
ATOM     27  C   UNL     1      -3.879  -2.158  24.134  0.00  0.00    +0.017 A 
ATOM     30  C   UNL     1      -1.482  -1.677  25.399  0.00  0.00    +0.167 A 
ATOM     31  C   UNL     1      -2.893  -3.146  24.116  0.00  0.00    +0.050 A 
ATOM     33  C   UNL     1      -1.703  -2.875  24.758  0.00  0.00    +0.166 A 
ATOM     37  C   UNL     1       0.286  -2.907  25.611  0.00  0.00    +0.466 C 
ENDBRANCH  20  22
ENDBRANCH  16   6
ENDBRANCH  10  16
TORSDOF 5
ENDMDL
MODEL 2
REMARK VINA RESULT:      10.1      2.734      4.413
REMARK  Name = 40779459
REMARK  6 active torsions:
REMARK  status: ('A' for Active; 'I' for Inactive)
REMARK    1  A    between atoms: N_5  and  C_19
REMARK    2  A    between atoms: N_6  and  C_16
REMARK    3  A    between atoms: C_9  and  C_15
REMARK    4  A    between atoms: C_10  and  C_16
REMARK    5  A    between atoms: C_18  and  C_21
REMARK    6  A    between atoms: C_20  and  C_22
REMARK                            x       y       z     vdW  Elec       q    Type
REMARK                         _______ _______ _______ _____ _____    ______ ____
ROOT
ATOM      4  N   UNL     1      -4.681   2.686  25.778  0.00  0.00    -0.297 NA
ATOM      8  C   UNL     1      -4.515   1.115  23.707  0.00  0.00    +0.002 C 
ATOM      9  C   UNL     1      -3.627   0.583  24.865  0.00  0.00    +0.055 C 
ATOM     10  C   UNL     1      -4.397   3.484  24.556  0.00  0.00    +0.074 C 
ATOM     11  C   UNL     1      -4.091   2.558  23.360  0.00  0.00    +0.024 C 
ATOM     12  C   UNL     1      -5.959   1.185  24.250  0.00  0.00    +0.019 C 
ATOM     13  C   UNL     1      -3.619   1.669  25.979  0.00  0.00    +0.094 C 
ATOM     14  C   UNL     1      -5.966   1.977  25.569  0.00  0.00    +0.085 C 
ENDROOT
BRANCH   9  15
ATOM      5  N   UNL     1      -1.911  -1.232  24.412  0.00  0.00    -0.270 N 
ATOM      7  N   UNL     1      -0.621  -1.457  24.110  0.00  0.00    -0.171 NA
ATOM     15  C   UNL     1      -2.227   0.090  24.528  0.00  0.00    +0.044 A 
ATOM     17  C   UNL     1      -1.062   0.778  24.286  0.00  0.00    +0.053 A 
ATOM     18  C   UNL     1      -0.107  -0.227  24.035  0.00  0.00    +0.093 A 
ATOM     19  C   UNL     1      -2.804  -2.355  24.580  0.00  0.00    +0.172 C 
BRANCH  18  21
ATOM     21  C   UNL     1       1.285  -0.033  23.725  0.00  0.00    +0.003 A 
ATOM     23  C   UNL     1       2.206  -1.046  23.990  0.00  0.00    +0.018 A 
ATOM     24  C   UNL     1       1.711   1.166  23.161  0.00  0.00    +0.011 A 
ATOM     25  C   UNL     1       3.568  -0.874  23.693  0.00  0.00    -0.017 A 
ATOM     28  C   UNL     1       3.060   1.356  22.861  0.00  0.00    +0.009 A 
ATOM     29  C   UNL     1       4.001   0.346  23.120  0.00  0.00    -0.018 A 
ATOM     32  C   UNL     1       4.508  -1.883  23.953  0.00  0.00    +0.008 A 
ATOM     34  C   UNL     1       5.363   0.520  22.824  0.00  0.00    +0.008 A 
ATOM     35  C   UNL     1       5.858  -1.693  23.652  0.00  0.00    +0.001 A 
ATOM     36  C   UNL     1       6.284  -0.494  23.088  0.00  0.00    +0.001 A 
ENDBRANCH  18  21
ENDBRANCH   9  15
BRANCH  10  16
ATOM     16  C   UNL     1      -3.287   4.513  24.778  0.00  0.00    +0.123 C 
BRANCH  16   6
ATOM      1  O   UNL     1      -0.557   3.661  24.525  0.00  0.00    -0.270 OA
ATOM      6  N   UNL     1      -2.418   4.106  25.838  0.00  0.00    -0.310 N 
ATOM     20  C   UNL     1      -1.100   3.705  25.626  0.00  0.00    +0.244 C 
ATOM     38  H   UNL     1      -2.830   4.036  26.763  0.00  0.00    +0.149 HD
BRANCH  20  22
ATOM      2  O   UNL     1       3.062   2.571  28.015  0.00  0.00    -0.453 OA
ATOM      3  O   UNL     1       1.894   2.134  30.077  0.00  0.00    -0.453 OA
ATOM     22  C   UNL     1      -0.336   3.286  26.829  0.00  0.00    +0.040 A 
ATOM     26  C   UNL     1       1.052   3.148  26.755  0.00  0.00    +0.062 A 
ATOM     27  C   UNL     1      -1.017   3.031  28.033  0.00  0.00    +0.017 A 
ATOM     30  C   UNL     1       1.719   2.757  27.898  0.00  0.00    +0.167 A 
ATOM     31  C   UNL     1      -0.318   2.636  29.175  0.00  0.00    +0.050 A 
ATOM     33  C   UNL     1       1.051   2.507  29.076  0.00  0.00    +0.166 A 
ATOM     37  C   UNL     1       3.166   2.177  29.399  0.00  0.00    +0.466 C 
ENDBRANCH  20  22
ENDBRANCH  16   6
ENDBRANCH  10  16
TORSDOF 5
ENDMDL
