MODEL 1
REMARK VINA RESULT:       2.3      0.000      0.000
REMARK  Name = 11867599
REMARK  11 active torsions:
REMARK  status: ('A' for Active; 'I' for Inactive)
REMARK    1  A    between atoms: O_5  and  C_20
REMARK    2  A    between atoms: O_5  and  C_32
REMARK    3  A    between atoms: O_6  and  C_23
REMARK    4  A    between atoms: O_6  and  C_34
REMARK    5  A    between atoms: N_10  and  C_19
REMARK    6  A    between atoms: C_12  and  C_16
REMARK    7  A    between atoms: C_17  and  C_20
REMARK    8  A    between atoms: C_18  and  C_22
REMARK    9  A    between atoms: C_19  and  C_21
REMARK   10  A    between atoms: C_19  and  C_23
REMARK   11  A    between atoms: C_21  and  C_24
REMARK                            x       y       z     vdW  Elec       q    Type
REMARK                         _______ _______ _______ _____ _____    ______ ____
ROOT
ATOM      3  O   UNL     1      -3.409   3.698  24.304  0.00  0.00    -0.273 OA
ATOM      4  O   UNL     1       1.193  -0.730  21.316  0.00  0.00    -0.270 OA
ATOM      8  N   UNL     1      -1.254   2.909  23.922  0.00  0.00    -0.285 N 
ATOM      9  N   UNL     1       0.616   0.943  22.843  0.00  0.00    -0.294 N 
ATOM     12  C   UNL     1      -1.726   1.763  23.140  0.00  0.00    +0.179 C 
ATOM     13  C   UNL     1      -0.665   1.213  22.189  0.00  0.00    +0.140 C 
ATOM     14  C   UNL     1       0.200   3.086  24.034  0.00  0.00    +0.127 C 
ATOM     15  C   UNL     1       0.955   1.764  24.010  0.00  0.00    +0.127 C 
ATOM     17  C   UNL     1      -2.187   3.839  24.393  0.00  0.00    +0.242 C 
ATOM     18  C   UNL     1       1.458  -0.032  22.293  0.00  0.00    +0.247 C 
ENDROOT
BRANCH  18  22
ATOM      1  F   UNL     1       5.834   1.569  23.646  0.00  0.00    -0.205 F 
ATOM     22  C   UNL     1       2.768  -0.254  22.926  0.00  0.00    +0.040 A 
ATOM     25  C   UNL     1       3.699   0.784  22.987  0.00  0.00    +0.051 A 
ATOM     26  C   UNL     1       3.080  -1.501  23.466  0.00  0.00    +0.013 A 
ATOM     28  C   UNL     1       4.941   0.573  23.587  0.00  0.00    +0.124 A 
ATOM     29  C   UNL     1       4.321  -1.712  24.066  0.00  0.00    +0.004 A 
ATOM     31  C   UNL     1       5.251  -0.675  24.127  0.00  0.00    +0.038 A 
ENDBRANCH  18  22
BRANCH  12  16
ATOM      2  O   UNL     1      -1.728   0.671  25.265  0.00  0.00    -0.274 OA
ATOM     10  N   UNL     1      -3.108  -0.146  23.579  0.00  0.00    -0.301 N 
ATOM     16  C   UNL     1      -2.177   0.721  24.124  0.00  0.00    +0.236 C 
ATOM     36  H   UNL     1      -3.429   0.002  22.626  0.00  0.00    +0.150 HD
BRANCH  10  19
ATOM     19  C   UNL     1      -3.683  -1.251  24.310  0.00  0.00    +0.186 C 
BRANCH  19  23
ATOM      7  O   UNL     1      -2.993  -3.446  25.047  0.00  0.00    -0.249 OA
ATOM     23  C   UNL     1      -2.688  -2.386  24.510  0.00  0.00    +0.328 C 
BRANCH  23   6
ATOM      6  O   UNL     1      -1.448  -2.071  24.042  0.00  0.00    -0.467 OA
ATOM     34  C   UNL     1      -0.380  -2.186  24.987  0.00  0.00    +0.280 C 
ENDBRANCH  23   6
ENDBRANCH  19  23
BRANCH  19  21
ATOM     21  C   UNL     1      -4.308  -0.795  25.638  0.00  0.00    +0.070 C 
BRANCH  21  24
ATOM     11  N   UNL     1      -5.614   2.661  26.493  0.00  0.00    -0.263 NA
ATOM     24  C   UNL     1      -5.096   0.493  25.555  0.00  0.00    -0.027 A 
ATOM     27  C   UNL     1      -6.000   0.716  24.522  0.00  0.00    +0.006 A 
ATOM     30  C   UNL     1      -4.940   1.488  26.507  0.00  0.00    +0.114 A 
ATOM     33  C   UNL     1      -6.711   1.910  24.474  0.00  0.00    +0.020 A 
ATOM     35  C   UNL     1      -6.483   2.841  25.474  0.00  0.00    +0.111 A 
ENDBRANCH  21  24
ENDBRANCH  19  21
ENDBRANCH  10  19
ENDBRANCH  12  16
BRANCH  17  20
ATOM     20  C   UNL     1      -1.628   5.075  25.054  0.00  0.00    +0.255 C 
BRANCH  20   5
ATOM      5  O   UNL     1      -2.442   5.336  26.172  0.00  0.00    -0.374 OA
ATOM     32  C   UNL     1      -2.679   4.164  26.948  0.00  0.00    +0.194 C 
ENDBRANCH  20   5
ENDBRANCH  17  20
TORSDOF 9
ENDMDL
MODEL 2
REMARK VINA RESULT:       5.5      2.844      7.226
REMARK  Name = 11867599
REMARK  11 active torsions:
REMARK  status: ('A' for Active; 'I' for Inactive)
REMARK    1  A    between atoms: O_5  and  C_20
REMARK    2  A    between atoms: O_5  and  C_32
REMARK    3  A    between atoms: O_6  and  C_23
REMARK    4  A    between atoms: O_6  and  C_34
REMARK    5  A    between atoms: N_10  and  C_19
REMARK    6  A    between atoms: C_12  and  C_16
REMARK    7  A    between atoms: C_17  and  C_20
REMARK    8  A    between atoms: C_18  and  C_22
REMARK    9  A    between atoms: C_19  and  C_21
REMARK   10  A    between atoms: C_19  and  C_23
REMARK   11  A    between atoms: C_21  and  C_24
REMARK                            x       y       z     vdW  Elec       q    Type
REMARK                         _______ _______ _______ _____ _____    ______ ____
ROOT
ATOM      3  O   UNL     1      -1.182  -3.367  24.046  0.00  0.00    -0.273 OA
ATOM      4  O   UNL     1      -3.369   3.052  22.116  0.00  0.00    -0.270 OA
ATOM      8  N   UNL     1      -2.617  -1.543  24.201  0.00  0.00    -0.285 N 
ATOM      9  N   UNL     1      -3.384   1.195  23.536  0.00  0.00    -0.294 N 
ATOM     12  C   UNL     1      -1.835  -0.746  23.253  0.00  0.00    +0.179 C 
ATOM     13  C   UNL     1      -2.653   0.357  22.584  0.00  0.00    +0.140 C 
ATOM     14  C   UNL     1      -3.862  -0.948  24.704  0.00  0.00    +0.127 C 
ATOM     15  C   UNL     1      -3.789   0.571  24.800  0.00  0.00    +0.127 C 
ATOM     17  C   UNL     1      -2.225  -2.860  24.464  0.00  0.00    +0.242 C 
ATOM     18  C   UNL     1      -3.699   2.510  23.170  0.00  0.00    +0.247 C 
ENDROOT
BRANCH  18  22
ATOM      1  F   UNL     1      -6.593   2.889  27.045  0.00  0.00    -0.205 F 
ATOM     22  C   UNL     1      -4.484   3.323  24.112  0.00  0.00    +0.040 A 
ATOM     25  C   UNL     1      -5.181   2.708  25.153  0.00  0.00    +0.051 A 
ATOM     26  C   UNL     1      -4.531   4.709  23.966  0.00  0.00    +0.013 A 
ATOM     28  C   UNL     1      -5.925   3.479  26.046  0.00  0.00    +0.124 A 
ATOM     29  C   UNL     1      -5.275   5.480  24.859  0.00  0.00    +0.004 A 
ATOM     31  C   UNL     1      -5.971   4.865  25.899  0.00  0.00    +0.038 A 
ENDBRANCH  18  22
BRANCH  12  16
ATOM      2  O   UNL     1      -0.559  -0.329  25.229  0.00  0.00    -0.274 OA
ATOM     10  N   UNL     1       0.205   0.513  23.198  0.00  0.00    -0.301 N 
ATOM     16  C   UNL     1      -0.670  -0.182  24.015  0.00  0.00    +0.236 C 
ATOM     36  H   UNL     1       0.028   0.552  22.198  0.00  0.00    +0.150 HD
BRANCH  10  19
ATOM     19  C   UNL     1       1.394   1.170  23.690  0.00  0.00    +0.186 C 
BRANCH  19  23
ATOM      7  O   UNL     1       2.613  -0.076  22.016  0.00  0.00    -0.249 OA
ATOM     23  C   UNL     1       2.646   0.722  22.948  0.00  0.00    +0.328 C 
BRANCH  23   6
ATOM      6  O   UNL     1       3.775   1.294  23.452  0.00  0.00    -0.467 OA
ATOM     34  C   UNL     1       4.957   0.489  23.395  0.00  0.00    +0.280 C 
ENDBRANCH  23   6
ENDBRANCH  19  23
BRANCH  19  21
ATOM     21  C   UNL     1       1.243   2.699  23.691  0.00  0.00    +0.070 C 
BRANCH  21  24
ATOM     11  N   UNL     1      -1.337   2.901  26.462  0.00  0.00    -0.263 NA
ATOM     24  C   UNL     1       0.124   3.223  24.563  0.00  0.00    -0.027 A 
ATOM     27  C   UNL     1      -0.470   4.453  24.305  0.00  0.00    +0.006 A 
ATOM     30  C   UNL     1      -0.341   2.492  25.644  0.00  0.00    +0.114 A 
ATOM     33  C   UNL     1      -1.497   4.908  25.123  0.00  0.00    +0.020 A 
ATOM     35  C   UNL     1      -1.890   4.102  26.179  0.00  0.00    +0.111 A 
ENDBRANCH  21  24
ENDBRANCH  19  21
ENDBRANCH  10  19
ENDBRANCH  12  16
BRANCH  17  20
ATOM     20  C   UNL     1      -3.156  -3.678  25.324  0.00  0.00    +0.255 C 
BRANCH  20   5
ATOM      5  O   UNL     1      -4.092  -4.269  24.456  0.00  0.00    -0.374 OA
ATOM     32  C   UNL     1      -4.591  -3.342  23.494  0.00  0.00    +0.194 C 
ENDBRANCH  20   5
ENDBRANCH  17  20
TORSDOF 9
ENDMDL
MODEL 3
REMARK VINA RESULT:       5.6      2.810      4.907
REMARK  Name = 11867599
REMARK  11 active torsions:
REMARK  status: ('A' for Active; 'I' for Inactive)
REMARK    1  A    between atoms: O_5  and  C_20
REMARK    2  A    between atoms: O_5  and  C_32
REMARK    3  A    between atoms: O_6  and  C_23
REMARK    4  A    between atoms: O_6  and  C_34
REMARK    5  A    between atoms: N_10  and  C_19
REMARK    6  A    between atoms: C_12  and  C_16
REMARK    7  A    between atoms: C_17  and  C_20
REMARK    8  A    between atoms: C_18  and  C_22
REMARK    9  A    between atoms: C_19  and  C_21
REMARK   10  A    between atoms: C_19  and  C_23
REMARK   11  A    between atoms: C_21  and  C_24
REMARK                            x       y       z     vdW  Elec       q    Type
REMARK                         _______ _______ _______ _____ _____    ______ ____
ROOT
ATOM      3  O   UNL     1      -5.038   2.585  23.030  0.00  0.00    -0.273 OA
ATOM      4  O   UNL     1       1.512   3.883  25.293  0.00  0.00    -0.270 OA
ATOM      8  N   UNL     1      -3.465   2.929  24.709  0.00  0.00    -0.285 N 
ATOM      9  N   UNL     1      -0.715   3.260  25.633  0.00  0.00    -0.294 N 
ATOM     12  C   UNL     1      -2.347   2.970  23.763  0.00  0.00    +0.179 C 
ATOM     13  C   UNL     1      -1.133   3.720  24.308  0.00  0.00    +0.140 C 
ATOM     14  C   UNL     1      -3.153   3.181  26.122  0.00  0.00    +0.127 C 
ATOM     15  C   UNL     1      -1.757   2.708  26.507  0.00  0.00    +0.127 C 
ATOM     17  C   UNL     1      -4.767   2.797  24.214  0.00  0.00    +0.242 C 
ATOM     18  C   UNL     1       0.624   3.423  26.009  0.00  0.00    +0.247 C 
ENDROOT
BRANCH  18  22
ATOM      1  F   UNL     1       3.877   3.245  29.604  0.00  0.00    -0.205 F 
ATOM     22  C   UNL     1       1.018   3.010  27.366  0.00  0.00    +0.040 A 
ATOM     25  C   UNL     1       2.287   3.329  27.852  0.00  0.00    +0.051 A 
ATOM     26  C   UNL     1       0.125   2.299  28.167  0.00  0.00    +0.013 A 
ATOM     28  C   UNL     1       2.661   2.938  29.137  0.00  0.00    +0.124 A 
ATOM     29  C   UNL     1       0.498   1.907  29.452  0.00  0.00    +0.004 A 
ATOM     31  C   UNL     1       1.766   2.227  29.937  0.00  0.00    +0.038 A 
ENDBRANCH  18  22
BRANCH  12  16
ATOM      2  O   UNL     1      -2.880   0.714  23.183  0.00  0.00    -0.274 OA
ATOM     10  N   UNL     1      -0.646   1.311  23.447  0.00  0.00    -0.301 N 
ATOM     16  C   UNL     1      -2.010   1.546  23.425  0.00  0.00    +0.236 C 
ATOM     36  H   UNL     1      -0.010   2.081  23.637  0.00  0.00    +0.150 HD
BRANCH  10  19
ATOM     19  C   UNL     1      -0.062   0.017  23.179  0.00  0.00    +0.186 C 
BRANCH  19  23
ATOM      7  O   UNL     1       1.571  -0.384  21.444  0.00  0.00    -0.249 OA
ATOM     23  C   UNL     1       1.309   0.130  22.527  0.00  0.00    +0.328 C 
BRANCH  23   6
ATOM      6  O   UNL     1       2.185   0.841  23.292  0.00  0.00    -0.467 OA
ATOM     34  C   UNL     1       3.545   0.837  22.844  0.00  0.00    +0.280 C 
ENDBRANCH  23   6
ENDBRANCH  19  23
BRANCH  19  21
ATOM     21  C   UNL     1      -0.030  -0.867  24.435  0.00  0.00    +0.070 C 
BRANCH  21  24
ATOM     11  N   UNL     1      -3.267  -1.351  26.349  0.00  0.00    -0.263 NA
ATOM     24  C   UNL     1      -1.372  -1.426  24.849  0.00  0.00    -0.027 A 
ATOM     27  C   UNL     1      -1.950  -2.487  24.160  0.00  0.00    +0.006 A 
ATOM     30  C   UNL     1      -2.065  -0.898  25.926  0.00  0.00    +0.114 A 
ATOM     33  C   UNL     1      -3.186  -2.981  24.565  0.00  0.00    +0.020 A 
ATOM     35  C   UNL     1      -3.797  -2.383  25.655  0.00  0.00    +0.111 A 
ENDBRANCH  21  24
ENDBRANCH  19  21
ENDBRANCH  10  19
ENDBRANCH  12  16
BRANCH  17  20
ATOM     20  C   UNL     1      -5.884   2.918  25.221  0.00  0.00    +0.255 C 
BRANCH  20   5
ATOM      5  O   UNL     1      -6.171   1.613  25.662  0.00  0.00    -0.374 OA
ATOM     32  C   UNL     1      -6.636   1.593  27.011  0.00  0.00    +0.194 C 
ENDBRANCH  20   5
ENDBRANCH  17  20
TORSDOF 9
ENDMDL
MODEL 4
REMARK VINA RESULT:       5.8      2.059      5.169
REMARK  Name = 11867599
REMARK  11 active torsions:
REMARK  status: ('A' for Active; 'I' for Inactive)
REMARK    1  A    between atoms: O_5  and  C_20
REMARK    2  A    between atoms: O_5  and  C_32
REMARK    3  A    between atoms: O_6  and  C_23
REMARK    4  A    between atoms: O_6  and  C_34
REMARK    5  A    between atoms: N_10  and  C_19
REMARK    6  A    between atoms: C_12  and  C_16
REMARK    7  A    between atoms: C_17  and  C_20
REMARK    8  A    between atoms: C_18  and  C_22
REMARK    9  A    between atoms: C_19  and  C_21
REMARK   10  A    between atoms: C_19  and  C_23
REMARK   11  A    between atoms: C_21  and  C_24
REMARK                            x       y       z     vdW  Elec       q    Type
REMARK                         _______ _______ _______ _____ _____    ______ ____
ROOT
ATOM      3  O   UNL     1      -4.591  -1.752  26.172  0.00  0.00    -0.273 OA
ATOM      4  O   UNL     1       1.277   2.044  25.240  0.00  0.00    -0.270 OA
ATOM      8  N   UNL     1      -2.434  -1.455  25.354  0.00  0.00    -0.285 N 
ATOM      9  N   UNL     1      -0.094   0.203  24.799  0.00  0.00    -0.294 N 
ATOM     12  C   UNL     1      -2.382  -0.052  25.774  0.00  0.00    +0.179 C 
ATOM     13  C   UNL     1      -0.955   0.464  25.955  0.00  0.00    +0.140 C 
ATOM     14  C   UNL     1      -1.217  -2.016  24.753  0.00  0.00    +0.127 C 
ATOM     15  C   UNL     1      -0.408  -0.977  23.987  0.00  0.00    +0.127 C 
ATOM     17  C   UNL     1      -3.565  -2.215  25.668  0.00  0.00    +0.242 C 
ATOM     18  C   UNL     1       0.997   1.050  24.571  0.00  0.00    +0.247 C 
ENDROOT
BRANCH  18  22
ATOM      1  F   UNL     1       5.410   0.971  22.557  0.00  0.00    -0.205 F 
ATOM     22  C   UNL     1       1.888   0.744  23.440  0.00  0.00    +0.040 A 
ATOM     25  C   UNL     1       3.255   1.008  23.536  0.00  0.00    +0.051 A 
ATOM     26  C   UNL     1       1.366   0.189  22.272  0.00  0.00    +0.013 A 
ATOM     28  C   UNL     1       4.098   0.718  22.464  0.00  0.00    +0.124 A 
ATOM     29  C   UNL     1       2.210  -0.101  21.200  0.00  0.00    +0.004 A 
ATOM     31  C   UNL     1       3.576   0.163  21.296  0.00  0.00    +0.038 A 
ENDBRANCH  18  22
BRANCH  12  16
ATOM      2  O   UNL     1      -2.932   0.582  23.537  0.00  0.00    -0.274 OA
ATOM     10  N   UNL     1      -4.006   1.648  25.306  0.00  0.00    -0.301 N 
ATOM     16  C   UNL     1      -3.128   0.741  24.739  0.00  0.00    +0.236 C 
ATOM     36  H   UNL     1      -4.106   1.679  26.317  0.00  0.00    +0.150 HD
BRANCH  10  19
ATOM     19  C   UNL     1      -4.826   2.547  24.528  0.00  0.00    +0.186 C 
BRANCH  19  23
ATOM      7  O   UNL     1      -5.885   4.651  25.068  0.00  0.00    -0.249 OA
ATOM     23  C   UNL     1      -5.625   3.500  25.406  0.00  0.00    +0.328 C 
BRANCH  23   6
ATOM      6  O   UNL     1      -5.987   2.929  26.589  0.00  0.00    -0.467 OA
ATOM     34  C   UNL     1      -6.560   1.621  26.498  0.00  0.00    +0.280 C 
ENDBRANCH  23   6
ENDBRANCH  19  23
BRANCH  19  21
ATOM     21  C   UNL     1      -4.006   3.295  23.466  0.00  0.00    +0.070 C 
BRANCH  21  24
ATOM     11  N   UNL     1      -0.303   3.977  23.910  0.00  0.00    -0.263 NA
ATOM     24  C   UNL     1      -2.719   3.903  23.974  0.00  0.00    -0.027 A 
ATOM     27  C   UNL     1      -2.731   4.908  24.935  0.00  0.00    +0.006 A 
ATOM     30  C   UNL     1      -1.490   3.476  23.497  0.00  0.00    +0.114 A 
ATOM     33  C   UNL     1      -1.531   5.447  25.384  0.00  0.00    +0.020 A 
ATOM     35  C   UNL     1      -0.356   4.952  24.845  0.00  0.00    +0.111 A 
ENDBRANCH  21  24
ENDBRANCH  19  21
ENDBRANCH  10  19
ENDBRANCH  12  16
BRANCH  17  20
ATOM     20  C   UNL     1      -3.494  -3.688  25.349  0.00  0.00    +0.255 C 
BRANCH  20   5
ATOM      5  O   UNL     1      -3.901  -3.829  24.009  0.00  0.00    -0.374 OA
ATOM     32  C   UNL     1      -4.423  -2.614  23.477  0.00  0.00    +0.194 C 
ENDBRANCH  20   5
ENDBRANCH  17  20
TORSDOF 9
ENDMDL
MODEL 5
REMARK VINA RESULT:       6.1      2.766      5.304
REMARK  Name = 11867599
REMARK  11 active torsions:
REMARK  status: ('A' for Active; 'I' for Inactive)
REMARK    1  A    between atoms: O_5  and  C_20
REMARK    2  A    between atoms: O_5  and  C_32
REMARK    3  A    between atoms: O_6  and  C_23
REMARK    4  A    between atoms: O_6  and  C_34
REMARK    5  A    between atoms: N_10  and  C_19
REMARK    6  A    between atoms: C_12  and  C_16
REMARK    7  A    between atoms: C_17  and  C_20
REMARK    8  A    between atoms: C_18  and  C_22
REMARK    9  A    between atoms: C_19  and  C_21
REMARK   10  A    between atoms: C_19  and  C_23
REMARK   11  A    between atoms: C_21  and  C_24
REMARK                            x       y       z     vdW  Elec       q    Type
REMARK                         _______ _______ _______ _____ _____    ______ ____
ROOT
ATOM      3  O   UNL     1      -5.521   2.771  23.591  0.00  0.00    -0.273 OA
ATOM      4  O   UNL     1       1.381   2.983  25.014  0.00  0.00    -0.270 OA
ATOM      8  N   UNL     1      -3.719   3.120  25.019  0.00  0.00    -0.285 N 
ATOM      9  N   UNL     1      -0.869   3.002  25.647  0.00  0.00    -0.294 N 
ATOM     12  C   UNL     1      -2.741   2.672  24.024  0.00  0.00    +0.179 C 
ATOM     13  C   UNL     1      -1.338   3.221  24.277  0.00  0.00    +0.140 C 
ATOM     14  C   UNL     1      -3.190   3.616  26.296  0.00  0.00    +0.127 C 
ATOM     15  C   UNL     1      -1.890   2.933  26.698  0.00  0.00    +0.127 C 
ATOM     17  C   UNL     1      -5.069   3.186  24.660  0.00  0.00    +0.242 C 
ATOM     18  C   UNL     1       0.510   2.927  25.880  0.00  0.00    +0.247 C 
ENDROOT
BRANCH  18  22
ATOM      1  F   UNL     1       3.881   3.510  29.320  0.00  0.00    -0.205 F 
ATOM     22  C   UNL     1       0.970   2.764  27.269  0.00  0.00    +0.040 A 
ATOM     25  C   UNL     1       2.233   3.223  27.644  0.00  0.00    +0.051 A 
ATOM     26  C   UNL     1       0.143   2.151  28.211  0.00  0.00    +0.013 A 
ATOM     28  C   UNL     1       2.669   3.069  28.960  0.00  0.00    +0.124 A 
ATOM     29  C   UNL     1       0.580   1.997  29.526  0.00  0.00    +0.004 A 
ATOM     31  C   UNL     1       1.842   2.456  29.901  0.00  0.00    +0.038 A 
ENDBRANCH  18  22
BRANCH  12  16
ATOM      2  O   UNL     1      -3.670   0.526  23.532  0.00  0.00    -0.274 OA
ATOM     10  N   UNL     1      -1.662   0.642  24.704  0.00  0.00    -0.301 N 
ATOM     16  C   UNL     1      -2.757   1.170  24.042  0.00  0.00    +0.236 C 
ATOM     36  H   UNL     1      -0.951   1.269  25.069  0.00  0.00    +0.150 HD
BRANCH  10  19
ATOM     19  C   UNL     1      -1.453  -0.777  24.880  0.00  0.00    +0.186 C 
BRANCH  19  23
ATOM      7  O   UNL     1      -3.353  -1.062  26.346  0.00  0.00    -0.249 OA
ATOM     23  C   UNL     1      -2.702  -1.480  25.393  0.00  0.00    +0.328 C 
BRANCH  23   6
ATOM      6  O   UNL     1      -2.982  -2.611  24.687  0.00  0.00    -0.467 OA
ATOM     34  C   UNL     1      -4.217  -2.602  23.964  0.00  0.00    +0.280 C 
ENDBRANCH  23   6
ENDBRANCH  19  23
BRANCH  19  21
ATOM     21  C   UNL     1      -0.904  -1.437  23.607  0.00  0.00    +0.070 C 
BRANCH  21  24
ATOM     11  N   UNL     1       1.806  -0.371  21.178  0.00  0.00    -0.263 NA
ATOM     24  C   UNL     1       0.363  -0.812  23.067  0.00  0.00    -0.027 A 
ATOM     27  C   UNL     1       1.237  -0.126  23.904  0.00  0.00    +0.006 A 
ATOM     30  C   UNL     1       0.690  -0.905  21.724  0.00  0.00    +0.114 A 
ATOM     33  C   UNL     1       2.395   0.437  23.379  0.00  0.00    +0.020 A 
ATOM     35  C   UNL     1       2.631   0.288  22.022  0.00  0.00    +0.111 A 
ENDBRANCH  21  24
ENDBRANCH  19  21
ENDBRANCH  10  19
ENDBRANCH  12  16
BRANCH  17  20
ATOM     20  C   UNL     1      -6.004   3.801  25.673  0.00  0.00    +0.255 C 
BRANCH  20   5
ATOM      5  O   UNL     1      -6.204   2.834  26.675  0.00  0.00    -0.374 OA
ATOM     32  C   UNL     1      -6.307   1.517  26.136  0.00  0.00    +0.194 C 
ENDBRANCH  20   5
ENDBRANCH  17  20
TORSDOF 9
ENDMDL
MODEL 6
REMARK VINA RESULT:       6.2      2.521      5.779
REMARK  Name = 11867599
REMARK  11 active torsions:
REMARK  status: ('A' for Active; 'I' for Inactive)
REMARK    1  A    between atoms: O_5  and  C_20
REMARK    2  A    between atoms: O_5  and  C_32
REMARK    3  A    between atoms: O_6  and  C_23
REMARK    4  A    between atoms: O_6  and  C_34
REMARK    5  A    between atoms: N_10  and  C_19
REMARK    6  A    between atoms: C_12  and  C_16
REMARK    7  A    between atoms: C_17  and  C_20
REMARK    8  A    between atoms: C_18  and  C_22
REMARK    9  A    between atoms: C_19  and  C_21
REMARK   10  A    between atoms: C_19  and  C_23
REMARK   11  A    between atoms: C_21  and  C_24
REMARK                            x       y       z     vdW  Elec       q    Type
REMARK                         _______ _______ _______ _____ _____    ______ ____
ROOT
ATOM      3  O   UNL     1       2.518  -1.278  23.469  0.00  0.00    -0.273 OA
ATOM      4  O   UNL     1      -1.763   3.176  26.867  0.00  0.00    -0.270 OA
ATOM      8  N   UNL     1       1.523   0.803  23.769  0.00  0.00    -0.285 N 
ATOM      9  N   UNL     1      -0.407   2.573  25.061  0.00  0.00    -0.294 N 
ATOM     12  C   UNL     1       0.664   0.325  24.856  0.00  0.00    +0.179 C 
ATOM     13  C   UNL     1       0.190   1.445  25.778  0.00  0.00    +0.140 C 
ATOM     14  C   UNL     1       1.453   2.234  23.445  0.00  0.00    +0.127 C 
ATOM     15  C   UNL     1       0.072   2.825  23.698  0.00  0.00    +0.127 C 
ATOM     17  C   UNL     1       2.452  -0.076  23.203  0.00  0.00    +0.242 C 
ATOM     18  C   UNL     1      -1.348   3.370  25.725  0.00  0.00    +0.247 C 
ENDROOT
BRANCH  18  22
ATOM      1  F   UNL     1      -4.717   5.388  22.877  0.00  0.00    -0.205 F 
ATOM     22  C   UNL     1      -1.898   4.534  25.013  0.00  0.00    +0.040 A 
ATOM     25  C   UNL     1      -3.070   4.407  24.267  0.00  0.00    +0.051 A 
ATOM     26  C   UNL     1      -1.247   5.766  25.083  0.00  0.00    +0.013 A 
ATOM     28  C   UNL     1      -3.591   5.510  23.591  0.00  0.00    +0.124 A 
ATOM     29  C   UNL     1      -1.768   6.869  24.407  0.00  0.00    +0.004 A 
ATOM     31  C   UNL     1      -2.940   6.742  23.662  0.00  0.00    +0.038 A 
ENDBRANCH  18  22
BRANCH  12  16
ATOM      2  O   UNL     1      -0.484  -0.698  23.027  0.00  0.00    -0.274 OA
ATOM     10  N   UNL     1      -1.528  -0.614  25.105  0.00  0.00    -0.301 N 
ATOM     16  C   UNL     1      -0.492  -0.388  24.215  0.00  0.00    +0.236 C 
ATOM     36  H   UNL     1      -1.419  -0.336  26.077  0.00  0.00    +0.150 HD
BRANCH  10  19
ATOM     19  C   UNL     1      -2.764  -1.262  24.733  0.00  0.00    +0.186 C 
BRANCH  19  23
ATOM      7  O   UNL     1      -1.511  -3.328  24.692  0.00  0.00    -0.249 OA
ATOM     23  C   UNL     1      -2.595  -2.767  24.568  0.00  0.00    +0.328 C 
BRANCH  23   6
ATOM      6  O   UNL     1      -3.769  -3.385  24.258  0.00  0.00    -0.467 OA
ATOM     34  C   UNL     1      -4.589  -2.714  23.296  0.00  0.00    +0.280 C 
ENDBRANCH  23   6
ENDBRANCH  19  23
BRANCH  19  21
ATOM     21  C   UNL     1      -3.906  -0.914  25.699  0.00  0.00    +0.070 C 
BRANCH  21  24
ATOM     11  N   UNL     1      -4.818   2.359  24.015  0.00  0.00    -0.263 NA
ATOM     24  C   UNL     1      -4.576   0.415  25.433  0.00  0.00    -0.027 A 
ATOM     27  C   UNL     1      -5.529   0.925  26.307  0.00  0.00    +0.006 A 
ATOM     30  C   UNL     1      -4.258   1.163  24.311  0.00  0.00    +0.114 A 
ATOM     33  C   UNL     1      -6.128   2.151  26.037  0.00  0.00    +0.020 A 
ATOM     35  C   UNL     1      -5.740   2.822  24.888  0.00  0.00    +0.111 A 
ENDBRANCH  21  24
ENDBRANCH  19  21
ENDBRANCH  10  19
ENDBRANCH  12  16
BRANCH  17  20
ATOM     20  C   UNL     1       3.412   0.516  22.200  0.00  0.00    +0.255 C 
BRANCH  20   5
ATOM      5  O   UNL     1       4.454   1.106  22.940  0.00  0.00    -0.374 OA
ATOM     32  C   UNL     1       5.416   0.145  23.371  0.00  0.00    +0.194 C 
ENDBRANCH  20   5
ENDBRANCH  17  20
TORSDOF 9
ENDMDL
