MODEL 1
REMARK VINA RESULT:      -6.5      0.000      0.000
REMARK  Name = 51137385
REMARK  4 active torsions:
REMARK  status: ('A' for Active; 'I' for Inactive)
REMARK    1  A    between atoms: N_2  and  C_5
REMARK    2  A    between atoms: C_10  and  C_13
REMARK    3  A    between atoms: C_14  and  C_15
REMARK    4  A    between atoms: C_15  and  C_16
REMARK                            x       y       z     vdW  Elec       q    Type
REMARK                         _______ _______ _______ _____ _____    ______ ____
ROOT
ATOM      1  O   UNL     1      -1.121   1.114  25.050  0.00  0.00    -0.424 OA
ATOM      3  N   UNL     1       0.591   2.536  24.824  0.00  0.00    -0.112 NA
ATOM      4  N   UNL     1       0.999   1.299  24.360  0.00  0.00    -0.112 NA
ATOM     13  C   UNL     1      -0.651   2.381  25.216  0.00  0.00    +0.222 A 
ATOM     14  C   UNL     1      -0.031   0.501  24.512  0.00  0.00    +0.222 A 
ENDROOT
BRANCH  13  10
ATOM      2  N   UNL     1      -3.854   4.059  25.819  0.00  0.00    -0.299 NA
ATOM      9  C   UNL     1      -3.036   2.850  25.952  0.00  0.00    +0.097 C 
ATOM     10  C   UNL     1      -1.606   3.390  25.810  0.00  0.00    +0.092 C 
ATOM     11  C   UNL     1      -3.252   4.799  24.710  0.00  0.00    +0.085 C 
ATOM     12  C   UNL     1      -1.761   4.689  24.999  0.00  0.00    +0.029 C 
BRANCH   2   5
ATOM      5  C   UNL     1      -5.248   3.713  25.518  0.00  0.00    +0.057 C 
ATOM      6  C   UNL     1      -5.699   2.548  26.423  0.00  0.00    +0.019 C 
ATOM      7  C   UNL     1      -5.290   2.715  24.342  0.00  0.00    +0.019 C 
ATOM      8  C   UNL     1      -6.320   1.910  25.164  0.00  0.00    +0.003 C 
ENDBRANCH   2   5
ENDBRANCH  13  10
BRANCH  14  15
ATOM     15  C   UNL     1      -0.167  -0.925  24.186  0.00  0.00    +0.132 C 
BRANCH  15  16
ATOM     16  C   UNL     1      -1.600  -1.447  24.189  0.00  0.00    -0.038 A 
ATOM     17  C   UNL     1      -1.854  -2.789  24.471  0.00  0.00    +0.004 A 
ATOM     18  C   UNL     1      -2.657  -0.580  23.909  0.00  0.00    +0.004 A 
ATOM     19  C   UNL     1      -3.165  -3.265  24.473  0.00  0.00    +0.000 A 
ATOM     20  C   UNL     1      -3.968  -1.057  23.912  0.00  0.00    +0.000 A 
ATOM     21  C   UNL     1      -4.222  -2.399  24.193  0.00  0.00    +0.000 A 
ENDBRANCH  15  16
ENDBRANCH  14  15
TORSDOF 4
ENDMDL
MODEL 2
REMARK VINA RESULT:      -6.0      1.636      4.799
REMARK  Name = 51137385
REMARK  4 active torsions:
REMARK  status: ('A' for Active; 'I' for Inactive)
REMARK    1  A    between atoms: N_2  and  C_5
REMARK    2  A    between atoms: C_10  and  C_13
REMARK    3  A    between atoms: C_14  and  C_15
REMARK    4  A    between atoms: C_15  and  C_16
REMARK                            x       y       z     vdW  Elec       q    Type
REMARK                         _______ _______ _______ _____ _____    ______ ____
ROOT
ATOM      1  O   UNL     1      -3.227   1.836  24.652  0.00  0.00    -0.424 OA
ATOM      3  N   UNL     1      -3.767   4.006  24.628  0.00  0.00    -0.112 NA
ATOM      4  N   UNL     1      -4.935   3.277  24.753  0.00  0.00    -0.112 NA
ATOM     13  C   UNL     1      -2.797   3.125  24.573  0.00  0.00    +0.222 A 
ATOM     14  C   UNL     1      -4.571   2.016  24.762  0.00  0.00    +0.222 A 
ENDROOT
BRANCH  13  10
ATOM      2  N   UNL     1       0.742   2.207  24.303  0.00  0.00    -0.299 NA
ATOM      9  C   UNL     1      -0.599   2.189  23.712  0.00  0.00    +0.097 C 
ATOM     10  C   UNL     1      -1.307   3.340  24.438  0.00  0.00    +0.092 C 
ATOM     11  C   UNL     1       0.518   2.397  25.736  0.00  0.00    +0.085 C 
ATOM     12  C   UNL     1      -0.551   3.482  25.772  0.00  0.00    +0.029 C 
BRANCH   2   5
ATOM      5  C   UNL     1       1.441   0.942  24.049  0.00  0.00    +0.057 C 
ATOM      6  C   UNL     1       2.518   1.155  22.965  0.00  0.00    +0.019 C 
ATOM      7  C   UNL     1       0.659   0.121  23.002  0.00  0.00    +0.019 C 
ATOM      8  C   UNL     1       2.015  -0.151  22.316  0.00  0.00    +0.003 C 
ENDBRANCH   2   5
ENDBRANCH  13  10
BRANCH  14  15
ATOM     15  C   UNL     1      -5.396   0.806  24.875  0.00  0.00    +0.132 C 
BRANCH  15  16
ATOM     16  C   UNL     1      -4.614  -0.504  24.838  0.00  0.00    -0.038 A 
ATOM     17  C   UNL     1      -3.792  -0.856  25.909  0.00  0.00    +0.004 A 
ATOM     18  C   UNL     1      -4.721  -1.348  23.733  0.00  0.00    +0.004 A 
ATOM     19  C   UNL     1      -3.076  -2.053  25.874  0.00  0.00    +0.000 A 
ATOM     20  C   UNL     1      -4.006  -2.545  23.699  0.00  0.00    +0.000 A 
ATOM     21  C   UNL     1      -3.183  -2.897  24.769  0.00  0.00    +0.000 A 
ENDBRANCH  15  16
ENDBRANCH  14  15
TORSDOF 4
ENDMDL
MODEL 3
REMARK VINA RESULT:      -5.7      2.200      4.302
REMARK  Name = 51137385
REMARK  4 active torsions:
REMARK  status: ('A' for Active; 'I' for Inactive)
REMARK    1  A    between atoms: N_2  and  C_5
REMARK    2  A    between atoms: C_10  and  C_13
REMARK    3  A    between atoms: C_14  and  C_15
REMARK    4  A    between atoms: C_15  and  C_16
REMARK                            x       y       z     vdW  Elec       q    Type
REMARK                         _______ _______ _______ _____ _____    ______ ____
ROOT
ATOM      1  O   UNL     1      -2.947  -0.195  24.507  0.00  0.00    -0.424 OA
ATOM      3  N   UNL     1      -4.722  -1.527  24.230  0.00  0.00    -0.112 NA
ATOM      4  N   UNL     1      -3.595  -2.325  24.292  0.00  0.00    -0.112 NA
ATOM     13  C   UNL     1      -4.296  -0.293  24.360  0.00  0.00    +0.222 A 
ATOM     14  C   UNL     1      -2.583  -1.505  24.453  0.00  0.00    +0.222 A 
ENDROOT
BRANCH  13  10
ATOM      2  N   UNL     1      -4.901   3.292  24.835  0.00  0.00    -0.299 NA
ATOM      9  C   UNL     1      -4.204   2.232  24.101  0.00  0.00    +0.097 C 
ATOM     10  C   UNL     1      -5.079   1.000  24.369  0.00  0.00    +0.092 C 
ATOM     11  C   UNL     1      -5.271   2.681  26.113  0.00  0.00    +0.085 C 
ATOM     12  C   UNL     1      -5.794   1.313  25.696  0.00  0.00    +0.029 C 
BRANCH   2   5
ATOM      5  C   UNL     1      -4.019   4.446  25.046  0.00  0.00    +0.057 C 
ATOM      6  C   UNL     1      -2.740   4.280  24.200  0.00  0.00    +0.019 C 
ATOM      7  C   UNL     1      -3.137   4.201  26.288  0.00  0.00    +0.019 C 
ATOM      8  C   UNL     1      -1.948   4.717  25.449  0.00  0.00    +0.003 C 
ENDBRANCH   2   5
ENDBRANCH  13  10
BRANCH  14  15
ATOM     15  C   UNL     1      -1.150  -1.802  24.584  0.00  0.00    +0.132 C 
BRANCH  15  16
ATOM     16  C   UNL     1      -0.224  -0.644  24.226  0.00  0.00    -0.038 A 
ATOM     17  C   UNL     1      -0.364   0.586  24.870  0.00  0.00    +0.004 A 
ATOM     18  C   UNL     1       0.761  -0.815  23.254  0.00  0.00    +0.004 A 
ATOM     19  C   UNL     1       0.483   1.645  24.542  0.00  0.00    +0.000 A 
ATOM     20  C   UNL     1       1.608   0.244  22.927  0.00  0.00    +0.000 A 
ATOM     21  C   UNL     1       1.468   1.474  23.570  0.00  0.00    +0.000 A 
ENDBRANCH  15  16
ENDBRANCH  14  15
TORSDOF 4
ENDMDL
MODEL 4
REMARK VINA RESULT:      -5.4      1.978      5.042
REMARK  Name = 51137385
REMARK  4 active torsions:
REMARK  status: ('A' for Active; 'I' for Inactive)
REMARK    1  A    between atoms: N_2  and  C_5
REMARK    2  A    between atoms: C_10  and  C_13
REMARK    3  A    between atoms: C_14  and  C_15
REMARK    4  A    between atoms: C_15  and  C_16
REMARK                            x       y       z     vdW  Elec       q    Type
REMARK                         _______ _______ _______ _____ _____    ______ ____
ROOT
ATOM      1  O   UNL     1      -2.842  -0.267  24.631  0.00  0.00    -0.424 OA
ATOM      3  N   UNL     1      -2.060  -2.346  24.369  0.00  0.00    -0.112 NA
ATOM      4  N   UNL     1      -3.438  -2.390  24.258  0.00  0.00    -0.112 NA
ATOM     13  C   UNL     1      -1.757  -1.088  24.586  0.00  0.00    +0.222 A 
ATOM     14  C   UNL     1      -3.850  -1.155  24.419  0.00  0.00    +0.222 A 
ENDROOT
BRANCH  13  10
ATOM      2  N   UNL     1       0.666   1.633  24.990  0.00  0.00    -0.299 NA
ATOM      9  C   UNL     1      -0.485   0.900  25.524  0.00  0.00    +0.097 C 
ATOM     10  C   UNL     1      -0.405  -0.443  24.786  0.00  0.00    +0.092 C 
ATOM     11  C   UNL     1       0.645   1.367  23.551  0.00  0.00    +0.085 C 
ATOM     12  C   UNL     1       0.359  -0.128  23.487  0.00  0.00    +0.029 C 
BRANCH   2   5
ATOM      5  C   UNL     1       0.536   3.071  25.254  0.00  0.00    +0.057 C 
ATOM      6  C   UNL     1      -0.752   3.333  26.062  0.00  0.00    +0.019 C 
ATOM      7  C   UNL     1      -0.165   3.755  24.062  0.00  0.00    +0.019 C 
ATOM      8  C   UNL     1      -1.027   4.505  25.099  0.00  0.00    +0.003 C 
ENDBRANCH   2   5
ENDBRANCH  13  10
BRANCH  14  15
ATOM     15  C   UNL     1      -5.217  -0.616  24.397  0.00  0.00    +0.132 C 
BRANCH  15  16
ATOM     16  C   UNL     1      -5.328   0.854  24.792  0.00  0.00    -0.038 A 
ATOM     17  C   UNL     1      -4.544   1.811  24.147  0.00  0.00    +0.004 A 
ATOM     18  C   UNL     1      -6.213   1.239  25.799  0.00  0.00    +0.004 A 
ATOM     19  C   UNL     1      -4.646   3.154  24.509  0.00  0.00    +0.000 A 
ATOM     20  C   UNL     1      -6.314   2.583  26.160  0.00  0.00    +0.000 A 
ATOM     21  C   UNL     1      -5.531   3.540  25.516  0.00  0.00    +0.000 A 
ENDBRANCH  15  16
ENDBRANCH  14  15
TORSDOF 4
ENDMDL
MODEL 5
REMARK VINA RESULT:      -5.0     18.284     20.101
REMARK  Name = 51137385
REMARK  4 active torsions:
REMARK  status: ('A' for Active; 'I' for Inactive)
REMARK    1  A    between atoms: N_2  and  C_5
REMARK    2  A    between atoms: C_10  and  C_13
REMARK    3  A    between atoms: C_14  and  C_15
REMARK    4  A    between atoms: C_15  and  C_16
REMARK                            x       y       z     vdW  Elec       q    Type
REMARK                         _______ _______ _______ _____ _____    ______ ____
ROOT
ATOM      1  O   UNL     1      17.069  -5.719  27.497  0.00  0.00    -0.424 OA
ATOM      3  N   UNL     1      15.194  -6.924  27.688  0.00  0.00    -0.112 NA
ATOM      4  N   UNL     1      15.516  -6.844  26.346  0.00  0.00    -0.112 NA
ATOM     13  C   UNL     1      16.127  -6.254  28.322  0.00  0.00    +0.222 A 
ATOM     14  C   UNL     1      16.616  -6.131  26.282  0.00  0.00    +0.222 A 
ENDROOT
BRANCH  13  10
ATOM      2  N   UNL     1      15.098  -5.725  31.801  0.00  0.00    -0.299 NA
ATOM      9  C   UNL     1      15.175  -6.626  30.647  0.00  0.00    +0.097 C 
ATOM     10  C   UNL     1      16.295  -6.002  29.803  0.00  0.00    +0.092 C 
ATOM     11  C   UNL     1      15.188  -4.380  31.233  0.00  0.00    +0.085 C 
ATOM     12  C   UNL     1      16.306  -4.517  30.208  0.00  0.00    +0.029 C 
BRANCH   2   5
ATOM      5  C   UNL     1      13.830  -5.905  32.518  0.00  0.00    +0.057 C 
ATOM      6  C   UNL     1      12.929  -6.884  31.737  0.00  0.00    +0.019 C 
ATOM      7  C   UNL     1      12.844  -4.791  32.108  0.00  0.00    +0.019 C 
ATOM      8  C   UNL     1      11.772  -5.896  31.981  0.00  0.00    +0.003 C 
ENDBRANCH   2   5
ENDBRANCH  13  10
BRANCH  14  15
ATOM     15  C   UNL     1      17.405  -5.732  25.109  0.00  0.00    +0.132 C 
BRANCH  15  16
ATOM     16  C   UNL     1      17.109  -4.330  24.588  0.00  0.00    -0.038 A 
ATOM     17  C   UNL     1      17.141  -3.241  25.459  0.00  0.00    +0.004 A 
ATOM     18  C   UNL     1      16.805  -4.137  23.241  0.00  0.00    +0.004 A 
ATOM     19  C   UNL     1      16.869  -1.958  24.982  0.00  0.00    +0.000 A 
ATOM     20  C   UNL     1      16.533  -2.855  22.764  0.00  0.00    +0.000 A 
ATOM     21  C   UNL     1      16.565  -1.766  23.635  0.00  0.00    +0.000 A 
ENDBRANCH  15  16
ENDBRANCH  14  15
TORSDOF 4
ENDMDL
MODEL 6
REMARK VINA RESULT:      -5.0      2.143      6.211
REMARK  Name = 51137385
REMARK  4 active torsions:
REMARK  status: ('A' for Active; 'I' for Inactive)
REMARK    1  A    between atoms: N_2  and  C_5
REMARK    2  A    between atoms: C_10  and  C_13
REMARK    3  A    between atoms: C_14  and  C_15
REMARK    4  A    between atoms: C_15  and  C_16
REMARK                            x       y       z     vdW  Elec       q    Type
REMARK                         _______ _______ _______ _____ _____    ______ ____
ROOT
ATOM      1  O   UNL     1      -4.098   1.856  25.617  0.00  0.00    -0.424 OA
ATOM      3  N   UNL     1      -6.246   1.529  25.085  0.00  0.00    -0.112 NA
ATOM      4  N   UNL     1      -6.049   2.887  25.251  0.00  0.00    -0.112 NA
ATOM     13  C   UNL     1      -5.082   0.967  25.308  0.00  0.00    +0.222 A 
ATOM     14  C   UNL     1      -4.783   3.031  25.561  0.00  0.00    +0.222 A 
ENDROOT
BRANCH  13  10
ATOM      2  N   UNL     1      -2.866  -1.936  24.989  0.00  0.00    -0.299 NA
ATOM      9  C   UNL     1      -3.257  -0.744  25.746  0.00  0.00    +0.097 C 
ATOM     10  C   UNL     1      -4.693  -0.493  25.269  0.00  0.00    +0.092 C 
ATOM     11  C   UNL     1      -3.360  -1.698  23.633  0.00  0.00    +0.085 C 
ATOM     12  C   UNL     1      -4.758  -1.142  23.874  0.00  0.00    +0.029 C 
BRANCH   2   5
ATOM      5  C   UNL     1      -1.407  -2.099  24.990  0.00  0.00    +0.057 C 
ATOM      6  C   UNL     1      -0.749  -0.854  25.621  0.00  0.00    +0.019 C 
ATOM      7  C   UNL     1      -0.834  -1.623  23.639  0.00  0.00    +0.019 C 
ATOM      8  C   UNL     1       0.253  -0.884  24.449  0.00  0.00    +0.003 C 
ENDBRANCH   2   5
ENDBRANCH  13  10
BRANCH  14  15
ATOM     15  C   UNL     1      -4.022   4.256  25.845  0.00  0.00    +0.132 C 
BRANCH  15  16
ATOM     16  C   UNL     1      -2.524   4.153  25.575  0.00  0.00    -0.038 A 
ATOM     17  C   UNL     1      -1.819   3.020  25.981  0.00  0.00    +0.004 A 
ATOM     18  C   UNL     1      -1.861   5.192  24.923  0.00  0.00    +0.004 A 
ATOM     19  C   UNL     1      -0.448   2.927  25.735  0.00  0.00    +0.000 A 
ATOM     20  C   UNL     1      -0.492   5.098  24.677  0.00  0.00    +0.000 A 
ATOM     21  C   UNL     1       0.215   3.967  25.083  0.00  0.00    +0.000 A 
ENDBRANCH  15  16
ENDBRANCH  14  15
TORSDOF 4
ENDMDL
MODEL 7
REMARK VINA RESULT:      -4.9      1.801      4.365
REMARK  Name = 51137385
REMARK  4 active torsions:
REMARK  status: ('A' for Active; 'I' for Inactive)
REMARK    1  A    between atoms: N_2  and  C_5
REMARK    2  A    between atoms: C_10  and  C_13
REMARK    3  A    between atoms: C_14  and  C_15
REMARK    4  A    between atoms: C_15  and  C_16
REMARK                            x       y       z     vdW  Elec       q    Type
REMARK                         _______ _______ _______ _____ _____    ______ ____
ROOT
ATOM      1  O   UNL     1      -4.323   1.438  24.709  0.00  0.00    -0.424 OA
ATOM      3  N   UNL     1      -6.135   2.676  25.141  0.00  0.00    -0.112 NA
ATOM      4  N   UNL     1      -6.541   1.362  24.992  0.00  0.00    -0.112 NA
ATOM     13  C   UNL     1      -4.835   2.673  24.968  0.00  0.00    +0.222 A 
ATOM     14  C   UNL     1      -5.450   0.677  24.741  0.00  0.00    +0.222 A 
ENDROOT
BRANCH  13  10
ATOM      2  N   UNL     1      -1.564   4.327  25.042  0.00  0.00    -0.299 NA
ATOM      9  C   UNL     1      -2.531   3.510  24.303  0.00  0.00    +0.097 C 
ATOM     10  C   UNL     1      -3.854   3.822  25.016  0.00  0.00    +0.092 C 
ATOM     11  C   UNL     1      -1.920   4.148  26.450  0.00  0.00    +0.085 C 
ATOM     12  C   UNL     1      -3.439   4.258  26.433  0.00  0.00    +0.029 C 
BRANCH   2   5
ATOM      5  C   UNL     1      -0.194   3.867  24.789  0.00  0.00    +0.057 C 
ATOM      6  C   UNL     1      -0.200   2.819  23.657  0.00  0.00    +0.019 C 
ATOM      7  C   UNL     1       0.150   2.712  25.753  0.00  0.00    +0.019 C 
ATOM      8  C   UNL     1       0.748   1.977  24.534  0.00  0.00    +0.003 C 
ENDBRANCH   2   5
ENDBRANCH  13  10
BRANCH  14  15
ATOM     15  C   UNL     1      -5.285  -0.763  24.499  0.00  0.00    +0.132 C 
BRANCH  15  16
ATOM     16  C   UNL     1      -3.858  -1.276  24.659  0.00  0.00    -0.038 A 
ATOM     17  C   UNL     1      -2.912  -0.507  25.337  0.00  0.00    +0.004 A 
ATOM     18  C   UNL     1      -3.500  -2.515  24.127  0.00  0.00    +0.004 A 
ATOM     19  C   UNL     1      -1.606  -0.978  25.482  0.00  0.00    +0.000 A 
ATOM     20  C   UNL     1      -2.194  -2.984  24.273  0.00  0.00    +0.000 A 
ATOM     21  C   UNL     1      -1.248  -2.216  24.950  0.00  0.00    +0.000 A 
ENDBRANCH  15  16
ENDBRANCH  14  15
TORSDOF 4
ENDMDL
MODEL 8
REMARK VINA RESULT:      -4.8      1.556      5.056
REMARK  Name = 51137385
REMARK  4 active torsions:
REMARK  status: ('A' for Active; 'I' for Inactive)
REMARK    1  A    between atoms: N_2  and  C_5
REMARK    2  A    between atoms: C_10  and  C_13
REMARK    3  A    between atoms: C_14  and  C_15
REMARK    4  A    between atoms: C_15  and  C_16
REMARK                            x       y       z     vdW  Elec       q    Type
REMARK                         _______ _______ _______ _____ _____    ______ ____
ROOT
ATOM      1  O   UNL     1      -0.829   1.591  24.428  0.00  0.00    -0.424 OA
ATOM      3  N   UNL     1       1.324   1.364  23.865  0.00  0.00    -0.112 NA
ATOM      4  N   UNL     1       1.088   2.702  24.120  0.00  0.00    -0.112 NA
ATOM     13  C   UNL     1       0.179   0.754  24.056  0.00  0.00    +0.222 A 
ATOM     14  C   UNL     1      -0.180   2.788  24.444  0.00  0.00    +0.222 A 
ENDROOT
BRANCH  13  10
ATOM      2  N   UNL     1      -1.858  -2.281  24.345  0.00  0.00    -0.299 NA
ATOM      9  C   UNL     1      -1.669  -0.959  23.740  0.00  0.00    +0.097 C 
ATOM     10  C   UNL     1      -0.166  -0.712  23.926  0.00  0.00    +0.092 C 
ATOM     11  C   UNL     1      -1.074  -2.242  25.580  0.00  0.00    +0.085 C 
ATOM     12  C   UNL     1       0.224  -1.577  25.137  0.00  0.00    +0.029 C 
BRANCH   2   5
ATOM      5  C   UNL     1      -3.276  -2.521  24.637  0.00  0.00    +0.057 C 
ATOM      6  C   UNL     1      -4.125  -2.180  23.395  0.00  0.00    +0.019 C 
ATOM      7  C   UNL     1      -3.886  -1.270  25.303  0.00  0.00    +0.019 C 
ATOM      8  C   UNL     1      -5.087  -1.444  24.349  0.00  0.00    +0.003 C 
ENDBRANCH   2   5
ENDBRANCH  13  10
BRANCH  14  15
ATOM     15  C   UNL     1      -0.974   3.967  24.816  0.00  0.00    +0.132 C 
BRANCH  15  16
ATOM     16  C   UNL     1      -2.463   3.699  25.006  0.00  0.00    -0.038 A 
ATOM     17  C   UNL     1      -3.099   4.098  26.182  0.00  0.00    +0.004 A 
ATOM     18  C   UNL     1      -3.188   3.054  24.005  0.00  0.00    +0.004 A 
ATOM     19  C   UNL     1      -4.462   3.852  26.355  0.00  0.00    +0.000 A 
ATOM     20  C   UNL     1      -4.550   2.808  24.179  0.00  0.00    +0.000 A 
ATOM     21  C   UNL     1      -5.187   3.207  25.354  0.00  0.00    +0.000 A 
ENDBRANCH  15  16
ENDBRANCH  14  15
TORSDOF 4
ENDMDL
MODEL 9
REMARK VINA RESULT:      -4.8      1.382      5.024
REMARK  Name = 51137385
REMARK  4 active torsions:
REMARK  status: ('A' for Active; 'I' for Inactive)
REMARK    1  A    between atoms: N_2  and  C_5
REMARK    2  A    between atoms: C_10  and  C_13
REMARK    3  A    between atoms: C_14  and  C_15
REMARK    4  A    between atoms: C_15  and  C_16
REMARK                            x       y       z     vdW  Elec       q    Type
REMARK                         _______ _______ _______ _____ _____    ______ ____
ROOT
ATOM      1  O   UNL     1      -1.629   2.046  24.987  0.00  0.00    -0.424 OA
ATOM      3  N   UNL     1       0.553   2.433  24.680  0.00  0.00    -0.112 NA
ATOM      4  N   UNL     1      -0.103   3.650  24.667  0.00  0.00    -0.112 NA
ATOM     13  C   UNL     1      -0.376   1.526  24.869  0.00  0.00    +0.222 A 
ATOM     14  C   UNL     1      -1.373   3.375  24.849  0.00  0.00    +0.222 A 
ENDROOT
BRANCH  13  10
ATOM      2  N   UNL     1      -1.396  -1.983  24.578  0.00  0.00    -0.299 NA
ATOM      9  C   UNL     1      -1.067  -0.721  23.909  0.00  0.00    +0.097 C 
ATOM     10  C   UNL     1      -0.248   0.024  24.972  0.00  0.00    +0.092 C 
ATOM     11  C   UNL     1      -1.778  -1.598  25.937  0.00  0.00    +0.085 C 
ATOM     12  C   UNL     1      -0.715  -0.574  26.312  0.00  0.00    +0.029 C 
BRANCH   2   5
ATOM      5  C   UNL     1      -2.507  -2.659  23.897  0.00  0.00    +0.057 C 
ATOM      6  C   UNL     1      -3.547  -1.615  23.443  0.00  0.00    +0.019 C 
ATOM      7  C   UNL     1      -3.544  -3.127  24.939  0.00  0.00    +0.019 C 
ATOM      8  C   UNL     1      -4.629  -2.563  23.997  0.00  0.00    +0.003 C 
ENDBRANCH   2   5
ENDBRANCH  13  10
BRANCH  14  15
ATOM     15  C   UNL     1      -2.525   4.283  24.926  0.00  0.00    +0.132 C 
BRANCH  15  16
ATOM     16  C   UNL     1      -3.877   3.589  25.055  0.00  0.00    -0.038 A 
ATOM     17  C   UNL     1      -4.042   2.290  24.574  0.00  0.00    +0.004 A 
ATOM     18  C   UNL     1      -4.948   4.253  25.652  0.00  0.00    +0.004 A 
ATOM     19  C   UNL     1      -5.279   1.655  24.691  0.00  0.00    +0.000 A 
ATOM     20  C   UNL     1      -6.184   3.618  25.769  0.00  0.00    +0.000 A 
ATOM     21  C   UNL     1      -6.350   2.320  25.289  0.00  0.00    +0.000 A 
ENDBRANCH  15  16
ENDBRANCH  14  15
TORSDOF 4
ENDMDL
MODEL 10
REMARK VINA RESULT:      -4.4     16.243     19.326
REMARK  Name = 51137385
REMARK  4 active torsions:
REMARK  status: ('A' for Active; 'I' for Inactive)
REMARK    1  A    between atoms: N_2  and  C_5
REMARK    2  A    between atoms: C_10  and  C_13
REMARK    3  A    between atoms: C_14  and  C_15
REMARK    4  A    between atoms: C_15  and  C_16
REMARK                            x       y       z     vdW  Elec       q    Type
REMARK                         _______ _______ _______ _____ _____    ______ ____
ROOT
ATOM      1  O   UNL     1      12.057  -9.057  31.751  0.00  0.00    -0.424 OA
ATOM      3  N   UNL     1      12.572  -7.194  30.626  0.00  0.00    -0.112 NA
ATOM      4  N   UNL     1      11.354  -6.994  31.249  0.00  0.00    -0.112 NA
ATOM     13  C   UNL     1      12.944  -8.410  30.946  0.00  0.00    +0.222 A 
ATOM     14  C   UNL     1      11.094  -8.106  31.893  0.00  0.00    +0.222 A 
ENDROOT
BRANCH  13  10
ATOM      2  N   UNL     1      15.733  -9.466  28.814  0.00  0.00    -0.299 NA
ATOM      9  C   UNL     1      15.082  -8.396  29.576  0.00  0.00    +0.097 C 
ATOM     10  C   UNL     1      14.191  -9.171  30.556  0.00  0.00    +0.092 C 
ATOM     11  C   UNL     1      14.667 -10.427  28.531  0.00  0.00    +0.085 C 
ATOM     12  C   UNL     1      13.933 -10.521  29.862  0.00  0.00    +0.029 C 
BRANCH   2   5
ATOM      5  C   UNL     1      16.307  -8.943  27.568  0.00  0.00    +0.057 C 
ATOM      6  C   UNL     1      15.607  -7.620  27.192  0.00  0.00    +0.019 C 
ATOM      7  C   UNL     1      15.586  -9.579  26.361  0.00  0.00    +0.019 C 
ATOM      8  C   UNL     1      15.525  -8.162  25.751  0.00  0.00    +0.003 C 
ENDBRANCH   2   5
ENDBRANCH  13  10
BRANCH  14  15
ATOM     15  C   UNL     1       9.936  -8.455  32.728  0.00  0.00    +0.132 C 
BRANCH  15  16
ATOM     16  C   UNL     1       8.730  -8.982  31.956  0.00  0.00    -0.038 A 
ATOM     17  C   UNL     1       8.716 -10.299  31.498  0.00  0.00    +0.004 A 
ATOM     18  C   UNL     1       7.641  -8.145  31.709  0.00  0.00    +0.004 A 
ATOM     19  C   UNL     1       7.613 -10.780  30.792  0.00  0.00    +0.000 A 
ATOM     20  C   UNL     1       6.539  -8.627  31.003  0.00  0.00    +0.000 A 
ATOM     21  C   UNL     1       6.525  -9.944  30.545  0.00  0.00    +0.000 A 
ENDBRANCH  15  16
ENDBRANCH  14  15
TORSDOF 4
ENDMDL
