MODEL 1
REMARK VINA RESULT:       1.9      0.000      0.000
REMARK  Name = 40777117
REMARK  8 active torsions:
REMARK  status: ('A' for Active; 'I' for Inactive)
REMARK    1  A    between atoms: O_3  and  C_33
REMARK    2  A    between atoms: O_3  and  C_34
REMARK    3  A    between atoms: N_5  and  C_15
REMARK    4  A    between atoms: C_9  and  C_16
REMARK    5  A    between atoms: C_10  and  C_15
REMARK    6  A    between atoms: C_18  and  C_21
REMARK    7  A    between atoms: C_19  and  C_22
REMARK    8  A    between atoms: C_20  and  C_23
REMARK                            x       y       z     vdW  Elec       q    Type
REMARK                         _______ _______ _______ _____ _____    ______ ____
ROOT
ATOM      4  N   UNL     1      -2.829  -2.299  23.705  0.00  0.00    -0.297 NA
ATOM      8  C   UNL     1      -2.894  -1.357  26.132  0.00  0.00    +0.002 C 
ATOM      9  C   UNL     1      -4.017  -0.716  25.271  0.00  0.00    +0.055 C 
ATOM     10  C   UNL     1      -1.472  -1.849  24.113  0.00  0.00    +0.074 C 
ATOM     11  C   UNL     1      -1.528  -1.101  25.462  0.00  0.00    +0.024 C 
ATOM     12  C   UNL     1      -3.132  -2.882  26.112  0.00  0.00    +0.019 C 
ATOM     13  C   UNL     1      -3.788  -1.170  23.800  0.00  0.00    +0.094 C 
ATOM     14  C   UNL     1      -3.261  -3.354  24.653  0.00  0.00    +0.085 C 
ENDROOT
BRANCH   9  16
ATOM      6  N   UNL     1      -5.490   1.190  25.692  0.00  0.00    -0.237 NA
ATOM      7  N   UNL     1      -4.704   3.467  25.594  0.00  0.00    -0.232 NA
ATOM     16  C   UNL     1      -4.241   0.785  25.383  0.00  0.00    +0.050 A 
ATOM     17  C   UNL     1      -3.186   1.648  25.168  0.00  0.00    +0.052 A 
ATOM     18  C   UNL     1      -3.479   2.991  25.288  0.00  0.00    +0.076 A 
ATOM     19  C   UNL     1      -5.648   2.525  25.780  0.00  0.00    +0.127 A 
ATOM     22  C   UNL     1      -7.017   3.012  26.118  0.00  0.00    +0.088 C 
BRANCH  18  21
ATOM      1 BR   UNL     1      -0.464   1.942  25.494  0.00  0.00    -0.050 Br
ATOM     21  C   UNL     1      -2.463   3.998  25.086  0.00  0.00    +0.014 A 
ATOM     24  C   UNL     1      -1.103   3.698  25.144  0.00  0.00    +0.027 A 
ATOM     25  C   UNL     1      -2.880   5.303  24.826  0.00  0.00    +0.011 A 
ATOM     28  C   UNL     1      -0.158   4.705  24.942  0.00  0.00    +0.016 A 
ATOM     29  C   UNL     1      -1.935   6.310  24.624  0.00  0.00    +0.001 A 
ATOM     32  C   UNL     1      -0.575   6.010  24.681  0.00  0.00    +0.001 A 
ENDBRANCH  18  21
ENDBRANCH   9  16
BRANCH  10  15
ATOM     15  C   UNL     1      -0.782  -1.019  23.029  0.00  0.00    +0.123 C 
BRANCH  15   5
ATOM      2  O   UNL     1       1.307  -0.352  21.176  0.00  0.00    -0.270 OA
ATOM      5  N   UNL     1       0.601  -0.825  23.336  0.00  0.00    -0.310 N 
ATOM     20  C   UNL     1       1.553  -0.502  22.371  0.00  0.00    +0.244 C 
ATOM     35  H   UNL     1       0.883  -0.995  24.295  0.00  0.00    +0.149 HD
BRANCH  20  23
ATOM     23  C   UNL     1       2.953  -0.361  22.847  0.00  0.00    +0.037 A 
ATOM     26  C   UNL     1       3.650   0.827  22.622  0.00  0.00    +0.016 A 
ATOM     27  C   UNL     1       3.571  -1.415  23.518  0.00  0.00    +0.016 A 
ATOM     30  C   UNL     1       4.964   0.960  23.068  0.00  0.00    +0.046 A 
ATOM     31  C   UNL     1       4.887  -1.283  23.964  0.00  0.00    +0.046 A 
ATOM     33  C   UNL     1       5.583  -0.095  23.739  0.00  0.00    +0.120 A 
BRANCH  33   3
ATOM      3  O   UNL     1       6.865   0.034  24.175  0.00  0.00    -0.495 OA
ATOM     34  C   UNL     1       7.902  -0.257  23.238  0.00  0.00    +0.277 C 
ENDBRANCH  33   3
ENDBRANCH  20  23
ENDBRANCH  15   5
ENDBRANCH  10  15
TORSDOF 6
ENDMDL
