MODEL 1
REMARK VINA RESULT:      18.4      0.000      0.000
REMARK  Name = 7155496
REMARK  6 active torsions:
REMARK  status: ('A' for Active; 'I' for Inactive)
REMARK    1  A    between atoms: O_4  and  C_27
REMARK    2  A    between atoms: O_4  and  C_33
REMARK    3  A    between atoms: N_7  and  C_18
REMARK    4  A    between atoms: C_17  and  C_20
REMARK    5  A    between atoms: C_23  and  C_27
REMARK    6  A    between atoms: C_26  and  C_28
REMARK                            x       y       z     vdW  Elec       q    Type
REMARK                         _______ _______ _______ _____ _____    ______ ____
ROOT
ATOM      1  O   UNL     1      -2.427   1.279  21.681  0.00  0.00    -0.266 OA
ATOM      2  O   UNL     1      -2.750   5.194  25.045  0.00  0.00    -0.270 OA
ATOM      5  N   UNL     1      -4.276   3.553  25.718  0.00  0.00    -0.297 N 
ATOM      6  N   UNL     1      -3.738   1.241  23.615  0.00  0.00    -0.310 N 
ATOM      8  C   UNL     1      -5.794   2.738  23.922  0.00  0.00    +0.027 C 
ATOM      9  C   UNL     1      -5.108   1.213  25.728  0.00  0.00    +0.054 C 
ATOM     10  C   UNL     1      -6.286   1.632  24.849  0.00  0.00    +0.018 C 
ATOM     11  C   UNL     1      -5.293   3.942  24.741  0.00  0.00    +0.113 C 
ATOM     12  C   UNL     1      -4.704   2.169  23.007  0.00  0.00    +0.130 C 
ATOM     13  C   UNL     1      -4.644   2.414  26.576  0.00  0.00    +0.117 C 
ATOM     14  C   UNL     1      -3.953   0.703  24.888  0.00  0.00    +0.027 A 
ATOM     15  C   UNL     1      -3.120  -0.231  25.377  0.00  0.00    +0.024 A 
ATOM     16  C   UNL     1      -2.648   0.847  22.813  0.00  0.00    +0.273 A 
ATOM     17  C   UNL     1      -3.062   4.242  25.758  0.00  0.00    +0.247 C 
ATOM     18  C   UNL     1      -1.728  -0.175  23.405  0.00  0.00    +0.099 A 
ATOM     19  C   UNL     1      -1.985  -0.676  24.618  0.00  0.00    +0.030 A 
ENDROOT
BRANCH  17  20
ATOM     20  C   UNL     1      -2.049   3.793  26.720  0.00  0.00    +0.037 A 
ATOM     21  C   UNL     1      -0.856   3.231  26.264  0.00  0.00    +0.013 A 
ATOM     22  C   UNL     1      -2.278   3.929  28.089  0.00  0.00    +0.013 A 
ATOM     24  C   UNL     1       0.107   2.803  27.177  0.00  0.00    +0.009 A 
ATOM     25  C   UNL     1      -1.314   3.502  29.002  0.00  0.00    +0.009 A 
ATOM     26  C   UNL     1      -0.122   2.939  28.548  0.00  0.00    -0.018 A 
BRANCH  26  28
ATOM     28  C   UNL     1       0.877   2.496  29.495  0.00  0.00    -0.018 A 
ATOM     29  C   UNL     1       0.549   2.368  30.846  0.00  0.00    +0.008 A 
ATOM     30  C   UNL     1       2.168   2.197  29.060  0.00  0.00    +0.008 A 
ATOM     31  C   UNL     1       1.512   1.939  31.760  0.00  0.00    +0.001 A 
ATOM     32  C   UNL     1       3.130   1.769  29.974  0.00  0.00    +0.001 A 
ATOM     34  C   UNL     1       2.803   1.641  31.323  0.00  0.00    +0.000 A 
ENDBRANCH  26  28
ENDBRANCH  17  20
BRANCH  18   7
ATOM      3  O   UNL     1       0.901   0.966  23.486  0.00  0.00    -0.272 OA
ATOM      7  N   UNL     1      -0.651  -0.570  22.669  0.00  0.00    -0.278 N 
ATOM     23  C   UNL     1       0.600   0.026  22.756  0.00  0.00    +0.255 C 
ATOM     40  H   UNL     1      -0.836  -1.176  21.873  0.00  0.00    +0.155 HD
BRANCH  23  27
ATOM     27  C   UNL     1       1.594  -0.627  21.817  0.00  0.00    +0.324 C 
BRANCH  27   4
ATOM      4  O   UNL     1       2.759   0.161  21.695  0.00  0.00    -0.483 OA
BRANCH   4  33
ATOM     33  C   UNL     1       3.762  -0.058  22.609  0.00  0.00    +0.121 A 
ATOM     35  C   UNL     1       4.647   0.970  22.934  0.00  0.00    +0.045 A 
ATOM     36  C   UNL     1       3.895  -1.309  23.211  0.00  0.00    +0.045 A 
ATOM     37  C   UNL     1       5.665   0.747  23.861  0.00  0.00    +0.004 A 
ATOM     38  C   UNL     1       4.914  -1.533  24.137  0.00  0.00    +0.004 A 
ATOM     39  C   UNL     1       5.799  -0.505  24.462  0.00  0.00    +0.000 A 
ENDBRANCH   4  33
ENDBRANCH  27   4
ENDBRANCH  23  27
ENDBRANCH  18   7
TORSDOF 6
ENDMDL
MODEL 2
REMARK VINA RESULT:      21.0      2.960      6.373
REMARK  Name = 7155496
REMARK  6 active torsions:
REMARK  status: ('A' for Active; 'I' for Inactive)
REMARK    1  A    between atoms: O_4  and  C_27
REMARK    2  A    between atoms: O_4  and  C_33
REMARK    3  A    between atoms: N_7  and  C_18
REMARK    4  A    between atoms: C_17  and  C_20
REMARK    5  A    between atoms: C_23  and  C_27
REMARK    6  A    between atoms: C_26  and  C_28
REMARK                            x       y       z     vdW  Elec       q    Type
REMARK                         _______ _______ _______ _____ _____    ______ ____
ROOT
ATOM      1  O   UNL     1      -4.506   2.388  25.126  0.00  0.00    -0.266 OA
ATOM      2  O   UNL     1      -1.765  -1.541  27.075  0.00  0.00    -0.270 OA
ATOM      5  N   UNL     1      -2.663  -2.248  25.033  0.00  0.00    -0.297 N 
ATOM      6  N   UNL     1      -4.116   0.377  24.002  0.00  0.00    -0.310 N 
ATOM      8  C   UNL     1      -5.107  -1.855  24.775  0.00  0.00    +0.027 C 
ATOM      9  C   UNL     1      -3.642  -1.785  22.798  0.00  0.00    +0.054 C 
ATOM     10  C   UNL     1      -5.008  -2.247  23.305  0.00  0.00    +0.018 C 
ATOM     11  C   UNL     1      -3.987  -2.530  25.588  0.00  0.00    +0.113 C 
ATOM     12  C   UNL     1      -5.059  -0.327  24.884  0.00  0.00    +0.130 C 
ATOM     13  C   UNL     1      -2.529  -2.500  23.589  0.00  0.00    +0.117 C 
ATOM     14  C   UNL     1      -3.487  -0.283  22.941  0.00  0.00    +0.027 A 
ATOM     15  C   UNL     1      -2.720   0.404  22.077  0.00  0.00    +0.024 A 
ATOM     16  C   UNL     1      -3.960   1.761  24.217  0.00  0.00    +0.273 A 
ATOM     17  C   UNL     1      -1.659  -1.754  25.868  0.00  0.00    +0.247 C 
ATOM     18  C   UNL     1      -3.075   2.484  23.249  0.00  0.00    +0.099 A 
ATOM     19  C   UNL     1      -2.511   1.815  22.238  0.00  0.00    +0.030 A 
ENDROOT
BRANCH  17  20
ATOM     20  C   UNL     1      -0.359  -1.438  25.267  0.00  0.00    +0.037 A 
ATOM     21  C   UNL     1      -0.195  -0.258  24.541  0.00  0.00    +0.013 A 
ATOM     22  C   UNL     1       0.714  -2.317  25.422  0.00  0.00    +0.013 A 
ATOM     24  C   UNL     1       1.041   0.042  23.968  0.00  0.00    +0.009 A 
ATOM     25  C   UNL     1       1.949  -2.016  24.849  0.00  0.00    +0.009 A 
ATOM     26  C   UNL     1       2.114  -0.837  24.123  0.00  0.00    -0.018 A 
BRANCH  26  28
ATOM     28  C   UNL     1       3.396  -0.526  23.529  0.00  0.00    -0.018 A 
ATOM     29  C   UNL     1       3.495   0.489  22.576  0.00  0.00    +0.008 A 
ATOM     30  C   UNL     1       4.533  -1.238  23.910  0.00  0.00    +0.008 A 
ATOM     31  C   UNL     1       4.732   0.790  22.005  0.00  0.00    +0.001 A 
ATOM     32  C   UNL     1       5.768  -0.938  23.338  0.00  0.00    +0.001 A 
ATOM     34  C   UNL     1       5.868   0.076  22.386  0.00  0.00    +0.000 A 
ENDBRANCH  26  28
ENDBRANCH  17  20
BRANCH  18   7
ATOM      3  O   UNL     1      -4.940   4.328  24.409  0.00  0.00    -0.272 OA
ATOM      7  N   UNL     1      -2.884   3.821  23.433  0.00  0.00    -0.278 N 
ATOM     23  C   UNL     1      -3.830   4.662  24.004  0.00  0.00    +0.255 C 
ATOM     40  H   UNL     1      -2.108   4.247  22.933  0.00  0.00    +0.155 HD
BRANCH  23  27
ATOM     27  C   UNL     1      -3.332   6.091  24.076  0.00  0.00    +0.324 C 
BRANCH  27   4
ATOM      4  O   UNL     1      -2.242   6.196  24.967  0.00  0.00    -0.483 OA
BRANCH   4  33
ATOM     33  C   UNL     1      -1.583   5.034  25.291  0.00  0.00    +0.121 A 
ATOM     35  C   UNL     1      -0.427   4.670  24.601  0.00  0.00    +0.045 A 
ATOM     36  C   UNL     1      -2.073   4.218  26.311  0.00  0.00    +0.045 A 
ATOM     37  C   UNL     1       0.239   3.490  24.930  0.00  0.00    +0.004 A 
ATOM     38  C   UNL     1      -1.406   3.038  26.641  0.00  0.00    +0.004 A 
ATOM     39  C   UNL     1      -0.250   2.673  25.950  0.00  0.00    +0.000 A 
ENDBRANCH   4  33
ENDBRANCH  27   4
ENDBRANCH  23  27
ENDBRANCH  18   7
TORSDOF 6
ENDMDL
