MODEL 1
REMARK VINA RESULT:      -4.1      0.000      0.000
REMARK  Name = 75537071
REMARK  3 active torsions:
REMARK  status: ('A' for Active; 'I' for Inactive)
REMARK    1  A    between atoms: N_3  and  C_12
REMARK    2  A    between atoms: N_4  and  C_13
REMARK    3  A    between atoms: C_12  and  C_14
REMARK                            x       y       z     vdW  Elec       q    Type
REMARK                         _______ _______ _______ _____ _____    ______ ____
ROOT
ATOM      1  O   UNL     1      -0.576  -1.640  23.754  0.00  0.00    -0.252 OA
ATOM      2  N   UNL     1      -1.026   0.470  24.685  0.00  0.00    -0.278 N 
ATOM      3  N   UNL     1       0.738   0.268  23.309  0.00  0.00    -0.278 N 
ATOM      4  N   UNL     1      -2.512   2.704  25.525  0.00  0.00    -0.302 NA
ATOM      6  C   UNL     1      -0.381   1.765  24.728  0.00  0.00    +0.109 C 
ATOM      7  C   UNL     1       0.671   1.685  23.623  0.00  0.00    +0.133 C 
ATOM      8  C   UNL     1      -1.412   2.879  24.555  0.00  0.00    +0.108 C 
ATOM      9  C   UNL     1      -2.207   0.238  25.490  0.00  0.00    +0.125 C 
ATOM     10  C   UNL     1      -3.185   1.404  25.331  0.00  0.00    +0.103 C 
ATOM     11  C   UNL     1      -0.318  -0.452  23.901  0.00  0.00    +0.306 C 
ATOM     13  C   UNL     1      -3.474   3.800  25.407  0.00  0.00    +0.105 C 
ENDROOT
BRANCH   3  12
ATOM     12  C   UNL     1       1.704  -0.264  22.373  0.00  0.00    +0.164 C 
BRANCH  12  14
ATOM      5  N   UNL     1       3.510  -1.400  23.535  0.00  0.00    -0.258 NA
ATOM     14  C   UNL     1       3.095  -0.261  22.938  0.00  0.00    +0.059 A 
ATOM     15  C   UNL     1       3.871   0.882  22.824  0.00  0.00    +0.025 A 
ATOM     16  C   UNL     1       5.155   0.853  23.356  0.00  0.00    +0.003 A 
ATOM     17  C   UNL     1       4.763  -1.391  24.041  0.00  0.00    +0.111 A 
ATOM     18  C   UNL     1       5.618  -0.302  23.978  0.00  0.00    +0.020 A 
ENDBRANCH  12  14
ENDBRANCH   3  12
TORSDOF 2
ENDMDL
MODEL 2
REMARK VINA RESULT:      -3.8     14.255     16.224
REMARK  Name = 75537071
REMARK  3 active torsions:
REMARK  status: ('A' for Active; 'I' for Inactive)
REMARK    1  A    between atoms: N_3  and  C_12
REMARK    2  A    between atoms: N_4  and  C_13
REMARK    3  A    between atoms: C_12  and  C_14
REMARK                            x       y       z     vdW  Elec       q    Type
REMARK                         _______ _______ _______ _____ _____    ______ ____
ROOT
ATOM      1  O   UNL     1      12.252  -9.606  30.996  0.00  0.00    -0.252 OA
ATOM      2  N   UNL     1      12.674  -7.296  31.092  0.00  0.00    -0.278 N 
ATOM      3  N   UNL     1      10.932  -8.108  32.253  0.00  0.00    -0.278 N 
ATOM      4  N   UNL     1      14.131  -4.902  31.312  0.00  0.00    -0.302 NA
ATOM      6  C   UNL     1      12.020  -6.124  31.632  0.00  0.00    +0.109 C 
ATOM      7  C   UNL     1      10.985  -6.699  32.598  0.00  0.00    +0.133 C 
ATOM      8  C   UNL     1      13.045  -5.189  32.271  0.00  0.00    +0.108 C 
ATOM      9  C   UNL     1      13.845  -7.133  30.255  0.00  0.00    +0.125 C 
ATOM     10  C   UNL     1      14.817  -6.144  30.903  0.00  0.00    +0.103 C 
ATOM     11  C   UNL     1      11.984  -8.479  31.393  0.00  0.00    +0.306 C 
ATOM     13  C   UNL     1      15.088  -3.959  31.892  0.00  0.00    +0.105 C 
ENDROOT
BRANCH   3  12
ATOM     12  C   UNL     1       9.984  -9.013  32.867  0.00  0.00    +0.164 C 
BRANCH  12  14
ATOM      5  N   UNL     1       8.759 -10.526  31.415  0.00  0.00    -0.258 NA
ATOM     14  C   UNL     1       8.814  -9.295  31.970  0.00  0.00    +0.059 A 
ATOM     15  C   UNL     1       7.869  -8.304  31.755  0.00  0.00    +0.025 A 
ATOM     16  C   UNL     1       6.796  -8.598  30.920  0.00  0.00    +0.003 A 
ATOM     17  C   UNL     1       7.703 -10.774  30.608  0.00  0.00    +0.111 A 
ATOM     18  C   UNL     1       6.705  -9.854  30.331  0.00  0.00    +0.020 A 
ENDBRANCH  12  14
ENDBRANCH   3  12
TORSDOF 2
ENDMDL
MODEL 3
REMARK VINA RESULT:      -2.9      2.231      3.569
REMARK  Name = 75537071
REMARK  3 active torsions:
REMARK  status: ('A' for Active; 'I' for Inactive)
REMARK    1  A    between atoms: N_3  and  C_12
REMARK    2  A    between atoms: N_4  and  C_13
REMARK    3  A    between atoms: C_12  and  C_14
REMARK                            x       y       z     vdW  Elec       q    Type
REMARK                         _______ _______ _______ _____ _____    ______ ____
ROOT
ATOM      1  O   UNL     1      -0.846   4.421  25.012  0.00  0.00    -0.252 OA
ATOM      2  N   UNL     1      -2.742   3.121  24.522  0.00  0.00    -0.278 N 
ATOM      3  N   UNL     1      -0.759   2.083  24.708  0.00  0.00    -0.278 N 
ATOM      4  N   UNL     1      -5.385   2.174  24.674  0.00  0.00    -0.302 NA
ATOM      6  C   UNL     1      -3.017   1.747  24.161  0.00  0.00    +0.109 C 
ATOM      7  C   UNL     1      -1.723   1.014  24.512  0.00  0.00    +0.133 C 
ATOM      8  C   UNL     1      -4.260   1.243  24.892  0.00  0.00    +0.108 C 
ATOM      9  C   UNL     1      -3.816   4.092  24.486  0.00  0.00    +0.125 C 
ATOM     10  C   UNL     1      -5.058   3.524  25.176  0.00  0.00    +0.103 C 
ATOM     11  C   UNL     1      -1.381   3.346  24.773  0.00  0.00    +0.306 C 
ATOM     13  C   UNL     1      -6.597   1.670  25.321  0.00  0.00    +0.105 C 
ENDROOT
BRANCH   3  12
ATOM     12  C   UNL     1       0.641   1.817  24.955  0.00  0.00    +0.164 C 
BRANCH  12  14
ATOM      5  N   UNL     1       2.578   1.398  23.550  0.00  0.00    -0.258 NA
ATOM     14  C   UNL     1       1.286   1.093  23.809  0.00  0.00    +0.059 A 
ATOM     15  C   UNL     1       0.547   0.170  23.087  0.00  0.00    +0.025 A 
ATOM     16  C   UNL     1       1.174  -0.484  22.032  0.00  0.00    +0.003 A 
ATOM     17  C   UNL     1       3.153   0.742  22.517  0.00  0.00    +0.111 A 
ATOM     18  C   UNL     1       2.502  -0.198  21.735  0.00  0.00    +0.020 A 
ENDBRANCH  12  14
ENDBRANCH   3  12
TORSDOF 2
ENDMDL
MODEL 4
REMARK VINA RESULT:      -2.8      3.554      5.085
REMARK  Name = 75537071
REMARK  3 active torsions:
REMARK  status: ('A' for Active; 'I' for Inactive)
REMARK    1  A    between atoms: N_3  and  C_12
REMARK    2  A    between atoms: N_4  and  C_13
REMARK    3  A    between atoms: C_12  and  C_14
REMARK                            x       y       z     vdW  Elec       q    Type
REMARK                         _______ _______ _______ _____ _____    ______ ____
ROOT
ATOM      1  O   UNL     1      -0.027   2.381  26.143  0.00  0.00    -0.252 OA
ATOM      2  N   UNL     1      -2.011   3.236  25.218  0.00  0.00    -0.278 N 
ATOM      3  N   UNL     1      -1.364   1.170  24.622  0.00  0.00    -0.278 N 
ATOM      4  N   UNL     1      -4.500   4.539  25.095  0.00  0.00    -0.302 NA
ATOM      6  C   UNL     1      -2.963   2.837  24.203  0.00  0.00    +0.109 C 
ATOM      7  C   UNL     1      -2.651   1.358  23.976  0.00  0.00    +0.133 C 
ATOM      8  C   UNL     1      -4.389   3.130  24.666  0.00  0.00    +0.108 C 
ATOM      9  C   UNL     1      -2.122   4.551  25.816  0.00  0.00    +0.125 C 
ATOM     10  C   UNL     1      -3.575   4.825  26.210  0.00  0.00    +0.103 C 
ATOM     11  C   UNL     1      -1.008   2.278  25.416  0.00  0.00    +0.306 C 
ATOM     13  C   UNL     1      -5.877   4.845  25.483  0.00  0.00    +0.105 C 
ENDROOT
BRANCH   3  12
ATOM     12  C   UNL     1      -0.645  -0.083  24.548  0.00  0.00    +0.164 C 
BRANCH  12  14
ATOM      5  N   UNL     1      -1.307  -2.295  23.791  0.00  0.00    -0.258 NA
ATOM     14  C   UNL     1      -1.567  -1.265  24.627  0.00  0.00    +0.059 A 
ATOM     15  C   UNL     1      -2.617  -1.247  25.532  0.00  0.00    +0.025 A 
ATOM     16  C   UNL     1      -3.452  -2.358  25.582  0.00  0.00    +0.003 A 
ATOM     17  C   UNL     1      -2.140  -3.356  23.867  0.00  0.00    +0.111 A 
ATOM     18  C   UNL     1      -3.216  -3.437  24.737  0.00  0.00    +0.020 A 
ENDBRANCH  12  14
ENDBRANCH   3  12
TORSDOF 2
ENDMDL
MODEL 5
REMARK VINA RESULT:      -2.8      4.815      6.239
REMARK  Name = 75537071
REMARK  3 active torsions:
REMARK  status: ('A' for Active; 'I' for Inactive)
REMARK    1  A    between atoms: N_3  and  C_12
REMARK    2  A    between atoms: N_4  and  C_13
REMARK    3  A    between atoms: C_12  and  C_14
REMARK                            x       y       z     vdW  Elec       q    Type
REMARK                         _______ _______ _______ _____ _____    ______ ____
ROOT
ATOM      1  O   UNL     1      -5.447   3.252  25.838  0.00  0.00    -0.252 OA
ATOM      2  N   UNL     1      -3.123   3.513  25.605  0.00  0.00    -0.278 N 
ATOM      3  N   UNL     1      -4.031   1.534  25.058  0.00  0.00    -0.278 N 
ATOM      4  N   UNL     1      -0.672   4.713  24.925  0.00  0.00    -0.302 NA
ATOM      6  C   UNL     1      -1.990   2.668  25.294  0.00  0.00    +0.109 C 
ATOM      7  C   UNL     1      -2.627   1.409  24.708  0.00  0.00    +0.133 C 
ATOM      8  C   UNL     1      -1.024   3.394  24.360  0.00  0.00    +0.108 C 
ATOM      9  C   UNL     1      -2.894   4.880  26.027  0.00  0.00    +0.125 C 
ATOM     10  C   UNL     1      -1.877   5.550  25.101  0.00  0.00    +0.103 C 
ATOM     11  C   UNL     1      -4.340   2.820  25.542  0.00  0.00    +0.306 C 
ATOM     13  C   UNL     1       0.299   5.391  24.067  0.00  0.00    +0.105 C 
ENDROOT
BRANCH   3  12
ATOM     12  C   UNL     1      -4.987   0.484  24.779  0.00  0.00    +0.164 C 
BRANCH  12  14
ATOM      5  N   UNL     1      -3.656  -1.223  25.883  0.00  0.00    -0.258 NA
ATOM     14  C   UNL     1      -4.346  -0.873  24.774  0.00  0.00    +0.059 A 
ATOM     15  C   UNL     1      -4.486  -1.685  23.659  0.00  0.00    +0.025 A 
ATOM     16  C   UNL     1      -3.881  -2.937  23.686  0.00  0.00    +0.003 A 
ATOM     17  C   UNL     1      -3.081  -2.446  25.872  0.00  0.00    +0.111 A 
ATOM     18  C   UNL     1      -3.163  -3.332  24.809  0.00  0.00    +0.020 A 
ENDBRANCH  12  14
ENDBRANCH   3  12
TORSDOF 2
ENDMDL
MODEL 6
REMARK VINA RESULT:      -2.4      1.950      2.949
REMARK  Name = 75537071
REMARK  3 active torsions:
REMARK  status: ('A' for Active; 'I' for Inactive)
REMARK    1  A    between atoms: N_3  and  C_12
REMARK    2  A    between atoms: N_4  and  C_13
REMARK    3  A    between atoms: C_12  and  C_14
REMARK                            x       y       z     vdW  Elec       q    Type
REMARK                         _______ _______ _______ _____ _____    ______ ____
ROOT
ATOM      1  O   UNL     1       0.410   2.279  25.897  0.00  0.00    -0.252 OA
ATOM      2  N   UNL     1      -1.710   2.858  25.065  0.00  0.00    -0.278 N 
ATOM      3  N   UNL     1      -0.815   0.900  24.426  0.00  0.00    -0.278 N 
ATOM      4  N   UNL     1      -4.356   3.810  25.059  0.00  0.00    -0.302 NA
ATOM      6  C   UNL     1      -2.642   2.334  24.089  0.00  0.00    +0.109 C 
ATOM      7  C   UNL     1      -2.143   0.912  23.838  0.00  0.00    +0.133 C 
ATOM      8  C   UNL     1      -4.073   2.430  24.615  0.00  0.00    +0.108 C 
ATOM      9  C   UNL     1      -1.972   4.145  25.677  0.00  0.00    +0.125 C 
ATOM     10  C   UNL     1      -3.430   4.218  26.135  0.00  0.00    +0.103 C 
ATOM     11  C   UNL     1      -0.578   2.045  25.213  0.00  0.00    +0.306 C 
ATOM     13  C   UNL     1      -5.743   3.926  25.508  0.00  0.00    +0.105 C 
ENDROOT
BRANCH   3  12
ATOM     12  C   UNL     1       0.063  -0.244  24.312  0.00  0.00    +0.164 C 
BRANCH  12  14
ATOM      5  N   UNL     1       2.183   0.838  23.824  0.00  0.00    -0.258 NA
ATOM     14  C   UNL     1       1.207   0.016  23.376  0.00  0.00    +0.059 A 
ATOM     15  C   UNL     1       1.210  -0.582  22.126  0.00  0.00    +0.025 A 
ATOM     16  C   UNL     1       2.285  -0.323  21.283  0.00  0.00    +0.003 A 
ATOM     17  C   UNL     1       3.210   1.068  22.976  0.00  0.00    +0.111 A 
ATOM     18  C   UNL     1       3.308   0.518  21.708  0.00  0.00    +0.020 A 
ENDBRANCH  12  14
ENDBRANCH   3  12
TORSDOF 2
ENDMDL
MODEL 7
REMARK VINA RESULT:      -1.9      3.138      5.572
REMARK  Name = 75537071
REMARK  3 active torsions:
REMARK  status: ('A' for Active; 'I' for Inactive)
REMARK    1  A    between atoms: N_3  and  C_12
REMARK    2  A    between atoms: N_4  and  C_13
REMARK    3  A    between atoms: C_12  and  C_14
REMARK                            x       y       z     vdW  Elec       q    Type
REMARK                         _______ _______ _______ _____ _____    ______ ____
ROOT
ATOM      1  O   UNL     1       0.752  -0.800  24.244  0.00  0.00    -0.252 OA
ATOM      2  N   UNL     1      -1.519  -1.295  24.592  0.00  0.00    -0.278 N 
ATOM      3  N   UNL     1      -0.901   0.863  24.510  0.00  0.00    -0.278 N 
ATOM      4  N   UNL     1      -4.012  -2.553  24.259  0.00  0.00    -0.302 NA
ATOM      6  C   UNL     1      -2.724  -0.560  24.910  0.00  0.00    +0.109 C 
ATOM      7  C   UNL     1      -2.348   0.893  24.627  0.00  0.00    +0.133 C 
ATOM      8  C   UNL     1      -3.903  -1.090  24.094  0.00  0.00    +0.108 C 
ATOM      9  C   UNL     1      -1.554  -2.743  24.578  0.00  0.00    +0.125 C 
ATOM     10  C   UNL     1      -2.780  -3.229  23.802  0.00  0.00    +0.103 C 
ATOM     11  C   UNL     1      -0.409  -0.455  24.430  0.00  0.00    +0.306 C 
ATOM     13  C   UNL     1      -5.173  -3.062  23.529  0.00  0.00    +0.105 C 
ENDROOT
BRANCH   3  12
ATOM     12  C   UNL     1      -0.119   2.068  24.346  0.00  0.00    +0.164 C 
BRANCH  12  14
ATOM      5  N   UNL     1      -1.924   3.084  25.615  0.00  0.00    -0.258 NA
ATOM     14  C   UNL     1      -0.866   3.289  24.799  0.00  0.00    +0.059 A 
ATOM     15  C   UNL     1      -0.447   4.539  24.371  0.00  0.00    +0.025 A 
ATOM     16  C   UNL     1      -1.159   5.650  24.810  0.00  0.00    +0.003 A 
ATOM     17  C   UNL     1      -2.592   4.187  26.020  0.00  0.00    +0.111 A 
ATOM     18  C   UNL     1      -2.253   5.479  25.650  0.00  0.00    +0.020 A 
ENDBRANCH  12  14
ENDBRANCH   3  12
TORSDOF 2
ENDMDL
MODEL 8
REMARK VINA RESULT:      -1.5      1.644      6.746
REMARK  Name = 75537071
REMARK  3 active torsions:
REMARK  status: ('A' for Active; 'I' for Inactive)
REMARK    1  A    between atoms: N_3  and  C_12
REMARK    2  A    between atoms: N_4  and  C_13
REMARK    3  A    between atoms: C_12  and  C_14
REMARK                            x       y       z     vdW  Elec       q    Type
REMARK                         _______ _______ _______ _____ _____    ______ ____
ROOT
ATOM      1  O   UNL     1      -1.482  -0.236  25.866  0.00  0.00    -0.252 OA
ATOM      2  N   UNL     1       0.031   0.320  24.156  0.00  0.00    -0.278 N 
ATOM      3  N   UNL     1      -1.122   1.979  25.137  0.00  0.00    -0.278 N 
ATOM      4  N   UNL     1       2.404   0.312  22.647  0.00  0.00    -0.302 NA
ATOM      6  C   UNL     1       0.388   1.504  23.405  0.00  0.00    +0.109 C 
ATOM      7  C   UNL     1      -0.216   2.646  24.219  0.00  0.00    +0.133 C 
ATOM      8  C   UNL     1       1.903   1.579  23.218  0.00  0.00    +0.108 C 
ATOM      9  C   UNL     1       0.588  -0.960  23.770  0.00  0.00    +0.125 C 
ATOM     10  C   UNL     1       2.094  -0.826  23.537  0.00  0.00    +0.103 C 
ATOM     11  C   UNL     1      -0.931   0.583  25.142  0.00  0.00    +0.306 C 
ATOM     13  C   UNL     1       3.844   0.395  22.409  0.00  0.00    +0.105 C 
ENDROOT
BRANCH   3  12
ATOM     12  C   UNL     1      -1.990   2.716  26.029  0.00  0.00    +0.164 C 
BRANCH  12  14
ATOM      5  N   UNL     1      -3.808   1.386  25.119  0.00  0.00    -0.258 NA
ATOM     14  C   UNL     1      -3.436   2.571  25.654  0.00  0.00    +0.059 A 
ATOM     15  C   UNL     1      -4.302   3.632  25.866  0.00  0.00    +0.025 A 
ATOM     16  C   UNL     1      -5.636   3.465  25.509  0.00  0.00    +0.003 A 
ATOM     17  C   UNL     1      -5.111   1.262  24.784  0.00  0.00    +0.111 A 
ATOM     18  C   UNL     1      -6.056   2.260  24.957  0.00  0.00    +0.020 A 
ENDBRANCH  12  14
ENDBRANCH   3  12
TORSDOF 2
ENDMDL
MODEL 9
REMARK VINA RESULT:      -1.2      2.199      6.941
REMARK  Name = 75537071
REMARK  3 active torsions:
REMARK  status: ('A' for Active; 'I' for Inactive)
REMARK    1  A    between atoms: N_3  and  C_12
REMARK    2  A    between atoms: N_4  and  C_13
REMARK    3  A    between atoms: C_12  and  C_14
REMARK                            x       y       z     vdW  Elec       q    Type
REMARK                         _______ _______ _______ _____ _____    ______ ____
ROOT
ATOM      1  O   UNL     1      -1.975   2.175  25.654  0.00  0.00    -0.252 OA
ATOM      2  N   UNL     1      -0.354   0.798  24.655  0.00  0.00    -0.278 N 
ATOM      3  N   UNL     1      -2.474   0.062  24.729  0.00  0.00    -0.278 N 
ATOM      4  N   UNL     1       1.839   0.062  23.056  0.00  0.00    -0.302 NA
ATOM      6  C   UNL     1      -0.289  -0.549  24.129  0.00  0.00    +0.109 C 
ATOM      7  C   UNL     1      -1.756  -0.948  23.973  0.00  0.00    +0.133 C 
ATOM      8  C   UNL     1       0.526  -0.578  22.837  0.00  0.00    +0.108 C 
ATOM      9  C   UNL     1       0.864   1.573  24.772  0.00  0.00    +0.125 C 
ATOM     10  C   UNL     1       1.677   1.468  23.479  0.00  0.00    +0.103 C 
ATOM     11  C   UNL     1      -1.642   1.141  25.088  0.00  0.00    +0.306 C 
ATOM     13  C   UNL     1       2.651  -0.014  21.842  0.00  0.00    +0.105 C 
ENDROOT
BRANCH   3  12
ATOM     12  C   UNL     1      -3.905  -0.005  24.932  0.00  0.00    +0.164 C 
BRANCH  12  14
ATOM      5  N   UNL     1      -5.414   1.554  26.025  0.00  0.00    -0.258 NA
ATOM     14  C   UNL     1      -4.524   1.359  25.026  0.00  0.00    +0.059 A 
ATOM     15  C   UNL     1      -4.165   2.332  24.107  0.00  0.00    +0.025 A 
ATOM     16  C   UNL     1      -4.755   3.587  24.222  0.00  0.00    +0.003 A 
ATOM     17  C   UNL     1      -5.967   2.785  26.104  0.00  0.00    +0.111 A 
ATOM     18  C   UNL     1      -5.675   3.825  25.237  0.00  0.00    +0.020 A 
ENDBRANCH  12  14
ENDBRANCH   3  12
TORSDOF 2
ENDMDL
MODEL 10
REMARK VINA RESULT:      -1.1      2.347      7.023
REMARK  Name = 75537071
REMARK  3 active torsions:
REMARK  status: ('A' for Active; 'I' for Inactive)
REMARK    1  A    between atoms: N_3  and  C_12
REMARK    2  A    between atoms: N_4  and  C_13
REMARK    3  A    between atoms: C_12  and  C_14
REMARK                            x       y       z     vdW  Elec       q    Type
REMARK                         _______ _______ _______ _____ _____    ______ ____
ROOT
ATOM      1  O   UNL     1      -3.450  -1.460  26.371  0.00  0.00    -0.252 OA
ATOM      2  N   UNL     1      -1.971  -0.986  24.608  0.00  0.00    -0.278 N 
ATOM      3  N   UNL     1      -3.835   0.252  24.794  0.00  0.00    -0.278 N 
ATOM      4  N   UNL     1       0.464  -0.535  23.274  0.00  0.00    -0.302 NA
ATOM      6  C   UNL     1      -1.959  -0.134  23.438  0.00  0.00    +0.109 C 
ATOM      7  C   UNL     1      -3.098   0.850  23.695  0.00  0.00    +0.133 C 
ATOM      8  C   UNL     1      -0.583   0.507  23.260  0.00  0.00    +0.108 C 
ATOM      9  C   UNL     1      -0.903  -1.947  24.797  0.00  0.00    +0.125 C 
ATOM     10  C   UNL     1       0.452  -1.277  24.551  0.00  0.00    +0.103 C 
ATOM     11  C   UNL     1      -3.128  -0.817  25.380  0.00  0.00    +0.306 C 
ATOM     13  C   UNL     1       1.779   0.062  23.045  0.00  0.00    +0.105 C 
ENDROOT
BRANCH   3  12
ATOM     12  C   UNL     1      -5.072   0.818  25.286  0.00  0.00    +0.164 C 
BRANCH  12  14
ATOM      5  N   UNL     1      -3.733   2.806  25.678  0.00  0.00    -0.258 NA
ATOM     14  C   UNL     1      -4.972   2.302  25.481  0.00  0.00    +0.059 A 
ATOM     15  C   UNL     1      -6.126   3.070  25.453  0.00  0.00    +0.025 A 
ATOM     16  C   UNL     1      -6.000   4.443  25.636  0.00  0.00    +0.003 A 
ATOM     17  C   UNL     1      -3.650   4.144  25.853  0.00  0.00    +0.111 A 
ATOM     18  C   UNL     1      -4.742   4.998  25.841  0.00  0.00    +0.020 A 
ENDBRANCH  12  14
ENDBRANCH   3  12
TORSDOF 2
ENDMDL
