MODEL 1
REMARK VINA RESULT:       0.1      0.000      0.000
REMARK  Name = 40779648
REMARK  8 active torsions:
REMARK  status: ('A' for Active; 'I' for Inactive)
REMARK    1  A    between atoms: N_3  and  C_13
REMARK    2  A    between atoms: N_4  and  C_14
REMARK    3  A    between atoms: N_5  and  C_25
REMARK    4  A    between atoms: N_5  and  C_26
REMARK    5  A    between atoms: N_5  and  C_27
REMARK    6  A    between atoms: C_7  and  C_13
REMARK    7  A    between atoms: C_8  and  C_14
REMARK    8  A    between atoms: C_19  and  C_20
REMARK                            x       y       z     vdW  Elec       q    Type
REMARK                         _______ _______ _______ _____ _____    ______ ____
ROOT
ATOM      2  N   UNL     1      -5.002   2.593  26.481  0.00  0.00    -0.298 NA
ATOM      6  C   UNL     1      -5.529   1.940  24.019  0.00  0.00    -0.003 C 
ATOM      7  C   UNL     1      -4.669   0.856  24.706  0.00  0.00    +0.020 C 
ATOM      8  C   UNL     1      -4.634   3.709  25.567  0.00  0.00    +0.074 C 
ATOM      9  C   UNL     1      -4.796   3.292  24.089  0.00  0.00    +0.024 C 
ATOM     10  C   UNL     1      -4.266   1.361  26.110  0.00  0.00    +0.089 C 
ATOM     11  C   UNL     1      -6.821   2.077  24.848  0.00  0.00    +0.019 C 
ATOM     12  C   UNL     1      -6.453   2.332  26.320  0.00  0.00    +0.085 C 
ENDROOT
BRANCH   7  13
ATOM     13  C   UNL     1      -3.448   0.446  23.884  0.00  0.00    +0.089 C 
BRANCH  13   3
ATOM      3  N   UNL     1      -3.188  -0.980  24.017  0.00  0.00    -0.302 NA
ATOM     15  C   UNL     1      -2.871  -1.365  25.392  0.00  0.00    +0.084 C 
ATOM     16  C   UNL     1      -4.346  -1.795  23.651  0.00  0.00    +0.084 C 
ATOM     17  C   UNL     1      -3.028  -2.879  25.367  0.00  0.00    +0.017 C 
ATOM     18  C   UNL     1      -3.994  -3.161  24.220  0.00  0.00    +0.017 C 
ENDBRANCH  13   3
ENDBRANCH   7  13
BRANCH   8  14
ATOM     14  C   UNL     1      -3.234   4.260  25.852  0.00  0.00    +0.123 C 
BRANCH  14   4
ATOM      1  O   UNL     1      -1.043   2.808  27.005  0.00  0.00    -0.270 OA
ATOM      4  N   UNL     1      -2.226   3.497  25.136  0.00  0.00    -0.310 N 
ATOM     19  C   UNL     1      -1.208   2.832  25.789  0.00  0.00    +0.244 C 
ATOM     28  H   UNL     1      -2.266   3.531  24.122  0.00  0.00    +0.149 HD
BRANCH  19  20
ATOM     20  C   UNL     1      -0.242   2.119  24.912  0.00  0.00    +0.037 A 
ATOM     21  C   UNL     1       0.738   2.836  24.227  0.00  0.00    +0.015 A 
ATOM     22  C   UNL     1      -0.318   0.733  24.774  0.00  0.00    +0.015 A 
ATOM     23  C   UNL     1       1.644   2.167  23.403  0.00  0.00    +0.024 A 
ATOM     24  C   UNL     1       0.586   0.063  23.950  0.00  0.00    +0.024 A 
ATOM     25  C   UNL     1       1.568   0.780  23.264  0.00  0.00    +0.029 A 
BRANCH  25   5
ATOM      5  N   UNL     1       2.483   0.103  22.432  0.00  0.00    -0.336 N 
ATOM     26  C   UNL     1       2.010  -0.698  21.320  0.00  0.00    +0.129 C 
ATOM     27  C   UNL     1       3.909   0.205  22.673  0.00  0.00    +0.129 C 
ENDBRANCH  25   5
ENDBRANCH  19  20
ENDBRANCH  14   4
ENDBRANCH   8  14
TORSDOF 6
ENDMDL
MODEL 2
REMARK VINA RESULT:       0.3      1.973      3.174
REMARK  Name = 40779648
REMARK  8 active torsions:
REMARK  status: ('A' for Active; 'I' for Inactive)
REMARK    1  A    between atoms: N_3  and  C_13
REMARK    2  A    between atoms: N_4  and  C_14
REMARK    3  A    between atoms: N_5  and  C_25
REMARK    4  A    between atoms: N_5  and  C_26
REMARK    5  A    between atoms: N_5  and  C_27
REMARK    6  A    between atoms: C_7  and  C_13
REMARK    7  A    between atoms: C_8  and  C_14
REMARK    8  A    between atoms: C_19  and  C_20
REMARK                            x       y       z     vdW  Elec       q    Type
REMARK                         _______ _______ _______ _____ _____    ______ ____
ROOT
ATOM      2  N   UNL     1      -1.691   2.637  24.526  0.00  0.00    -0.298 NA
ATOM      6  C   UNL     1      -4.256   3.063  24.604  0.00  0.00    -0.003 C 
ATOM      7  C   UNL     1      -3.853   1.938  25.584  0.00  0.00    +0.020 C 
ATOM      8  C   UNL     1      -2.258   2.589  23.151  0.00  0.00    +0.074 C 
ATOM      9  C   UNL     1      -3.799   2.690  23.182  0.00  0.00    +0.024 C 
ATOM     10  C   UNL     1      -2.351   1.630  25.390  0.00  0.00    +0.089 C 
ATOM     11  C   UNL     1      -3.469   4.321  25.021  0.00  0.00    +0.019 C 
ATOM     12  C   UNL     1      -1.970   3.982  25.088  0.00  0.00    +0.085 C 
ENDROOT
BRANCH   7  13
ATOM     13  C   UNL     1      -4.709   0.681  25.440  0.00  0.00    +0.089 C 
BRANCH  13   3
ATOM      3  N   UNL     1      -3.903  -0.449  25.002  0.00  0.00    -0.302 NA
ATOM     15  C   UNL     1      -3.599  -1.375  26.094  0.00  0.00    +0.084 C 
ATOM     16  C   UNL     1      -4.581  -1.261  23.993  0.00  0.00    +0.084 C 
ATOM     17  C   UNL     1      -3.118  -2.619  25.361  0.00  0.00    +0.017 C 
ATOM     18  C   UNL     1      -3.762  -2.543  23.980  0.00  0.00    +0.017 C 
ENDBRANCH  13   3
ENDBRANCH   7  13
BRANCH   8  14
ATOM     14  C   UNL     1      -1.784   1.363  22.367  0.00  0.00    +0.123 C 
BRANCH  14   4
ATOM      1  O   UNL     1      -0.415  -0.851  23.577  0.00  0.00    -0.270 OA
ATOM      4  N   UNL     1      -0.346   1.195  22.493  0.00  0.00    -0.310 N 
ATOM     19  C   UNL     1       0.214   0.087  23.095  0.00  0.00    +0.244 C 
ATOM     28  H   UNL     1       0.230   1.967  22.174  0.00  0.00    +0.149 HD
BRANCH  19  20
ATOM     20  C   UNL     1       1.699   0.077  23.167  0.00  0.00    +0.037 A 
ATOM     21  C   UNL     1       2.417   1.243  22.903  0.00  0.00    +0.015 A 
ATOM     22  C   UNL     1       2.373  -1.099  23.497  0.00  0.00    +0.015 A 
ATOM     23  C   UNL     1       3.811   1.234  22.970  0.00  0.00    +0.024 A 
ATOM     24  C   UNL     1       3.766  -1.108  23.562  0.00  0.00    +0.024 A 
ATOM     25  C   UNL     1       4.485   0.058  23.298  0.00  0.00    +0.029 A 
BRANCH  25   5
ATOM      5  N   UNL     1       5.894   0.048  23.366  0.00  0.00    -0.336 N 
ATOM     26  C   UNL     1       6.654  -0.977  22.679  0.00  0.00    +0.129 C 
ATOM     27  C   UNL     1       6.600   1.066  24.118  0.00  0.00    +0.129 C 
ENDBRANCH  25   5
ENDBRANCH  19  20
ENDBRANCH  14   4
ENDBRANCH   8  14
TORSDOF 6
ENDMDL
MODEL 3
REMARK VINA RESULT:       1.3      1.648      2.458
REMARK  Name = 40779648
REMARK  8 active torsions:
REMARK  status: ('A' for Active; 'I' for Inactive)
REMARK    1  A    between atoms: N_3  and  C_13
REMARK    2  A    between atoms: N_4  and  C_14
REMARK    3  A    between atoms: N_5  and  C_25
REMARK    4  A    between atoms: N_5  and  C_26
REMARK    5  A    between atoms: N_5  and  C_27
REMARK    6  A    between atoms: C_7  and  C_13
REMARK    7  A    between atoms: C_8  and  C_14
REMARK    8  A    between atoms: C_19  and  C_20
REMARK                            x       y       z     vdW  Elec       q    Type
REMARK                         _______ _______ _______ _____ _____    ______ ____
ROOT
ATOM      2  N   UNL     1      -2.756   3.216  24.966  0.00  0.00    -0.298 NA
ATOM      6  C   UNL     1      -5.264   2.868  25.562  0.00  0.00    -0.003 C 
ATOM      7  C   UNL     1      -4.448   1.586  25.840  0.00  0.00    +0.020 C 
ATOM      8  C   UNL     1      -3.613   3.608  23.814  0.00  0.00    +0.074 C 
ATOM      9  C   UNL     1      -5.096   3.271  24.086  0.00  0.00    +0.024 C 
ATOM     10  C   UNL     1      -3.003   1.802  25.334  0.00  0.00    +0.089 C 
ATOM     11  C   UNL     1      -4.639   3.989  26.415  0.00  0.00    +0.019 C 
ATOM     12  C   UNL     1      -3.130   4.067  26.123  0.00  0.00    +0.085 C 
ENDROOT
BRANCH   7  13
ATOM     13  C   UNL     1      -5.074   0.331  25.235  0.00  0.00    +0.089 C 
BRANCH  13   3
ATOM      3  N   UNL     1      -4.049  -0.631  24.858  0.00  0.00    -0.302 NA
ATOM     15  C   UNL     1      -3.473  -1.315  26.015  0.00  0.00    +0.084 C 
ATOM     16  C   UNL     1      -4.573  -1.699  24.007  0.00  0.00    +0.084 C 
ATOM     17  C   UNL     1      -2.753  -2.500  25.387  0.00  0.00    +0.017 C 
ATOM     18  C   UNL     1      -3.474  -2.751  24.066  0.00  0.00    +0.017 C 
ENDBRANCH  13   3
ENDBRANCH   7  13
BRANCH   8  14
ATOM     14  C   UNL     1      -3.126   3.006  22.494  0.00  0.00    +0.123 C 
BRANCH  14   4
ATOM      1  O   UNL     1      -2.334   0.273  22.873  0.00  0.00    -0.270 OA
ATOM      4  N   UNL     1      -1.768   2.506  22.626  0.00  0.00    -0.310 N 
ATOM     19  C   UNL     1      -1.493   1.165  22.806  0.00  0.00    +0.244 C 
ATOM     28  H   UNL     1      -1.028   3.201  22.646  0.00  0.00    +0.149 HD
BRANCH  19  20
ATOM     20  C   UNL     1      -0.055   0.818  22.949  0.00  0.00    +0.037 A 
ATOM     21  C   UNL     1       0.469  -0.278  22.265  0.00  0.00    +0.015 A 
ATOM     22  C   UNL     1       0.769   1.588  23.770  0.00  0.00    +0.015 A 
ATOM     23  C   UNL     1       1.819  -0.605  22.400  0.00  0.00    +0.024 A 
ATOM     24  C   UNL     1       2.118   1.261  23.906  0.00  0.00    +0.024 A 
ATOM     25  C   UNL     1       2.643   0.165  23.222  0.00  0.00    +0.029 A 
BRANCH  25   5
ATOM      5  N   UNL     1       4.007  -0.164  23.359  0.00  0.00    -0.336 N 
ATOM     26  C   UNL     1       4.404  -1.492  23.785  0.00  0.00    +0.129 C 
ATOM     27  C   UNL     1       5.033   0.819  23.070  0.00  0.00    +0.129 C 
ENDBRANCH  25   5
ENDBRANCH  19  20
ENDBRANCH  14   4
ENDBRANCH   8  14
TORSDOF 6
ENDMDL
MODEL 4
REMARK VINA RESULT:       1.3      2.162      4.712
REMARK  Name = 40779648
REMARK  8 active torsions:
REMARK  status: ('A' for Active; 'I' for Inactive)
REMARK    1  A    between atoms: N_3  and  C_13
REMARK    2  A    between atoms: N_4  and  C_14
REMARK    3  A    between atoms: N_5  and  C_25
REMARK    4  A    between atoms: N_5  and  C_26
REMARK    5  A    between atoms: N_5  and  C_27
REMARK    6  A    between atoms: C_7  and  C_13
REMARK    7  A    between atoms: C_8  and  C_14
REMARK    8  A    between atoms: C_19  and  C_20
REMARK                            x       y       z     vdW  Elec       q    Type
REMARK                         _______ _______ _______ _____ _____    ______ ____
ROOT
ATOM      2  N   UNL     1      -2.304  -1.132  23.764  0.00  0.00    -0.298 NA
ATOM      6  C   UNL     1      -3.750  -1.023  25.924  0.00  0.00    -0.003 C 
ATOM      7  C   UNL     1      -4.532  -0.478  24.708  0.00  0.00    +0.020 C 
ATOM      8  C   UNL     1      -1.554  -0.437  24.846  0.00  0.00    +0.074 C 
ATOM      9  C   UNL     1      -2.444  -0.225  26.090  0.00  0.00    +0.024 C 
ATOM     10  C   UNL     1      -3.581  -0.431  23.490  0.00  0.00    +0.089 C 
ATOM     11  C   UNL     1      -3.358  -2.475  25.588  0.00  0.00    +0.019 C 
ATOM     12  C   UNL     1      -2.621  -2.502  24.238  0.00  0.00    +0.085 C 
ENDROOT
BRANCH   7  13
ATOM     13  C   UNL     1      -5.179   0.881  24.968  0.00  0.00    +0.089 C 
BRANCH  13   3
ATOM      3  N   UNL     1      -4.174   1.933  25.025  0.00  0.00    -0.302 NA
ATOM     15  C   UNL     1      -4.053   2.658  23.760  0.00  0.00    +0.084 C 
ATOM     16  C   UNL     1      -4.492   2.955  26.021  0.00  0.00    +0.084 C 
ATOM     17  C   UNL     1      -3.277   3.906  24.156  0.00  0.00    +0.017 C 
ATOM     18  C   UNL     1      -3.563   4.100  25.643  0.00  0.00    +0.017 C 
ENDBRANCH  13   3
ENDBRANCH   7  13
BRANCH   8  14
ATOM     14  C   UNL     1      -0.924   0.875  24.368  0.00  0.00    +0.123 C 
BRANCH  14   4
ATOM      1  O   UNL     1       0.479  -0.333  22.175  0.00  0.00    -0.270 OA
ATOM      4  N   UNL     1       0.516   0.734  24.231  0.00  0.00    -0.310 N 
ATOM     19  C   UNL     1       1.093   0.134  23.130  0.00  0.00    +0.244 C 
ATOM     28  H   UNL     1       1.079   1.039  25.018  0.00  0.00    +0.149 HD
BRANCH  19  20
ATOM     20  C   UNL     1       2.577   0.044  23.152  0.00  0.00    +0.037 A 
ATOM     21  C   UNL     1       3.347   1.134  22.748  0.00  0.00    +0.015 A 
ATOM     22  C   UNL     1       3.198  -1.131  23.575  0.00  0.00    +0.015 A 
ATOM     23  C   UNL     1       4.739   1.050  22.767  0.00  0.00    +0.024 A 
ATOM     24  C   UNL     1       4.590  -1.216  23.593  0.00  0.00    +0.024 A 
ATOM     25  C   UNL     1       5.361  -0.125  23.189  0.00  0.00    +0.029 A 
BRANCH  25   5
ATOM      5  N   UNL     1       6.768  -0.212  23.209  0.00  0.00    -0.336 N 
ATOM     26  C   UNL     1       7.553   0.758  23.946  0.00  0.00    +0.129 C 
ATOM     27  C   UNL     1       7.449  -1.276  22.498  0.00  0.00    +0.129 C 
ENDBRANCH  25   5
ENDBRANCH  19  20
ENDBRANCH  14   4
ENDBRANCH   8  14
TORSDOF 6
ENDMDL
MODEL 5
REMARK VINA RESULT:       1.9      1.801      3.891
REMARK  Name = 40779648
REMARK  8 active torsions:
REMARK  status: ('A' for Active; 'I' for Inactive)
REMARK    1  A    between atoms: N_3  and  C_13
REMARK    2  A    between atoms: N_4  and  C_14
REMARK    3  A    between atoms: N_5  and  C_25
REMARK    4  A    between atoms: N_5  and  C_26
REMARK    5  A    between atoms: N_5  and  C_27
REMARK    6  A    between atoms: C_7  and  C_13
REMARK    7  A    between atoms: C_8  and  C_14
REMARK    8  A    between atoms: C_19  and  C_20
REMARK                            x       y       z     vdW  Elec       q    Type
REMARK                         _______ _______ _______ _____ _____    ______ ____
ROOT
ATOM      2  N   UNL     1      -5.816   1.598  24.397  0.00  0.00    -0.298 NA
ATOM      6  C   UNL     1      -4.013   2.737  25.885  0.00  0.00    -0.003 C 
ATOM      7  C   UNL     1      -3.990   3.313  24.451  0.00  0.00    +0.020 C 
ATOM      8  C   UNL     1      -4.973   0.564  25.057  0.00  0.00    +0.074 C 
ATOM      9  C   UNL     1      -3.802   1.213  25.827  0.00  0.00    +0.024 C 
ATOM     10  C   UNL     1      -4.975   2.503  23.578  0.00  0.00    +0.089 C 
ATOM     11  C   UNL     1      -5.430   2.981  26.441  0.00  0.00    +0.019 C 
ATOM     12  C   UNL     1      -6.465   2.404  25.460  0.00  0.00    +0.085 C 
ENDROOT
BRANCH   7  13
ATOM     13  C   UNL     1      -2.591   3.345  23.838  0.00  0.00    +0.089 C 
BRANCH  13   3
ATOM      3  N   UNL     1      -1.627   2.689  24.710  0.00  0.00    -0.302 NA
ATOM     15  C   UNL     1      -0.327   2.503  24.065  0.00  0.00    +0.084 C 
ATOM     16  C   UNL     1      -1.345   3.467  25.915  0.00  0.00    +0.084 C 
ATOM     17  C   UNL     1       0.592   2.186  25.236  0.00  0.00    +0.017 C 
ATOM     18  C   UNL     1      -0.079   2.817  26.453  0.00  0.00    +0.017 C 
ENDBRANCH  13   3
ENDBRANCH   7  13
BRANCH   8  14
ATOM     14  C   UNL     1      -4.485  -0.505  24.076  0.00  0.00    +0.123 C 
BRANCH  14   4
ATOM      1  O   UNL     1      -2.525  -2.544  24.562  0.00  0.00    -0.270 OA
ATOM      4  N   UNL     1      -3.051  -0.397  23.868  0.00  0.00    -0.310 N 
ATOM     19  C   UNL     1      -2.190  -1.443  24.135  0.00  0.00    +0.244 C 
ATOM     28  H   UNL     1      -2.701   0.510  23.579  0.00  0.00    +0.149 HD
BRANCH  19  20
ATOM     20  C   UNL     1      -0.750  -1.166  23.894  0.00  0.00    +0.037 A 
ATOM     21  C   UNL     1       0.209  -1.626  24.796  0.00  0.00    +0.015 A 
ATOM     22  C   UNL     1      -0.358  -0.443  22.767  0.00  0.00    +0.015 A 
ATOM     23  C   UNL     1       1.561  -1.365  24.571  0.00  0.00    +0.024 A 
ATOM     24  C   UNL     1       0.993  -0.181  22.542  0.00  0.00    +0.024 A 
ATOM     25  C   UNL     1       1.953  -0.641  23.445  0.00  0.00    +0.029 A 
BRANCH  25   5
ATOM      5  N   UNL     1       3.319  -0.376  23.216  0.00  0.00    -0.336 N 
ATOM     26  C   UNL     1       3.726   0.812  22.494  0.00  0.00    +0.129 C 
ATOM     27  C   UNL     1       4.335  -1.287  23.707  0.00  0.00    +0.129 C 
ENDBRANCH  25   5
ENDBRANCH  19  20
ENDBRANCH  14   4
ENDBRANCH   8  14
TORSDOF 6
ENDMDL
MODEL 6
REMARK VINA RESULT:       2.7      1.725      3.796
REMARK  Name = 40779648
REMARK  8 active torsions:
REMARK  status: ('A' for Active; 'I' for Inactive)
REMARK    1  A    between atoms: N_3  and  C_13
REMARK    2  A    between atoms: N_4  and  C_14
REMARK    3  A    between atoms: N_5  and  C_25
REMARK    4  A    between atoms: N_5  and  C_26
REMARK    5  A    between atoms: N_5  and  C_27
REMARK    6  A    between atoms: C_7  and  C_13
REMARK    7  A    between atoms: C_8  and  C_14
REMARK    8  A    between atoms: C_19  and  C_20
REMARK                            x       y       z     vdW  Elec       q    Type
REMARK                         _______ _______ _______ _____ _____    ______ ____
ROOT
ATOM      2  N   UNL     1      -5.479   2.655  24.321  0.00  0.00    -0.298 NA
ATOM      6  C   UNL     1      -5.185   3.914  26.578  0.00  0.00    -0.003 C 
ATOM      7  C   UNL     1      -3.865   3.905  25.775  0.00  0.00    +0.020 C 
ATOM      8  C   UNL     1      -5.953   1.803  25.446  0.00  0.00    +0.074 C 
ATOM      9  C   UNL     1      -5.653   2.465  26.808  0.00  0.00    +0.024 C 
ATOM     10  C   UNL     1      -4.057   3.024  24.519  0.00  0.00    +0.089 C 
ATOM     11  C   UNL     1      -6.243   4.599  25.691  0.00  0.00    +0.019 C 
ATOM     12  C   UNL     1      -6.285   3.900  24.321  0.00  0.00    +0.085 C 
ENDROOT
BRANCH   7  13
ATOM     13  C   UNL     1      -2.662   3.453  26.600  0.00  0.00    +0.089 C 
BRANCH  13   3
ATOM      3  N   UNL     1      -1.562   3.047  25.737  0.00  0.00    -0.302 NA
ATOM     15  C   UNL     1      -1.015   4.165  24.968  0.00  0.00    +0.084 C 
ATOM     16  C   UNL     1      -0.429   2.512  26.491  0.00  0.00    +0.084 C 
ATOM     17  C   UNL     1       0.315   3.616  24.469  0.00  0.00    +0.017 C 
ATOM     18  C   UNL     1       0.698   2.528  25.468  0.00  0.00    +0.017 C 
ENDBRANCH  13   3
ENDBRANCH   7  13
BRANCH   8  14
ATOM     14  C   UNL     1      -5.400   0.378  25.372  0.00  0.00    +0.123 C 
BRANCH  14   4
ATOM      1  O   UNL     1      -3.175  -1.259  26.153  0.00  0.00    -0.270 OA
ATOM      4  N   UNL     1      -4.075   0.370  24.773  0.00  0.00    -0.310 N 
ATOM     19  C   UNL     1      -3.070  -0.461  25.226  0.00  0.00    +0.244 C 
ATOM     28  H   UNL     1      -3.903   1.055  24.045  0.00  0.00    +0.149 HD
BRANCH  19  20
ATOM     20  C   UNL     1      -1.766  -0.331  24.525  0.00  0.00    +0.037 A 
ATOM     21  C   UNL     1      -1.614   0.607  23.503  0.00  0.00    +0.015 A 
ATOM     22  C   UNL     1      -0.695  -1.148  24.888  0.00  0.00    +0.015 A 
ATOM     23  C   UNL     1      -0.390   0.728  22.844  0.00  0.00    +0.024 A 
ATOM     24  C   UNL     1       0.528  -1.028  24.228  0.00  0.00    +0.024 A 
ATOM     25  C   UNL     1       0.680  -0.090  23.206  0.00  0.00    +0.029 A 
BRANCH  25   5
ATOM      5  N   UNL     1       1.918   0.032  22.541  0.00  0.00    -0.336 N 
ATOM     26  C   UNL     1       2.099  -0.532  21.218  0.00  0.00    +0.129 C 
ATOM     27  C   UNL     1       3.023   0.729  23.169  0.00  0.00    +0.129 C 
ENDBRANCH  25   5
ENDBRANCH  19  20
ENDBRANCH  14   4
ENDBRANCH   8  14
TORSDOF 6
ENDMDL
MODEL 7
REMARK VINA RESULT:       3.0      1.917      4.947
REMARK  Name = 40779648
REMARK  8 active torsions:
REMARK  status: ('A' for Active; 'I' for Inactive)
REMARK    1  A    between atoms: N_3  and  C_13
REMARK    2  A    between atoms: N_4  and  C_14
REMARK    3  A    between atoms: N_5  and  C_25
REMARK    4  A    between atoms: N_5  and  C_26
REMARK    5  A    between atoms: N_5  and  C_27
REMARK    6  A    between atoms: C_7  and  C_13
REMARK    7  A    between atoms: C_8  and  C_14
REMARK    8  A    between atoms: C_19  and  C_20
REMARK                            x       y       z     vdW  Elec       q    Type
REMARK                         _______ _______ _______ _____ _____    ______ ____
ROOT
ATOM      2  N   UNL     1      -3.539   4.738  23.958  0.00  0.00    -0.298 NA
ATOM      6  C   UNL     1      -1.708   4.675  25.804  0.00  0.00    -0.003 C 
ATOM      7  C   UNL     1      -1.475   3.563  24.757  0.00  0.00    +0.020 C 
ATOM      8  C   UNL     1      -4.173   4.705  25.304  0.00  0.00    +0.074 C 
ATOM      9  C   UNL     1      -3.114   4.516  26.412  0.00  0.00    +0.024 C 
ATOM     10  C   UNL     1      -2.665   3.556  23.771  0.00  0.00    +0.089 C 
ATOM     11  C   UNL     1      -1.688   6.016  25.045  0.00  0.00    +0.019 C 
ATOM     12  C   UNL     1      -2.693   5.955  23.882  0.00  0.00    +0.085 C 
ENDROOT
BRANCH   7  13
ATOM     13  C   UNL     1      -1.251   2.186  25.379  0.00  0.00    +0.089 C 
BRANCH  13   3
ATOM      3  N   UNL     1      -0.788   1.233  24.381  0.00  0.00    -0.302 NA
ATOM     15  C   UNL     1       0.530   1.578  23.850  0.00  0.00    +0.084 C 
ATOM     16  C   UNL     1      -0.639  -0.116  24.925  0.00  0.00    +0.084 C 
ATOM     17  C   UNL     1       0.966   0.293  23.160  0.00  0.00    +0.017 C 
ATOM     18  C   UNL     1       0.195  -0.820  23.864  0.00  0.00    +0.017 C 
ENDBRANCH  13   3
ENDBRANCH   7  13
BRANCH   8  14
ATOM     14  C   UNL     1      -5.288   3.660  25.398  0.00  0.00    +0.123 C 
BRANCH  14   4
ATOM      1  O   UNL     1      -5.907   1.160  26.666  0.00  0.00    -0.270 OA
ATOM      4  N   UNL     1      -4.795   2.347  25.015  0.00  0.00    -0.310 N 
ATOM     19  C   UNL     1      -5.156   1.201  25.695  0.00  0.00    +0.244 C 
ATOM     28  H   UNL     1      -4.117   2.319  24.261  0.00  0.00    +0.149 HD
BRANCH  19  20
ATOM     20  C   UNL     1      -4.548  -0.060  25.195  0.00  0.00    +0.037 A 
ATOM     21  C   UNL     1      -3.926  -0.935  26.086  0.00  0.00    +0.015 A 
ATOM     22  C   UNL     1      -4.597  -0.366  23.835  0.00  0.00    +0.015 A 
ATOM     23  C   UNL     1      -3.354  -2.118  25.616  0.00  0.00    +0.024 A 
ATOM     24  C   UNL     1      -4.024  -1.548  23.365  0.00  0.00    +0.024 A 
ATOM     25  C   UNL     1      -3.402  -2.423  24.256  0.00  0.00    +0.029 A 
BRANCH  25   5
ATOM      5  N   UNL     1      -2.824  -3.619  23.780  0.00  0.00    -0.336 N 
ATOM     26  C   UNL     1      -3.662  -4.711  23.328  0.00  0.00    +0.129 C 
ATOM     27  C   UNL     1      -1.382  -3.768  23.731  0.00  0.00    +0.129 C 
ENDBRANCH  25   5
ENDBRANCH  19  20
ENDBRANCH  14   4
ENDBRANCH   8  14
TORSDOF 6
ENDMDL
