MODEL 1
REMARK VINA RESULT:       1.5      0.000      0.000
REMARK  Name = 51138087
REMARK  10 active torsions:
REMARK  status: ('A' for Active; 'I' for Inactive)
REMARK    1  A    between atoms: N_3  and  C_10
REMARK    2  A    between atoms: N_4  and  C_24
REMARK    3  A    between atoms: N_5  and  C_30
REMARK    4  A    between atoms: C_7  and  C_10
REMARK    5  A    between atoms: C_11  and  C_17
REMARK    6  A    between atoms: C_12  and  C_18
REMARK    7  A    between atoms: C_17  and  C_20
REMARK    8  A    between atoms: C_20  and  C_26
REMARK    9  A    between atoms: C_20  and  C_27
REMARK   10  A    between atoms: C_24  and  C_28
REMARK                            x       y       z     vdW  Elec       q    Type
REMARK                         _______ _______ _______ _____ _____    ______ ____
ROOT
ATOM      2  N   UNL     1      -2.666   1.146  25.248  0.00  0.00    -0.299 NA
ATOM      4  N   UNL     1       1.782   0.191  23.054  0.00  0.00    -0.339 N 
ATOM     11  C   UNL     1      -2.159  -0.074  25.891  0.00  0.00    +0.085 C 
ATOM     12  C   UNL     1      -1.770   2.290  25.321  0.00  0.00    +0.145 C 
ATOM     13  C   UNL     1      -0.940   2.435  24.046  0.00  0.00    +0.065 C 
ATOM     14  C   UNL     1      -0.896  -0.681  25.271  0.00  0.00    -0.021 A 
ATOM     15  C   UNL     1      -0.012  -0.006  24.381  0.00  0.00    +0.008 A 
ATOM     16  C   UNL     1       0.024   1.319  23.823  0.00  0.00    -0.020 A 
ATOM     19  C   UNL     1       1.119  -0.671  23.895  0.00  0.00    +0.050 A 
ATOM     21  C   UNL     1       1.136   1.391  23.007  0.00  0.00    +0.091 A 
ATOM     22  C   UNL     1      -0.513  -1.991  25.658  0.00  0.00    +0.006 A 
ATOM     23  C   UNL     1       1.454  -1.979  24.252  0.00  0.00    +0.026 A 
ATOM     25  C   UNL     1       0.622  -2.626  25.156  0.00  0.00    +0.002 A 
ATOM     32  H   UNL     1      -2.948   0.959  24.286  0.00  0.00    +0.123 HD
ENDROOT
BRANCH  12  18
ATOM      1  O   UNL     1      -2.223   4.596  25.733  0.00  0.00    -0.274 OA
ATOM      3  N   UNL     1      -3.999   3.163  25.273  0.00  0.00    -0.314 N 
ATOM     18  C   UNL     1      -2.665   3.483  25.461  0.00  0.00    +0.230 C 
ATOM     33  H   UNL     1      -4.253   2.210  25.024  0.00  0.00    +0.149 HD
BRANCH   3  10
ATOM     10  C   UNL     1      -5.066   4.130  25.377  0.00  0.00    +0.107 C 
BRANCH  10   7
ATOM      7  C   UNL     1      -6.371   3.465  25.656  0.00  0.00    +0.006 C 
ATOM      8  C   UNL     1      -6.686   2.159  24.987  0.00  0.00    +0.005 C 
ATOM      9  C   UNL     1      -6.391   2.197  26.457  0.00  0.00    +0.005 C 
ENDBRANCH  10   7
ENDBRANCH   3  10
ENDBRANCH  12  18
BRANCH  11  17
ATOM     17  C   UNL     1      -3.350  -1.047  25.876  0.00  0.00    +0.026 C 
BRANCH  17  20
ATOM     20  C   UNL     1      -3.517  -1.770  24.535  0.00  0.00    -0.015 C 
ATOM     26  C   UNL     1      -4.765  -1.238  23.826  0.00  0.00    +0.007 C 
ATOM     27  C   UNL     1      -3.620  -3.288  24.693  0.00  0.00    +0.007 C 
ENDBRANCH  17  20
ENDBRANCH  11  17
BRANCH   4  24
ATOM     24  C   UNL     1       2.999  -0.106  22.330  0.00  0.00    +0.196 C 
BRANCH  24  28
ATOM      5  N   UNL     1       4.895  -0.916  23.777  0.00  0.00    -0.336 N 
ATOM      6  N   UNL     1       4.849   1.263  23.348  0.00  0.00    -0.239 NA
ATOM     28  C   UNL     1       4.249   0.111  23.147  0.00  0.00    +0.129 A 
ATOM     29  C   UNL     1       5.977  -0.385  24.421  0.00  0.00    +0.106 A 
ATOM     30  C   UNL     1       4.518  -2.310  23.773  0.00  0.00    +0.150 C 
ATOM     31  C   UNL     1       5.927   0.961  24.142  0.00  0.00    +0.130 A 
ENDBRANCH  24  28
ENDBRANCH   4  24
TORSDOF 7
ENDMDL
MODEL 2
REMARK VINA RESULT:       3.0      2.161      7.747
REMARK  Name = 51138087
REMARK  10 active torsions:
REMARK  status: ('A' for Active; 'I' for Inactive)
REMARK    1  A    between atoms: N_3  and  C_10
REMARK    2  A    between atoms: N_4  and  C_24
REMARK    3  A    between atoms: N_5  and  C_30
REMARK    4  A    between atoms: C_7  and  C_10
REMARK    5  A    between atoms: C_11  and  C_17
REMARK    6  A    between atoms: C_12  and  C_18
REMARK    7  A    between atoms: C_17  and  C_20
REMARK    8  A    between atoms: C_20  and  C_26
REMARK    9  A    between atoms: C_20  and  C_27
REMARK   10  A    between atoms: C_24  and  C_28
REMARK                            x       y       z     vdW  Elec       q    Type
REMARK                         _______ _______ _______ _____ _____    ______ ____
ROOT
ATOM      2  N   UNL     1       0.315  -1.015  23.789  0.00  0.00    -0.299 NA
ATOM      4  N   UNL     1      -1.845   3.295  25.291  0.00  0.00    -0.339 N 
ATOM     11  C   UNL     1      -1.125  -1.188  23.552  0.00  0.00    +0.085 C 
ATOM     12  C   UNL     1       0.905   0.143  23.134  0.00  0.00    +0.145 C 
ATOM     13  C   UNL     1       1.005   1.334  24.085  0.00  0.00    +0.065 C 
ATOM     14  C   UNL     1      -2.030  -0.079  24.098  0.00  0.00    -0.021 A 
ATOM     15  C   UNL     1      -1.592   1.217  24.495  0.00  0.00    +0.008 A 
ATOM     16  C   UNL     1      -0.316   1.879  24.513  0.00  0.00    -0.020 A 
ATOM     19  C   UNL     1      -2.527   2.146  24.965  0.00  0.00    +0.050 A 
ATOM     21  C   UNL     1      -0.517   3.147  25.019  0.00  0.00    +0.091 A 
ATOM     22  C   UNL     1      -3.429  -0.310  24.151  0.00  0.00    +0.006 A 
ATOM     23  C   UNL     1      -3.895   1.883  25.054  0.00  0.00    +0.026 A 
ATOM     25  C   UNL     1      -4.334   0.638  24.624  0.00  0.00    +0.002 A 
ATOM     32  H   UNL     1       0.522  -1.020  24.787  0.00  0.00    +0.123 HD
ENDROOT
BRANCH  12  18
ATOM      1  O   UNL     1       2.761  -0.012  21.643  0.00  0.00    -0.274 OA
ATOM      3  N   UNL     1       2.907  -1.025  23.734  0.00  0.00    -0.314 N 
ATOM     18  C   UNL     1       2.285  -0.288  22.741  0.00  0.00    +0.230 C 
ATOM     33  H   UNL     1       2.430  -1.173  24.620  0.00  0.00    +0.149 HD
BRANCH   3  10
ATOM     10  C   UNL     1       4.235  -1.577  23.594  0.00  0.00    +0.107 C 
BRANCH  10   7
ATOM      7  C   UNL     1       5.262  -0.661  24.169  0.00  0.00    +0.006 C 
ATOM      8  C   UNL     1       6.386  -0.182  23.298  0.00  0.00    +0.005 C 
ATOM      9  C   UNL     1       5.305   0.769  23.718  0.00  0.00    +0.005 C 
ENDBRANCH  10   7
ENDBRANCH   3  10
ENDBRANCH  12  18
BRANCH  11  17
ATOM     17  C   UNL     1      -1.455  -2.568  24.147  0.00  0.00    +0.026 C 
BRANCH  17  20
ATOM     20  C   UNL     1      -2.917  -2.695  24.590  0.00  0.00    -0.015 C 
ATOM     26  C   UNL     1      -2.965  -2.979  26.093  0.00  0.00    +0.007 C 
ATOM     27  C   UNL     1      -3.669  -3.789  23.832  0.00  0.00    +0.007 C 
ENDBRANCH  17  20
ENDBRANCH  11  17
BRANCH   4  24
ATOM     24  C   UNL     1      -2.436   4.502  25.828  0.00  0.00    +0.196 C 
BRANCH  24  28
ATOM      5  N   UNL     1      -4.628   4.877  24.646  0.00  0.00    -0.336 N 
ATOM      6  N   UNL     1      -4.755   4.173  26.748  0.00  0.00    -0.239 NA
ATOM     28  C   UNL     1      -3.944   4.508  25.770  0.00  0.00    +0.129 A 
ATOM     29  C   UNL     1      -5.961   4.772  24.926  0.00  0.00    +0.106 A 
ATOM     30  C   UNL     1      -4.062   5.304  23.388  0.00  0.00    +0.150 C 
ATOM     31  C   UNL     1      -6.014   4.335  26.228  0.00  0.00    +0.130 A 
ENDBRANCH  24  28
ENDBRANCH   4  24
TORSDOF 7
ENDMDL
MODEL 3
REMARK VINA RESULT:       4.3      1.182      2.137
REMARK  Name = 51138087
REMARK  10 active torsions:
REMARK  status: ('A' for Active; 'I' for Inactive)
REMARK    1  A    between atoms: N_3  and  C_10
REMARK    2  A    between atoms: N_4  and  C_24
REMARK    3  A    between atoms: N_5  and  C_30
REMARK    4  A    between atoms: C_7  and  C_10
REMARK    5  A    between atoms: C_11  and  C_17
REMARK    6  A    between atoms: C_12  and  C_18
REMARK    7  A    between atoms: C_17  and  C_20
REMARK    8  A    between atoms: C_20  and  C_26
REMARK    9  A    between atoms: C_20  and  C_27
REMARK   10  A    between atoms: C_24  and  C_28
REMARK                            x       y       z     vdW  Elec       q    Type
REMARK                         _______ _______ _______ _____ _____    ______ ____
ROOT
ATOM      2  N   UNL     1      -2.938   1.999  25.044  0.00  0.00    -0.299 NA
ATOM      4  N   UNL     1       1.168  -0.174  23.066  0.00  0.00    -0.339 N 
ATOM     11  C   UNL     1      -2.962   0.606  25.510  0.00  0.00    +0.085 C 
ATOM     12  C   UNL     1      -1.726   2.731  25.376  0.00  0.00    +0.145 C 
ATOM     13  C   UNL     1      -0.738   2.738  24.210  0.00  0.00    +0.065 C 
ATOM     14  C   UNL     1      -1.910  -0.322  24.895  0.00  0.00    -0.021 A 
ATOM     15  C   UNL     1      -0.742   0.106  24.201  0.00  0.00    +0.008 A 
ATOM     16  C   UNL     1      -0.188   1.392  23.877  0.00  0.00    -0.020 A 
ATOM     19  C   UNL     1       0.150  -0.848  23.698  0.00  0.00    +0.050 A 
ATOM     21  C   UNL     1       0.978   1.172  23.172  0.00  0.00    +0.091 A 
ATOM     22  C   UNL     1      -2.046  -1.722  25.085  0.00  0.00    +0.006 A 
ATOM     23  C   UNL     1      -0.027  -2.224  23.854  0.00  0.00    +0.026 A 
ATOM     25  C   UNL     1      -1.138  -2.646  24.571  0.00  0.00    +0.002 A 
ATOM     32  H   UNL     1      -3.140   2.052  24.046  0.00  0.00    +0.123 HD
ENDROOT
BRANCH  12  18
ATOM      1  O   UNL     1      -1.453   5.102  25.417  0.00  0.00    -0.274 OA
ATOM      3  N   UNL     1      -3.449   4.183  26.186  0.00  0.00    -0.314 N 
ATOM     18  C   UNL     1      -2.175   4.135  25.647  0.00  0.00    +0.230 C 
ATOM     33  H   UNL     1      -3.972   3.319  26.310  0.00  0.00    +0.149 HD
BRANCH   3  10
ATOM     10  C   UNL     1      -4.104   5.415  26.558  0.00  0.00    +0.107 C 
BRANCH  10   7
ATOM      7  C   UNL     1      -5.571   5.345  26.297  0.00  0.00    +0.006 C 
ATOM      8  C   UNL     1      -6.078   5.552  24.900  0.00  0.00    +0.005 C 
ATOM      9  C   UNL     1      -6.124   4.187  25.521  0.00  0.00    +0.005 C 
ENDBRANCH  10   7
ENDBRANCH   3  10
ENDBRANCH  12  18
BRANCH  11  17
ATOM     17  C   UNL     1      -4.400   0.129  25.242  0.00  0.00    +0.026 C 
BRANCH  17  20
ATOM     20  C   UNL     1      -5.432   1.259  25.325  0.00  0.00    -0.015 C 
ATOM     26  C   UNL     1      -6.121   1.214  26.690  0.00  0.00    +0.007 C 
ATOM     27  C   UNL     1      -6.479   1.182  24.214  0.00  0.00    +0.007 C 
ENDBRANCH  17  20
ENDBRANCH  11  17
BRANCH   4  24
ATOM     24  C   UNL     1       2.296  -0.786  22.397  0.00  0.00    +0.196 C 
BRANCH  24  28
ATOM      5  N   UNL     1       4.344   0.525  23.052  0.00  0.00    -0.336 N 
ATOM      6  N   UNL     1       4.154  -1.504  23.935  0.00  0.00    -0.239 NA
ATOM     28  C   UNL     1       3.598  -0.617  23.141  0.00  0.00    +0.129 A 
ATOM     29  C   UNL     1       5.448   0.354  23.839  0.00  0.00    +0.106 A 
ATOM     30  C   UNL     1       4.038   1.703  22.275  0.00  0.00    +0.150 C 
ATOM     31  C   UNL     1       5.309  -0.905  24.373  0.00  0.00    +0.130 A 
ENDBRANCH  24  28
ENDBRANCH   4  24
TORSDOF 7
ENDMDL
