MODEL 1
REMARK VINA RESULT:      -3.1      0.000      0.000
REMARK  Name = 71694321
REMARK  5 active torsions:
REMARK  status: ('A' for Active; 'I' for Inactive)
REMARK    1  A    between atoms: O_6  and  C_24
REMARK    2  A    between atoms: O_6  and  C_25
REMARK    3  A    between atoms: C_10  and  C_13
REMARK    4  A    between atoms: C_15  and  C_19
REMARK    5  A    between atoms: C_16  and  C_18
REMARK                            x       y       z     vdW  Elec       q    Type
REMARK                         _______ _______ _______ _____ _____    ______ ____
ROOT
ATOM      8  N   UNL     1      -1.698   1.904  23.633  0.00  0.00    -0.340 N 
ATOM      9  N   UNL     1      -3.183   0.342  24.168  0.00  0.00    -0.238 NA
ATOM     13  C   UNL     1      -2.995   1.627  23.965  0.00  0.00    +0.130 A 
ATOM     16  C   UNL     1      -1.016   0.720  23.624  0.00  0.00    +0.066 A 
ATOM     17  C   UNL     1      -1.953  -0.230  23.957  0.00  0.00    +0.139 A 
ATOM     26  H   UNL     1      -1.320   2.821  23.440  0.00  0.00    +0.167 HD
ENDROOT
BRANCH  13  10
ATOM      4  O   UNL     1      -2.830   4.724  24.866  0.00  0.00    -0.376 OA
ATOM      5  O   UNL     1      -6.434   1.300  24.582  0.00  0.00    -0.276 OA
ATOM      7  N   UNL     1      -4.745   2.696  25.365  0.00  0.00    -0.287 N 
ATOM     10  C   UNL     1      -4.042   2.730  24.066  0.00  0.00    +0.167 C 
ATOM     11  C   UNL     1      -3.519   4.144  23.757  0.00  0.00    +0.190 C 
ATOM     12  C   UNL     1      -4.098   3.426  26.463  0.00  0.00    +0.136 C 
ATOM     14  C   UNL     1      -3.675   4.815  26.010  0.00  0.00    +0.179 C 
ATOM     15  C   UNL     1      -5.894   1.912  25.507  0.00  0.00    +0.213 C 
ATOM     19  C   UNL     1      -6.490   1.828  26.891  0.00  0.00    +0.109 C 
ENDBRANCH  13  10
BRANCH  16  18
ATOM     18  C   UNL     1       0.386   0.615  23.315  0.00  0.00    +0.000 A 
ATOM     20  C   UNL     1       0.853  -0.449  22.543  0.00  0.00    +0.013 A 
ATOM     21  C   UNL     1       1.277   1.579  23.788  0.00  0.00    +0.013 A 
ATOM     22  C   UNL     1       2.211  -0.549  22.244  0.00  0.00    +0.046 A 
ATOM     23  C   UNL     1       2.636   1.478  23.487  0.00  0.00    +0.046 A 
ATOM     24  C   UNL     1       3.103   0.414  22.716  0.00  0.00    +0.130 A 
BRANCH  24   6
ATOM      6  O   UNL     1       4.428   0.318  22.421  0.00  0.00    -0.406 OA
BRANCH   6  25
ATOM      1  F   UNL     1       4.902  -1.281  23.987  0.00  0.00    -0.133 F 
ATOM      2  F   UNL     1       6.539  -0.322  22.902  0.00  0.00    -0.133 F 
ATOM      3  F   UNL     1       5.442   0.820  24.408  0.00  0.00    -0.133 F 
ATOM     25  C   UNL     1       5.317  -0.116  23.445  0.00  0.00    +0.575 C 
ENDBRANCH   6  25
ENDBRANCH  24   6
ENDBRANCH  16  18
TORSDOF 4
ENDMDL
MODEL 2
REMARK VINA RESULT:      -1.2      0.979      2.638
REMARK  Name = 71694321
REMARK  5 active torsions:
REMARK  status: ('A' for Active; 'I' for Inactive)
REMARK    1  A    between atoms: O_6  and  C_24
REMARK    2  A    between atoms: O_6  and  C_25
REMARK    3  A    between atoms: C_10  and  C_13
REMARK    4  A    between atoms: C_15  and  C_19
REMARK    5  A    between atoms: C_16  and  C_18
REMARK                            x       y       z     vdW  Elec       q    Type
REMARK                         _______ _______ _______ _____ _____    ______ ____
ROOT
ATOM      8  N   UNL     1      -1.550   1.292  24.720  0.00  0.00    -0.340 N 
ATOM      9  N   UNL     1      -3.120  -0.251  24.436  0.00  0.00    -0.238 NA
ATOM     13  C   UNL     1      -2.843   0.921  24.962  0.00  0.00    +0.130 A 
ATOM     16  C   UNL     1      -0.965   0.293  23.993  0.00  0.00    +0.066 A 
ATOM     17  C   UNL     1      -1.954  -0.649  23.831  0.00  0.00    +0.139 A 
ATOM     26  H   UNL     1      -1.112   2.148  25.033  0.00  0.00    +0.167 HD
ENDROOT
BRANCH  13  10
ATOM      4  O   UNL     1      -5.942   1.733  24.551  0.00  0.00    -0.376 OA
ATOM      5  O   UNL     1      -2.044   3.705  26.942  0.00  0.00    -0.276 OA
ATOM      7  N   UNL     1      -3.671   3.230  25.347  0.00  0.00    -0.287 N 
ATOM     10  C   UNL     1      -3.790   1.814  25.754  0.00  0.00    +0.167 C 
ATOM     11  C   UNL     1      -5.260   1.359  25.750  0.00  0.00    +0.190 C 
ATOM     12  C   UNL     1      -4.495   3.638  24.203  0.00  0.00    +0.136 C 
ATOM     14  C   UNL     1      -5.925   3.147  24.367  0.00  0.00    +0.179 C 
ATOM     15  C   UNL     1      -2.735   4.053  25.981  0.00  0.00    +0.213 C 
ATOM     19  C   UNL     1      -2.582   5.450  25.433  0.00  0.00    +0.109 C 
ENDBRANCH  13  10
BRANCH  16  18
ATOM     18  C   UNL     1       0.403   0.332  23.549  0.00  0.00    +0.000 A 
ATOM     20  C   UNL     1       1.227   1.394  23.919  0.00  0.00    +0.013 A 
ATOM     21  C   UNL     1       0.904  -0.694  22.747  0.00  0.00    +0.013 A 
ATOM     22  C   UNL     1       2.553   1.431  23.488  0.00  0.00    +0.046 A 
ATOM     23  C   UNL     1       2.230  -0.657  22.317  0.00  0.00    +0.046 A 
ATOM     24  C   UNL     1       3.055   0.406  22.686  0.00  0.00    +0.130 A 
BRANCH  24   6
ATOM      6  O   UNL     1       4.350   0.441  22.268  0.00  0.00    -0.406 OA
BRANCH   6  25
ATOM      1  F   UNL     1       5.616   1.030  24.079  0.00  0.00    -0.133 F 
ATOM      2  F   UNL     1       4.938  -1.037  23.870  0.00  0.00    -0.133 F 
ATOM      3  F   UNL     1       6.500  -0.286  22.540  0.00  0.00    -0.133 F 
ATOM     25  C   UNL     1       5.364   0.050  23.186  0.00  0.00    +0.575 C 
ENDBRANCH   6  25
ENDBRANCH  24   6
ENDBRANCH  16  18
TORSDOF 4
ENDMDL
MODEL 3
REMARK VINA RESULT:      -0.7      1.788      2.946
REMARK  Name = 71694321
REMARK  5 active torsions:
REMARK  status: ('A' for Active; 'I' for Inactive)
REMARK    1  A    between atoms: O_6  and  C_24
REMARK    2  A    between atoms: O_6  and  C_25
REMARK    3  A    between atoms: C_10  and  C_13
REMARK    4  A    between atoms: C_15  and  C_19
REMARK    5  A    between atoms: C_16  and  C_18
REMARK                            x       y       z     vdW  Elec       q    Type
REMARK                         _______ _______ _______ _____ _____    ______ ____
ROOT
ATOM      8  N   UNL     1      -1.165   0.381  24.674  0.00  0.00    -0.340 N 
ATOM      9  N   UNL     1      -2.312   2.283  24.676  0.00  0.00    -0.238 NA
ATOM     13  C   UNL     1      -2.334   1.010  25.003  0.00  0.00    +0.130 A 
ATOM     16  C   UNL     1      -0.347   1.313  24.100  0.00  0.00    +0.066 A 
ATOM     17  C   UNL     1      -1.076   2.479  24.113  0.00  0.00    +0.139 A 
ATOM     26  H   UNL     1      -0.958  -0.597  24.822  0.00  0.00    +0.167 HD
ENDROOT
BRANCH  13  10
ATOM      4  O   UNL     1      -3.345  -2.051  24.812  0.00  0.00    -0.376 OA
ATOM      5  O   UNL     1      -5.404   2.288  26.123  0.00  0.00    -0.276 OA
ATOM      7  N   UNL     1      -4.743   0.411  24.918  0.00  0.00    -0.287 N 
ATOM     10  C   UNL     1      -3.480   0.257  25.669  0.00  0.00    +0.167 C 
ATOM     11  C   UNL     1      -3.190  -1.224  25.966  0.00  0.00    +0.190 C 
ATOM     12  C   UNL     1      -4.958  -0.546  23.825  0.00  0.00    +0.136 C 
ATOM     14  C   UNL     1      -4.667  -1.965  24.287  0.00  0.00    +0.179 C 
ATOM     15  C   UNL     1      -5.589   1.487  25.204  0.00  0.00    +0.213 C 
ATOM     19  C   UNL     1      -6.798   1.651  24.317  0.00  0.00    +0.109 C 
ENDBRANCH  13  10
BRANCH  16  18
ATOM     18  C   UNL     1       0.979   1.018  23.623  0.00  0.00    +0.000 A 
ATOM     20  C   UNL     1       1.308  -0.282  23.239  0.00  0.00    +0.013 A 
ATOM     21  C   UNL     1       1.933   2.032  23.546  0.00  0.00    +0.013 A 
ATOM     22  C   UNL     1       2.593  -0.567  22.777  0.00  0.00    +0.046 A 
ATOM     23  C   UNL     1       3.218   1.747  23.083  0.00  0.00    +0.046 A 
ATOM     24  C   UNL     1       3.548   0.446  22.699  0.00  0.00    +0.130 A 
BRANCH  24   6
ATOM      6  O   UNL     1       4.801   0.168  22.245  0.00  0.00    -0.406 OA
BRANCH   6  25
ATOM      1  F   UNL     1       6.980  -0.432  22.591  0.00  0.00    -0.133 F 
ATOM      2  F   UNL     1       5.982   0.868  24.037  0.00  0.00    -0.133 F 
ATOM      3  F   UNL     1       5.423  -1.243  23.933  0.00  0.00    -0.133 F 
ATOM     25  C   UNL     1       5.801  -0.177  23.196  0.00  0.00    +0.575 C 
ENDBRANCH   6  25
ENDBRANCH  24   6
ENDBRANCH  16  18
TORSDOF 4
ENDMDL
MODEL 4
REMARK VINA RESULT:      -0.7      1.538      2.578
REMARK  Name = 71694321
REMARK  5 active torsions:
REMARK  status: ('A' for Active; 'I' for Inactive)
REMARK    1  A    between atoms: O_6  and  C_24
REMARK    2  A    between atoms: O_6  and  C_25
REMARK    3  A    between atoms: C_10  and  C_13
REMARK    4  A    between atoms: C_15  and  C_19
REMARK    5  A    between atoms: C_16  and  C_18
REMARK                            x       y       z     vdW  Elec       q    Type
REMARK                         _______ _______ _______ _____ _____    ______ ____
ROOT
ATOM      8  N   UNL     1      -1.579   1.251  23.575  0.00  0.00    -0.340 N 
ATOM      9  N   UNL     1      -2.158   3.071  24.708  0.00  0.00    -0.238 NA
ATOM     13  C   UNL     1      -2.602   2.000  24.089  0.00  0.00    +0.130 A 
ATOM     16  C   UNL     1      -0.410   1.886  23.886  0.00  0.00    +0.066 A 
ATOM     17  C   UNL     1      -0.792   3.006  24.585  0.00  0.00    +0.139 A 
ATOM     26  H   UNL     1      -1.681   0.391  23.053  0.00  0.00    +0.167 HD
ENDROOT
BRANCH  13  10
ATOM      4  O   UNL     1      -5.287   2.703  25.739  0.00  0.00    -0.376 OA
ATOM      5  O   UNL     1      -3.846  -0.978  22.712  0.00  0.00    -0.276 OA
ATOM      7  N   UNL     1      -4.329   0.291  24.601  0.00  0.00    -0.287 N 
ATOM     10  C   UNL     1      -4.056   1.576  23.924  0.00  0.00    +0.167 C 
ATOM     11  C   UNL     1      -5.088   2.644  24.326  0.00  0.00    +0.190 C 
ATOM     12  C   UNL     1      -4.681   0.380  26.024  0.00  0.00    +0.136 C 
ATOM     14  C   UNL     1      -5.737   1.451  26.251  0.00  0.00    +0.179 C 
ATOM     15  C   UNL     1      -4.142  -0.908  23.907  0.00  0.00    +0.213 C 
ATOM     19  C   UNL     1      -4.322  -2.181  24.696  0.00  0.00    +0.109 C 
ENDBRANCH  13  10
BRANCH  16  18
ATOM     18  C   UNL     1       0.887   1.388  23.508  0.00  0.00    +0.000 A 
ATOM     20  C   UNL     1       1.973   2.260  23.432  0.00  0.00    +0.013 A 
ATOM     21  C   UNL     1       1.056   0.034  23.218  0.00  0.00    +0.013 A 
ATOM     22  C   UNL     1       3.230   1.777  23.065  0.00  0.00    +0.046 A 
ATOM     23  C   UNL     1       2.313  -0.448  22.853  0.00  0.00    +0.046 A 
ATOM     24  C   UNL     1       3.400   0.423  22.775  0.00  0.00    +0.130 A 
BRANCH  24   6
ATOM      6  O   UNL     1       4.626  -0.048  22.421  0.00  0.00    -0.406 OA
BRANCH   6  25
ATOM      1  F   UNL     1       6.828  -0.411  22.921  0.00  0.00    -0.133 F 
ATOM      2  F   UNL     1       5.626   0.863  24.227  0.00  0.00    -0.133 F 
ATOM      3  F   UNL     1       5.278  -1.294  24.224  0.00  0.00    -0.133 F 
ATOM     25  C   UNL     1       5.596  -0.240  23.445  0.00  0.00    +0.575 C 
ENDBRANCH   6  25
ENDBRANCH  24   6
ENDBRANCH  16  18
TORSDOF 4
ENDMDL
