MODEL 1
REMARK VINA RESULT:       2.6      0.000      0.000
REMARK  Name = 7685227
REMARK  2 active torsions:
REMARK  status: ('A' for Active; 'I' for Inactive)
REMARK    1  A    between atoms: C_14  and  C_19
REMARK    2  A    between atoms: C_16  and  C_20
REMARK                            x       y       z     vdW  Elec       q    Type
REMARK                         _______ _______ _______ _____ _____    ______ ____
ROOT
ATOM      3  O   UNL     1      -2.493   4.133  27.584  0.00  0.00    -0.268 OA
ATOM      4  O   UNL     1      -5.818   1.232  25.122  0.00  0.00    -0.270 OA
ATOM      5  N   UNL     1      -4.165   1.790  23.565  0.00  0.00    -0.297 N 
ATOM      6  N   UNL     1      -2.157   3.402  25.385  0.00  0.00    -0.311 N 
ATOM      7  C   UNL     1      -3.653   4.215  23.464  0.00  0.00    +0.027 C 
ATOM      8  C   UNL     1      -1.869   2.578  23.028  0.00  0.00    +0.054 C 
ATOM      9  C   UNL     1      -2.441   3.927  22.592  0.00  0.00    +0.018 C 
ATOM     10  C   UNL     1      -4.717   3.117  23.295  0.00  0.00    +0.113 C 
ATOM     11  C   UNL     1      -3.186   4.341  24.915  0.00  0.00    +0.130 C 
ATOM     12  C   UNL     1      -2.933   1.477  22.828  0.00  0.00    +0.117 C 
ATOM     13  C   UNL     1      -1.411   2.605  24.490  0.00  0.00    +0.035 A 
ATOM     14  C   UNL     1      -0.358   1.875  24.949  0.00  0.00    +0.009 A 
ATOM     15  C   UNL     1      -1.884   3.446  26.763  0.00  0.00    +0.252 A 
ATOM     16  C   UNL     1      -4.787   0.967  24.507  0.00  0.00    +0.247 C 
ATOM     17  C   UNL     1      -0.052   1.896  26.369  0.00  0.00    +0.016 A 
ATOM     18  C   UNL     1      -0.761   2.610  27.242  0.00  0.00    +0.071 A 
ENDROOT
BRANCH  16  20
ATOM      2  F   UNL     1      -2.408  -3.952  25.698  0.00  0.00    -0.205 F 
ATOM     20  C   UNL     1      -4.163  -0.325  24.820  0.00  0.00    +0.037 A 
ATOM     22  C   UNL     1      -4.403  -1.426  24.002  0.00  0.00    +0.016 A 
ATOM     23  C   UNL     1      -3.333  -0.442  25.932  0.00  0.00    +0.016 A 
ATOM     26  C   UNL     1      -3.810  -2.653  24.300  0.00  0.00    +0.039 A 
ATOM     27  C   UNL     1      -2.740  -1.668  26.229  0.00  0.00    +0.039 A 
ATOM     28  C   UNL     1      -2.977  -2.774  25.413  0.00  0.00    +0.123 A 
ENDBRANCH  16  20
BRANCH  14  19
ATOM      1  S   UNL     1      -0.079  -0.504  23.655  0.00  0.00    -0.097 S 
ATOM     19  C   UNL     1       0.434   1.081  24.051  0.00  0.00    +0.021 A 
ATOM     21  C   UNL     1       1.614   1.414  23.424  0.00  0.00    +0.016 A 
ATOM     24  C   UNL     1       2.102   0.355  22.605  0.00  0.00    +0.008 A 
ATOM     25  C   UNL     1       1.277  -0.748  22.639  0.00  0.00    +0.046 A 
ENDBRANCH  14  19
TORSDOF 2
ENDMDL
MODEL 2
REMARK VINA RESULT:       5.9      2.819      5.003
REMARK  Name = 7685227
REMARK  2 active torsions:
REMARK  status: ('A' for Active; 'I' for Inactive)
REMARK    1  A    between atoms: C_14  and  C_19
REMARK    2  A    between atoms: C_16  and  C_20
REMARK                            x       y       z     vdW  Elec       q    Type
REMARK                         _______ _______ _______ _____ _____    ______ ____
ROOT
ATOM      3  O   UNL     1      -1.348   3.141  20.981  0.00  0.00    -0.268 OA
ATOM      4  O   UNL     1       0.420  -0.735  23.699  0.00  0.00    -0.270 OA
ATOM      5  N   UNL     1      -0.576   0.728  25.226  0.00  0.00    -0.297 N 
ATOM      6  N   UNL     1      -1.748   2.913  23.277  0.00  0.00    -0.311 N 
ATOM      7  C   UNL     1       0.157   3.086  24.988  0.00  0.00    +0.027 C 
ATOM      8  C   UNL     1      -2.133   2.597  25.741  0.00  0.00    +0.054 C 
ATOM      9  C   UNL     1      -0.938   3.528  25.946  0.00  0.00    +0.018 C 
ATOM     10  C   UNL     1       0.572   1.632  25.272  0.00  0.00    +0.113 C 
ATOM     11  C   UNL     1      -0.348   3.268  23.556  0.00  0.00    +0.130 C 
ATOM     12  C   UNL     1      -1.716   1.144  26.055  0.00  0.00    +0.117 C 
ATOM     13  C   UNL     1      -2.680   2.688  24.312  0.00  0.00    +0.035 A 
ATOM     14  C   UNL     1      -3.998   2.526  24.013  0.00  0.00    +0.009 A 
ATOM     15  C   UNL     1      -2.117   2.937  21.921  0.00  0.00    +0.252 A 
ATOM     16  C   UNL     1      -0.536  -0.391  24.391  0.00  0.00    +0.247 C 
ATOM     17  C   UNL     1      -4.412   2.542  22.620  0.00  0.00    +0.016 A 
ATOM     18  C   UNL     1      -3.549   2.715  21.621  0.00  0.00    +0.071 A 
ENDROOT
BRANCH  16  20
ATOM      2  F   UNL     1      -5.106  -3.595  24.045  0.00  0.00    -0.205 F 
ATOM     20  C   UNL     1      -1.736  -1.232  24.300  0.00  0.00    +0.037 A 
ATOM     22  C   UNL     1      -2.915  -0.703  23.781  0.00  0.00    +0.016 A 
ATOM     23  C   UNL     1      -1.689  -2.555  24.733  0.00  0.00    +0.016 A 
ATOM     26  C   UNL     1      -4.055  -1.502  23.695  0.00  0.00    +0.039 A 
ATOM     27  C   UNL     1      -2.829  -3.354  24.648  0.00  0.00    +0.039 A 
ATOM     28  C   UNL     1      -4.012  -2.829  24.128  0.00  0.00    +0.123 A 
ENDBRANCH  16  20
BRANCH  14  19
ATOM      1  S   UNL     1      -5.635   3.686  25.854  0.00  0.00    -0.097 S 
ATOM     19  C   UNL     1      -4.970   2.327  25.053  0.00  0.00    +0.021 A 
ATOM     21  C   UNL     1      -5.479   1.142  25.536  0.00  0.00    +0.016 A 
ATOM     24  C   UNL     1      -6.430   1.352  26.577  0.00  0.00    +0.008 A 
ATOM     25  C   UNL     1      -6.609   2.691  26.850  0.00  0.00    +0.046 A 
ENDBRANCH  14  19
TORSDOF 2
ENDMDL
