MODEL 1
REMARK VINA RESULT:      -5.9      0.000      0.000
REMARK  Name = 75536671
REMARK  9 active torsions:
REMARK  status: ('A' for Active; 'I' for Inactive)
REMARK    1  A    between atoms: S_1  and  N_7
REMARK    2  A    between atoms: S_1  and  C_16
REMARK    3  A    between atoms: O_3  and  C_10
REMARK    4  A    between atoms: N_6  and  C_9
REMARK    5  A    between atoms: N_6  and  C_14
REMARK    6  A    between atoms: N_7  and  C_13
REMARK    7  A    between atoms: C_11  and  C_13
REMARK    8  A    between atoms: C_14  and  C_15
REMARK    9  A    between atoms: C_19  and  C_22
REMARK                            x       y       z     vdW  Elec       q    Type
REMARK                         _______ _______ _______ _____ _____    ______ ____
ROOT
ATOM      2  O   UNL     1      -0.251   0.078  25.360  0.00  0.00    -0.371 OA
ATOM      9  C   UNL     1      -2.273  -1.134  25.659  0.00  0.00    +0.111 C 
ATOM     10  C   UNL     1      -1.739  -1.397  24.263  0.00  0.00    +0.164 C 
ATOM     11  C   UNL     1      -0.275  -1.020  24.433  0.00  0.00    +0.164 C 
ATOM     12  C   UNL     1      -1.521   0.134  26.034  0.00  0.00    +0.181 C 
ENDROOT
BRANCH  10   3
ATOM      3  O   UNL     1      -1.895  -2.745  23.864  0.00  0.00    -0.388 OA
ATOM     24  H   UNL     1      -2.733  -2.825  23.378  0.00  0.00    +0.210 HD
ENDBRANCH  10   3
BRANCH   9   6
ATOM      6  N   UNL     1      -3.717  -0.971  25.710  0.00  0.00    -0.305 NA
ATOM     23  H   UNL     1      -3.965  -0.476  26.568  0.00  0.00    +0.123 HD
BRANCH   6  14
ATOM     14  C   UNL     1      -4.201  -0.206  24.567  0.00  0.00    +0.116 C 
BRANCH  14  15
ATOM     15  C   UNL     1      -4.387   1.249  24.905  0.00  0.00    -0.032 A 
ATOM     17  C   UNL     1      -3.295   2.118  24.876  0.00  0.00    +0.023 A 
ATOM     18  C   UNL     1      -5.651   1.729  25.246  0.00  0.00    +0.005 A 
ATOM     19  C   UNL     1      -3.469   3.466  25.188  0.00  0.00    +0.052 A 
ATOM     20  C   UNL     1      -5.824   3.077  25.558  0.00  0.00    +0.002 A 
ATOM     21  C   UNL     1      -4.734   3.945  25.529  0.00  0.00    +0.019 A 
BRANCH  19  22
ATOM      8  N   UNL     1      -1.445   5.081  25.134  0.00  0.00    -0.191 NA
ATOM     22  C   UNL     1      -2.352   4.357  25.158  0.00  0.00    +0.099 C 
ENDBRANCH  19  22
ENDBRANCH  14  15
ENDBRANCH   6  14
ENDBRANCH   9   6
BRANCH  11  13
ATOM     13  C   UNL     1       0.394  -0.608  23.133  0.00  0.00    +0.139 C 
BRANCH  13   7
ATOM      7  N   UNL     1       1.407   0.432  23.405  0.00  0.00    -0.192 NA
ATOM     25  H   UNL     1       1.410   0.751  24.383  0.00  0.00    +0.148 HD
BRANCH   7   1
ATOM      1  S   UNL     1       2.928   0.330  22.640  0.00  0.00    +0.027 S 
ATOM      4  O   UNL     1       3.719   1.502  22.959  0.00  0.00    -0.158 OA
ATOM      5  O   UNL     1       2.723  -0.074  21.262  0.00  0.00    -0.158 OA
ATOM     16  C   UNL     1       3.634  -1.057  23.499  0.00  0.00    +0.214 C 
ENDBRANCH   7   1
ENDBRANCH  13   7
ENDBRANCH  11  13
TORSDOF 8
ENDMDL
MODEL 2
REMARK VINA RESULT:      -5.8      2.461      4.706
REMARK  Name = 75536671
REMARK  9 active torsions:
REMARK  status: ('A' for Active; 'I' for Inactive)
REMARK    1  A    between atoms: S_1  and  N_7
REMARK    2  A    between atoms: S_1  and  C_16
REMARK    3  A    between atoms: O_3  and  C_10
REMARK    4  A    between atoms: N_6  and  C_9
REMARK    5  A    between atoms: N_6  and  C_14
REMARK    6  A    between atoms: N_7  and  C_13
REMARK    7  A    between atoms: C_11  and  C_13
REMARK    8  A    between atoms: C_14  and  C_15
REMARK    9  A    between atoms: C_19  and  C_22
REMARK                            x       y       z     vdW  Elec       q    Type
REMARK                         _______ _______ _______ _____ _____    ______ ____
ROOT
ATOM      2  O   UNL     1       0.719  -0.707  23.326  0.00  0.00    -0.371 OA
ATOM      9  C   UNL     1       0.547   1.430  24.350  0.00  0.00    +0.111 C 
ATOM     10  C   UNL     1      -0.501   0.508  24.947  0.00  0.00    +0.164 C 
ATOM     11  C   UNL     1       0.079  -0.856  24.605  0.00  0.00    +0.164 C 
ATOM     12  C   UNL     1       0.894   0.696  23.063  0.00  0.00    +0.181 C 
ENDROOT
BRANCH  10   3
ATOM      3  O   UNL     1      -0.650   0.684  26.342  0.00  0.00    -0.388 OA
ATOM     24  H   UNL     1       0.097   0.247  26.786  0.00  0.00    +0.210 HD
ENDBRANCH  10   3
BRANCH   9   6
ATOM      6  N   UNL     1       0.071   2.783  24.118  0.00  0.00    -0.305 NA
ATOM     23  H   UNL     1       0.743   3.276  23.529  0.00  0.00    +0.123 HD
BRANCH   6  14
ATOM     14  C   UNL     1      -1.225   2.777  23.449  0.00  0.00    +0.116 C 
BRANCH  14  15
ATOM     15  C   UNL     1      -2.347   3.110  24.398  0.00  0.00    -0.032 A 
ATOM     17  C   UNL     1      -3.583   2.476  24.267  0.00  0.00    +0.023 A 
ATOM     18  C   UNL     1      -2.149   4.052  25.406  0.00  0.00    +0.005 A 
ATOM     19  C   UNL     1      -4.620   2.784  25.147  0.00  0.00    +0.052 A 
ATOM     20  C   UNL     1      -3.187   4.360  26.286  0.00  0.00    +0.002 A 
ATOM     21  C   UNL     1      -4.422   3.726  26.156  0.00  0.00    +0.019 A 
BRANCH  19  22
ATOM      8  N   UNL     1      -6.915   1.607  24.906  0.00  0.00    -0.191 NA
ATOM     22  C   UNL     1      -5.886   2.134  25.015  0.00  0.00    +0.099 C 
ENDBRANCH  19  22
ENDBRANCH  14  15
ENDBRANCH   6  14
ENDBRANCH   9   6
BRANCH  11  13
ATOM     13  C   UNL     1      -0.970  -1.952  24.528  0.00  0.00    +0.139 C 
BRANCH  13   7
ATOM      7  N   UNL     1      -2.178  -1.436  23.852  0.00  0.00    -0.192 NA
ATOM     25  H   UNL     1      -2.102  -1.436  22.826  0.00  0.00    +0.148 HD
BRANCH   7   1
ATOM      1  S   UNL     1      -3.713  -1.808  24.495  0.00  0.00    +0.027 S 
ATOM      4  O   UNL     1      -3.920  -3.242  24.478  0.00  0.00    -0.158 OA
ATOM      5  O   UNL     1      -4.688  -0.911  23.904  0.00  0.00    -0.158 OA
ATOM     16  C   UNL     1      -3.490  -1.306  26.186  0.00  0.00    +0.214 C 
ENDBRANCH   7   1
ENDBRANCH  13   7
ENDBRANCH  11  13
TORSDOF 8
ENDMDL
MODEL 3
REMARK VINA RESULT:      -5.8      2.853      5.285
REMARK  Name = 75536671
REMARK  9 active torsions:
REMARK  status: ('A' for Active; 'I' for Inactive)
REMARK    1  A    between atoms: S_1  and  N_7
REMARK    2  A    between atoms: S_1  and  C_16
REMARK    3  A    between atoms: O_3  and  C_10
REMARK    4  A    between atoms: N_6  and  C_9
REMARK    5  A    between atoms: N_6  and  C_14
REMARK    6  A    between atoms: N_7  and  C_13
REMARK    7  A    between atoms: C_11  and  C_13
REMARK    8  A    between atoms: C_14  and  C_15
REMARK    9  A    between atoms: C_19  and  C_22
REMARK                            x       y       z     vdW  Elec       q    Type
REMARK                         _______ _______ _______ _____ _____    ______ ____
ROOT
ATOM      2  O   UNL     1      -2.604   3.361  23.579  0.00  0.00    -0.371 OA
ATOM      9  C   UNL     1      -4.759   2.571  24.194  0.00  0.00    +0.111 C 
ATOM     10  C   UNL     1      -4.135   3.285  25.379  0.00  0.00    +0.164 C 
ATOM     11  C   UNL     1      -3.084   4.140  24.688  0.00  0.00    +0.164 C 
ATOM     12  C   UNL     1      -3.535   2.293  23.334  0.00  0.00    +0.181 C 
ENDROOT
BRANCH  10   3
ATOM      3  O   UNL     1      -5.068   4.071  26.095  0.00  0.00    -0.388 OA
ATOM     24  H   UNL     1      -5.419   4.751  25.494  0.00  0.00    +0.210 HD
ENDBRANCH  10   3
BRANCH   9   6
ATOM      6  N   UNL     1      -5.484   1.364  24.554  0.00  0.00    -0.305 NA
ATOM     23  H   UNL     1      -5.563   0.765  23.731  0.00  0.00    +0.123 HD
BRANCH   6  14
ATOM     14  C   UNL     1      -4.791   0.629  25.606  0.00  0.00    +0.116 C 
BRANCH  14  15
ATOM     15  C   UNL     1      -4.051  -0.564  25.062  0.00  0.00    -0.032 A 
ATOM     17  C   UNL     1      -2.720  -0.782  25.420  0.00  0.00    +0.023 A 
ATOM     18  C   UNL     1      -4.697  -1.451  24.201  0.00  0.00    +0.005 A 
ATOM     19  C   UNL     1      -2.036  -1.889  24.917  0.00  0.00    +0.052 A 
ATOM     20  C   UNL     1      -4.012  -2.557  23.698  0.00  0.00    +0.002 A 
ATOM     21  C   UNL     1      -2.682  -2.776  24.055  0.00  0.00    +0.019 A 
BRANCH  19  22
ATOM      8  N   UNL     1       0.434  -2.298  25.579  0.00  0.00    -0.191 NA
ATOM     22  C   UNL     1      -0.673  -2.114  25.283  0.00  0.00    +0.099 C 
ENDBRANCH  19  22
ENDBRANCH  14  15
ENDBRANCH   6  14
ENDBRANCH   9   6
BRANCH  11  13
ATOM     13  C   UNL     1      -1.923   4.513  25.593  0.00  0.00    +0.139 C 
BRANCH  13   7
ATOM      7  N   UNL     1      -0.675   3.922  25.068  0.00  0.00    -0.192 NA
ATOM     25  H   UNL     1       0.055   4.620  24.872  0.00  0.00    +0.148 HD
BRANCH   7   1
ATOM      1  S   UNL     1      -0.141   2.425  25.685  0.00  0.00    +0.027 S 
ATOM      4  O   UNL     1      -1.280   1.596  26.024  0.00  0.00    -0.158 OA
ATOM      5  O   UNL     1       0.908   2.676  26.656  0.00  0.00    -0.158 OA
ATOM     16  C   UNL     1       0.631   1.732  24.241  0.00  0.00    +0.214 C 
ENDBRANCH   7   1
ENDBRANCH  13   7
ENDBRANCH  11  13
TORSDOF 8
ENDMDL
MODEL 4
REMARK VINA RESULT:      -5.8      2.275      4.323
REMARK  Name = 75536671
REMARK  9 active torsions:
REMARK  status: ('A' for Active; 'I' for Inactive)
REMARK    1  A    between atoms: S_1  and  N_7
REMARK    2  A    between atoms: S_1  and  C_16
REMARK    3  A    between atoms: O_3  and  C_10
REMARK    4  A    between atoms: N_6  and  C_9
REMARK    5  A    between atoms: N_6  and  C_14
REMARK    6  A    between atoms: N_7  and  C_13
REMARK    7  A    between atoms: C_11  and  C_13
REMARK    8  A    between atoms: C_14  and  C_15
REMARK    9  A    between atoms: C_19  and  C_22
REMARK                            x       y       z     vdW  Elec       q    Type
REMARK                         _______ _______ _______ _____ _____    ______ ____
ROOT
ATOM      2  O   UNL     1       0.342   2.833  23.449  0.00  0.00    -0.371 OA
ATOM      9  C   UNL     1      -0.696   3.601  25.442  0.00  0.00    +0.111 C 
ATOM     10  C   UNL     1      -0.607   2.087  25.482  0.00  0.00    +0.164 C 
ATOM     11  C   UNL     1       0.498   1.831  24.468  0.00  0.00    +0.164 C 
ATOM     12  C   UNL     1      -0.508   3.874  23.958  0.00  0.00    +0.181 C 
ENDROOT
BRANCH  10   3
ATOM      3  O   UNL     1      -0.272   1.593  26.764  0.00  0.00    -0.388 OA
ATOM     24  H   UNL     1       0.313   2.238  27.196  0.00  0.00    +0.210 HD
ENDBRANCH  10   3
BRANCH   9   6
ATOM      6  N   UNL     1      -1.948   4.127  25.960  0.00  0.00    -0.305 NA
ATOM     23  H   UNL     1      -1.782   5.053  26.356  0.00  0.00    +0.123 HD
BRANCH   6  14
ATOM     14  C   UNL     1      -2.948   4.238  24.905  0.00  0.00    +0.116 C 
BRANCH  14  15
ATOM     15  C   UNL     1      -4.041   3.214  25.058  0.00  0.00    -0.032 A 
ATOM     17  C   UNL     1      -3.843   1.909  24.606  0.00  0.00    +0.023 A 
ATOM     18  C   UNL     1      -5.252   3.571  25.651  0.00  0.00    +0.005 A 
ATOM     19  C   UNL     1      -4.856   0.961  24.750  0.00  0.00    +0.052 A 
ATOM     20  C   UNL     1      -6.264   2.622  25.794  0.00  0.00    +0.002 A 
ATOM     21  C   UNL     1      -6.067   1.318  25.343  0.00  0.00    +0.019 A 
BRANCH  19  22
ATOM      8  N   UNL     1      -4.489  -1.463  23.912  0.00  0.00    -0.191 NA
ATOM     22  C   UNL     1      -4.654  -0.377  24.288  0.00  0.00    +0.099 C 
ENDBRANCH  19  22
ENDBRANCH  14  15
ENDBRANCH   6  14
ENDBRANCH   9   6
BRANCH  11  13
ATOM     13  C   UNL     1       0.430   0.448  23.842  0.00  0.00    +0.139 C 
BRANCH  13   7
ATOM      7  N   UNL     1      -0.896  -0.149  24.102  0.00  0.00    -0.192 NA
ATOM     25  H   UNL     1      -1.474  -0.239  23.256  0.00  0.00    +0.148 HD
BRANCH   7   1
ATOM      1  S   UNL     1      -1.031  -1.406  25.245  0.00  0.00    +0.027 S 
ATOM      4  O   UNL     1      -1.939  -1.014  26.304  0.00  0.00    -0.158 OA
ATOM      5  O   UNL     1       0.300  -1.893  25.552  0.00  0.00    -0.158 OA
ATOM     16  C   UNL     1      -1.837  -2.653  24.266  0.00  0.00    +0.214 C 
ENDBRANCH   7   1
ENDBRANCH  13   7
ENDBRANCH  11  13
TORSDOF 8
ENDMDL
MODEL 5
REMARK VINA RESULT:      -5.5      1.668      3.403
REMARK  Name = 75536671
REMARK  9 active torsions:
REMARK  status: ('A' for Active; 'I' for Inactive)
REMARK    1  A    between atoms: S_1  and  N_7
REMARK    2  A    between atoms: S_1  and  C_16
REMARK    3  A    between atoms: O_3  and  C_10
REMARK    4  A    between atoms: N_6  and  C_9
REMARK    5  A    between atoms: N_6  and  C_14
REMARK    6  A    between atoms: N_7  and  C_13
REMARK    7  A    between atoms: C_11  and  C_13
REMARK    8  A    between atoms: C_14  and  C_15
REMARK    9  A    between atoms: C_19  and  C_22
REMARK                            x       y       z     vdW  Elec       q    Type
REMARK                         _______ _______ _______ _____ _____    ______ ____
ROOT
ATOM      2  O   UNL     1       0.290   3.020  23.599  0.00  0.00    -0.371 OA
ATOM      9  C   UNL     1      -0.791   3.306  25.694  0.00  0.00    +0.111 C 
ATOM     10  C   UNL     1      -0.779   1.830  25.340  0.00  0.00    +0.164 C 
ATOM     11  C   UNL     1       0.354   1.781  24.326  0.00  0.00    +0.164 C 
ATOM     12  C   UNL     1      -0.529   3.942  24.338  0.00  0.00    +0.181 C 
ENDROOT
BRANCH  10   3
ATOM      3  O   UNL     1      -0.522   1.003  26.459  0.00  0.00    -0.388 OA
ATOM     24  H   UNL     1      -1.319   0.986  27.016  0.00  0.00    +0.210 HD
ENDBRANCH  10   3
BRANCH   9   6
ATOM      6  N   UNL     1      -2.037   3.751  26.296  0.00  0.00    -0.305 NA
ATOM     23  H   UNL     1      -1.861   4.598  26.839  0.00  0.00    +0.123 HD
BRANCH   6  14
ATOM     14  C   UNL     1      -3.038   4.045  25.277  0.00  0.00    +0.116 C 
BRANCH  14  15
ATOM     15  C   UNL     1      -4.088   2.968  25.196  0.00  0.00    -0.032 A 
ATOM     17  C   UNL     1      -3.745   1.691  24.751  0.00  0.00    +0.023 A 
ATOM     18  C   UNL     1      -5.403   3.249  25.566  0.00  0.00    +0.005 A 
ATOM     19  C   UNL     1      -4.718   0.694  24.678  0.00  0.00    +0.052 A 
ATOM     20  C   UNL     1      -6.375   2.251  25.493  0.00  0.00    +0.002 A 
ATOM     21  C   UNL     1      -6.033   0.975  25.048  0.00  0.00    +0.019 A 
BRANCH  19  22
ATOM      8  N   UNL     1      -4.084  -1.679  23.855  0.00  0.00    -0.191 NA
ATOM     22  C   UNL     1      -4.368  -0.615  24.224  0.00  0.00    +0.099 C 
ENDBRANCH  19  22
ENDBRANCH  14  15
ENDBRANCH   6  14
ENDBRANCH   9   6
BRANCH  11  13
ATOM     13  C   UNL     1       0.245   0.614  23.360  0.00  0.00    +0.139 C 
BRANCH  13   7
ATOM      7  N   UNL     1       1.443  -0.241  23.478  0.00  0.00    -0.192 NA
ATOM     25  H   UNL     1       1.227  -1.246  23.494  0.00  0.00    +0.148 HD
BRANCH   7   1
ATOM      1  S   UNL     1       2.869   0.211  22.658  0.00  0.00    +0.027 S 
ATOM      4  O   UNL     1       3.271   1.542  23.065  0.00  0.00    -0.158 OA
ATOM      5  O   UNL     1       2.716  -0.121  21.254  0.00  0.00    -0.158 OA
ATOM     16  C   UNL     1       4.026  -0.948  23.352  0.00  0.00    +0.214 C 
ENDBRANCH   7   1
ENDBRANCH  13   7
ENDBRANCH  11  13
TORSDOF 8
ENDMDL
MODEL 6
REMARK VINA RESULT:      -4.9      1.900      3.465
REMARK  Name = 75536671
REMARK  9 active torsions:
REMARK  status: ('A' for Active; 'I' for Inactive)
REMARK    1  A    between atoms: S_1  and  N_7
REMARK    2  A    between atoms: S_1  and  C_16
REMARK    3  A    between atoms: O_3  and  C_10
REMARK    4  A    between atoms: N_6  and  C_9
REMARK    5  A    between atoms: N_6  and  C_14
REMARK    6  A    between atoms: N_7  and  C_13
REMARK    7  A    between atoms: C_11  and  C_13
REMARK    8  A    between atoms: C_14  and  C_15
REMARK    9  A    between atoms: C_19  and  C_22
REMARK                            x       y       z     vdW  Elec       q    Type
REMARK                         _______ _______ _______ _____ _____    ______ ____
ROOT
ATOM      2  O   UNL     1       0.395  -0.830  23.568  0.00  0.00    -0.371 OA
ATOM      9  C   UNL     1      -0.338   1.146  24.664  0.00  0.00    +0.111 C 
ATOM     10  C   UNL     1       0.972   1.431  23.953  0.00  0.00    +0.164 C 
ATOM     11  C   UNL     1       1.000   0.306  22.928  0.00  0.00    +0.164 C 
ATOM     12  C   UNL     1      -0.321  -0.373  24.729  0.00  0.00    +0.181 C 
ENDROOT
BRANCH  10   3
ATOM      3  O   UNL     1       0.994   2.705  23.339  0.00  0.00    -0.388 OA
ATOM     24  H   UNL     1       1.790   2.762  22.783  0.00  0.00    +0.210 HD
ENDBRANCH  10   3
BRANCH   9   6
ATOM      6  N   UNL     1      -0.438   1.767  25.974  0.00  0.00    -0.305 NA
ATOM     23  H   UNL     1       0.474   2.144  26.235  0.00  0.00    +0.123 HD
BRANCH   6  14
ATOM     14  C   UNL     1      -1.412   2.853  25.969  0.00  0.00    +0.116 C 
BRANCH  14  15
ATOM     15  C   UNL     1      -2.774   2.381  25.532  0.00  0.00    -0.032 A 
ATOM     17  C   UNL     1      -2.952   1.067  25.100  0.00  0.00    +0.023 A 
ATOM     18  C   UNL     1      -3.856   3.260  25.559  0.00  0.00    +0.005 A 
ATOM     19  C   UNL     1      -4.214   0.631  24.696  0.00  0.00    +0.052 A 
ATOM     20  C   UNL     1      -5.118   2.823  25.155  0.00  0.00    +0.002 A 
ATOM     21  C   UNL     1      -5.297   1.510  24.723  0.00  0.00    +0.019 A 
BRANCH  19  22
ATOM      8  N   UNL     1      -4.546  -1.810  23.895  0.00  0.00    -0.191 NA
ATOM     22  C   UNL     1      -4.398  -0.716  24.254  0.00  0.00    +0.099 C 
ENDBRANCH  19  22
ENDBRANCH  14  15
ENDBRANCH   6  14
ENDBRANCH   9   6
BRANCH  11  13
ATOM     13  C   UNL     1       2.402  -0.052  22.468  0.00  0.00    +0.139 C 
BRANCH  13   7
ATOM      7  N   UNL     1       3.389   0.760  23.208  0.00  0.00    -0.192 NA
ATOM     25  H   UNL     1       2.963   1.375  23.914  0.00  0.00    +0.148 HD
BRANCH   7   1
ATOM      1  S   UNL     1       4.894   0.070  23.617  0.00  0.00    +0.027 S 
ATOM      4  O   UNL     1       5.364   0.621  24.873  0.00  0.00    -0.158 OA
ATOM      5  O   UNL     1       5.740   0.081  22.440  0.00  0.00    -0.158 OA
ATOM     16  C   UNL     1       4.412  -1.617  23.906  0.00  0.00    +0.214 C 
ENDBRANCH   7   1
ENDBRANCH  13   7
ENDBRANCH  11  13
TORSDOF 8
ENDMDL
MODEL 7
REMARK VINA RESULT:      -4.6      1.856      2.457
REMARK  Name = 75536671
REMARK  9 active torsions:
REMARK  status: ('A' for Active; 'I' for Inactive)
REMARK    1  A    between atoms: S_1  and  N_7
REMARK    2  A    between atoms: S_1  and  C_16
REMARK    3  A    between atoms: O_3  and  C_10
REMARK    4  A    between atoms: N_6  and  C_9
REMARK    5  A    between atoms: N_6  and  C_14
REMARK    6  A    between atoms: N_7  and  C_13
REMARK    7  A    between atoms: C_11  and  C_13
REMARK    8  A    between atoms: C_14  and  C_15
REMARK    9  A    between atoms: C_19  and  C_22
REMARK                            x       y       z     vdW  Elec       q    Type
REMARK                         _______ _______ _______ _____ _____    ______ ____
ROOT
ATOM      2  O   UNL     1      -1.828  -2.606  24.441  0.00  0.00    -0.371 OA
ATOM      9  C   UNL     1      -3.711  -1.295  23.826  0.00  0.00    +0.111 C 
ATOM     10  C   UNL     1      -2.476  -0.413  23.840  0.00  0.00    +0.164 C 
ATOM     11  C   UNL     1      -1.372  -1.452  23.716  0.00  0.00    +0.164 C 
ATOM     12  C   UNL     1      -3.244  -2.479  24.659  0.00  0.00    +0.181 C 
ENDROOT
BRANCH  10   3
ATOM      3  O   UNL     1      -2.454   0.512  22.770  0.00  0.00    -0.388 OA
ATOM     24  H   UNL     1      -2.167   0.044  21.968  0.00  0.00    +0.210 HD
ENDBRANCH  10   3
BRANCH   9   6
ATOM      6  N   UNL     1      -4.895  -0.651  24.371  0.00  0.00    -0.305 NA
ATOM     23  H   UNL     1      -5.618  -1.356  24.522  0.00  0.00    +0.123 HD
BRANCH   6  14
ATOM     14  C   UNL     1      -4.600   0.000  25.642  0.00  0.00    +0.116 C 
BRANCH  14  15
ATOM     15  C   UNL     1      -4.739   1.497  25.550  0.00  0.00    -0.032 A 
ATOM     17  C   UNL     1      -3.600   2.299  25.462  0.00  0.00    +0.023 A 
ATOM     18  C   UNL     1      -6.005   2.081  25.554  0.00  0.00    +0.005 A 
ATOM     19  C   UNL     1      -3.730   3.686  25.375  0.00  0.00    +0.052 A 
ATOM     20  C   UNL     1      -6.134   3.467  25.467  0.00  0.00    +0.002 A 
ATOM     21  C   UNL     1      -4.997   4.269  25.379  0.00  0.00    +0.019 A 
BRANCH  19  22
ATOM      8  N   UNL     1      -1.618   5.176  25.212  0.00  0.00    -0.191 NA
ATOM     22  C   UNL     1      -2.565   4.508  25.284  0.00  0.00    +0.099 C 
ENDBRANCH  19  22
ENDBRANCH  14  15
ENDBRANCH   6  14
ENDBRANCH   9   6
BRANCH  11  13
ATOM     13  C   UNL     1      -0.042  -0.985  24.281  0.00  0.00    +0.139 C 
BRANCH  13   7
ATOM      7  N   UNL     1      -0.250   0.221  25.108  0.00  0.00    -0.192 NA
ATOM     25  H   UNL     1      -0.138   0.048  26.116  0.00  0.00    +0.148 HD
BRANCH   7   1
ATOM      1  S   UNL     1       0.306   1.728  24.535  0.00  0.00    +0.027 S 
ATOM      4  O   UNL     1      -0.718   2.355  23.723  0.00  0.00    -0.158 OA
ATOM      5  O   UNL     1       1.653   1.557  24.027  0.00  0.00    -0.158 OA
ATOM     16  C   UNL     1       0.426   2.633  26.060  0.00  0.00    +0.214 C 
ENDBRANCH   7   1
ENDBRANCH  13   7
ENDBRANCH  11  13
TORSDOF 8
ENDMDL
MODEL 8
REMARK VINA RESULT:      -4.6      1.706      2.465
REMARK  Name = 75536671
REMARK  9 active torsions:
REMARK  status: ('A' for Active; 'I' for Inactive)
REMARK    1  A    between atoms: S_1  and  N_7
REMARK    2  A    between atoms: S_1  and  C_16
REMARK    3  A    between atoms: O_3  and  C_10
REMARK    4  A    between atoms: N_6  and  C_9
REMARK    5  A    between atoms: N_6  and  C_14
REMARK    6  A    between atoms: N_7  and  C_13
REMARK    7  A    between atoms: C_11  and  C_13
REMARK    8  A    between atoms: C_14  and  C_15
REMARK    9  A    between atoms: C_19  and  C_22
REMARK                            x       y       z     vdW  Elec       q    Type
REMARK                         _______ _______ _______ _____ _____    ______ ____
ROOT
ATOM      2  O   UNL     1       0.370  -0.923  22.248  0.00  0.00    -0.371 OA
ATOM      9  C   UNL     1      -0.536  -0.021  24.250  0.00  0.00    +0.111 C 
ATOM     10  C   UNL     1       0.910   0.420  24.118  0.00  0.00    +0.164 C 
ATOM     11  C   UNL     1       1.139   0.231  22.625  0.00  0.00    +0.164 C 
ATOM     12  C   UNL     1      -0.578  -1.202  23.292  0.00  0.00    +0.181 C 
ENDROOT
BRANCH  10   3
ATOM      3  O   UNL     1       1.109   1.762  24.517  0.00  0.00    -0.388 OA
ATOM     24  H   UNL     1       0.267   2.107  24.859  0.00  0.00    +0.210 HD
ENDBRANCH  10   3
BRANCH   9   6
ATOM      6  N   UNL     1      -0.916  -0.380  25.607  0.00  0.00    -0.305 NA
ATOM     23  H   UNL     1      -0.555   0.326  26.251  0.00  0.00    +0.123 HD
BRANCH   6  14
ATOM     14  C   UNL     1      -2.366  -0.448  25.746  0.00  0.00    +0.116 C 
BRANCH  14  15
ATOM     15  C   UNL     1      -3.026   0.855  25.378  0.00  0.00    -0.032 A 
ATOM     17  C   UNL     1      -2.299   2.044  25.427  0.00  0.00    +0.023 A 
ATOM     18  C   UNL     1      -4.365   0.871  24.988  0.00  0.00    +0.005 A 
ATOM     19  C   UNL     1      -2.911   3.250  25.084  0.00  0.00    +0.052 A 
ATOM     20  C   UNL     1      -4.977   2.077  24.646  0.00  0.00    +0.002 A 
ATOM     21  C   UNL     1      -4.250   3.266  24.695  0.00  0.00    +0.019 A 
BRANCH  19  22
ATOM      8  N   UNL     1      -1.563   5.460  25.173  0.00  0.00    -0.191 NA
ATOM     22  C   UNL     1      -2.167   4.469  25.134  0.00  0.00    +0.099 C 
ENDBRANCH  19  22
ENDBRANCH  14  15
ENDBRANCH   6  14
ENDBRANCH   9   6
BRANCH  11  13
ATOM     13  C   UNL     1       2.599   0.016  22.265  0.00  0.00    +0.139 C 
BRANCH  13   7
ATOM      7  N   UNL     1       3.458   0.748  23.217  0.00  0.00    -0.192 NA
ATOM     25  H   UNL     1       2.928   1.236  23.951  0.00  0.00    +0.148 HD
BRANCH   7   1
ATOM      1  S   UNL     1       4.947   0.064  23.689  0.00  0.00    +0.027 S 
ATOM      4  O   UNL     1       5.361   0.616  24.963  0.00  0.00    -0.158 OA
ATOM      5  O   UNL     1       5.842   0.080  22.548  0.00  0.00    -0.158 OA
ATOM     16  C   UNL     1       4.460  -1.625  23.956  0.00  0.00    +0.214 C 
ENDBRANCH   7   1
ENDBRANCH  13   7
ENDBRANCH  11  13
TORSDOF 8
ENDMDL
MODEL 9
REMARK VINA RESULT:      -4.5      2.840      4.865
REMARK  Name = 75536671
REMARK  9 active torsions:
REMARK  status: ('A' for Active; 'I' for Inactive)
REMARK    1  A    between atoms: S_1  and  N_7
REMARK    2  A    between atoms: S_1  and  C_16
REMARK    3  A    between atoms: O_3  and  C_10
REMARK    4  A    between atoms: N_6  and  C_9
REMARK    5  A    between atoms: N_6  and  C_14
REMARK    6  A    between atoms: N_7  and  C_13
REMARK    7  A    between atoms: C_11  and  C_13
REMARK    8  A    between atoms: C_14  and  C_15
REMARK    9  A    between atoms: C_19  and  C_22
REMARK                            x       y       z     vdW  Elec       q    Type
REMARK                         _______ _______ _______ _____ _____    ______ ____
ROOT
ATOM      2  O   UNL     1      -0.991  -1.937  23.731  0.00  0.00    -0.371 OA
ATOM      9  C   UNL     1       0.216  -0.024  24.457  0.00  0.00    +0.111 C 
ATOM     10  C   UNL     1      -0.907  -0.303  25.439  0.00  0.00    +0.164 C 
ATOM     11  C   UNL     1      -1.198  -1.767  25.144  0.00  0.00    +0.164 C 
ATOM     12  C   UNL     1      -0.247  -0.809  23.239  0.00  0.00    +0.181 C 
ENDROOT
BRANCH  10   3
ATOM      3  O   UNL     1      -0.519  -0.103  26.784  0.00  0.00    -0.388 OA
ATOM     24  H   UNL     1      -0.724  -0.911  27.285  0.00  0.00    +0.210 HD
ENDBRANCH  10   3
BRANCH   9   6
ATOM      6  N   UNL     1       0.411   1.389  24.179  0.00  0.00    -0.305 NA
ATOM     23  H   UNL     1      -0.311   1.703  23.530  0.00  0.00    +0.123 HD
BRANCH   6  14
ATOM     14  C   UNL     1       0.324   2.182  25.400  0.00  0.00    +0.116 C 
BRANCH  14  15
ATOM     15  C   UNL     1      -0.753   3.230  25.312  0.00  0.00    -0.032 A 
ATOM     17  C   UNL     1      -2.082   2.889  25.565  0.00  0.00    +0.023 A 
ATOM     18  C   UNL     1      -0.421   4.543  24.976  0.00  0.00    +0.005 A 
ATOM     19  C   UNL     1      -3.078   3.862  25.484  0.00  0.00    +0.052 A 
ATOM     20  C   UNL     1      -1.419   5.515  24.895  0.00  0.00    +0.002 A 
ATOM     21  C   UNL     1      -2.747   5.174  25.148  0.00  0.00    +0.019 A 
BRANCH  19  22
ATOM      8  N   UNL     1      -5.545   3.230  25.958  0.00  0.00    -0.191 NA
ATOM     22  C   UNL     1      -4.440   3.513  25.745  0.00  0.00    +0.099 C 
ENDBRANCH  19  22
ENDBRANCH  14  15
ENDBRANCH   6  14
ENDBRANCH   9   6
BRANCH  11  13
ATOM     13  C   UNL     1      -2.613  -2.184  25.508  0.00  0.00    +0.139 C 
BRANCH  13   7
ATOM      7  N   UNL     1      -3.445  -0.981  25.715  0.00  0.00    -0.192 NA
ATOM     25  H   UNL     1      -3.031  -0.307  26.372  0.00  0.00    +0.148 HD
BRANCH   7   1
ATOM      1  S   UNL     1      -4.294  -0.321  24.391  0.00  0.00    +0.027 S 
ATOM      4  O   UNL     1      -3.408   0.512  23.604  0.00  0.00    -0.158 OA
ATOM      5  O   UNL     1      -5.564   0.192  24.870  0.00  0.00    -0.158 OA
ATOM     16  C   UNL     1      -4.637  -1.794  23.456  0.00  0.00    +0.214 C 
ENDBRANCH   7   1
ENDBRANCH  13   7
ENDBRANCH  11  13
TORSDOF 8
ENDMDL
MODEL 10
REMARK VINA RESULT:      -4.4      2.186      4.480
REMARK  Name = 75536671
REMARK  9 active torsions:
REMARK  status: ('A' for Active; 'I' for Inactive)
REMARK    1  A    between atoms: S_1  and  N_7
REMARK    2  A    between atoms: S_1  and  C_16
REMARK    3  A    between atoms: O_3  and  C_10
REMARK    4  A    between atoms: N_6  and  C_9
REMARK    5  A    between atoms: N_6  and  C_14
REMARK    6  A    between atoms: N_7  and  C_13
REMARK    7  A    between atoms: C_11  and  C_13
REMARK    8  A    between atoms: C_14  and  C_15
REMARK    9  A    between atoms: C_19  and  C_22
REMARK                            x       y       z     vdW  Elec       q    Type
REMARK                         _______ _______ _______ _____ _____    ______ ____
ROOT
ATOM      2  O   UNL     1       0.056   4.062  24.782  0.00  0.00    -0.371 OA
ATOM      9  C   UNL     1      -2.151   4.869  25.130  0.00  0.00    +0.111 C 
ATOM     10  C   UNL     1      -1.977   3.561  25.881  0.00  0.00    +0.164 C 
ATOM     11  C   UNL     1      -0.461   3.487  25.994  0.00  0.00    +0.164 C 
ATOM     12  C   UNL     1      -0.997   4.803  24.142  0.00  0.00    +0.181 C 
ENDROOT
BRANCH  10   3
ATOM      3  O   UNL     1      -2.601   3.574  27.150  0.00  0.00    -0.388 OA
ATOM     24  H   UNL     1      -2.249   2.832  27.671  0.00  0.00    +0.210 HD
ENDBRANCH  10   3
BRANCH   9   6
ATOM      6  N   UNL     1      -3.445   5.002  24.481  0.00  0.00    -0.305 NA
ATOM     23  H   UNL     1      -3.462   5.873  23.949  0.00  0.00    +0.123 HD
BRANCH   6  14
ATOM     14  C   UNL     1      -3.693   3.889  23.572  0.00  0.00    +0.116 C 
BRANCH  14  15
ATOM     15  C   UNL     1      -4.369   2.737  24.268  0.00  0.00    -0.032 A 
ATOM     17  C   UNL     1      -4.007   1.426  23.959  0.00  0.00    +0.023 A 
ATOM     18  C   UNL     1      -5.357   2.982  25.221  0.00  0.00    +0.005 A 
ATOM     19  C   UNL     1      -4.633   0.360  24.605  0.00  0.00    +0.052 A 
ATOM     20  C   UNL     1      -5.982   1.916  25.867  0.00  0.00    +0.002 A 
ATOM     21  C   UNL     1      -5.621   0.605  25.558  0.00  0.00    +0.019 A 
BRANCH  19  22
ATOM      8  N   UNL     1      -3.960  -2.076  24.035  0.00  0.00    -0.191 NA
ATOM     22  C   UNL     1      -4.262  -0.984  24.290  0.00  0.00    +0.099 C 
ENDBRANCH  19  22
ENDBRANCH  14  15
ENDBRANCH   6  14
ENDBRANCH   9   6
BRANCH  11  13
ATOM     13  C   UNL     1       0.060   2.069  26.152  0.00  0.00    +0.139 C 
BRANCH  13   7
ATOM      7  N   UNL     1       0.739   1.649  24.909  0.00  0.00    -0.192 NA
ATOM     25  H   UNL     1       1.751   1.512  25.025  0.00  0.00    +0.148 HD
BRANCH   7   1
ATOM      1  S   UNL     1      -0.054   0.569  23.854  0.00  0.00    +0.027 S 
ATOM      4  O   UNL     1       0.923  -0.155  23.065  0.00  0.00    -0.158 OA
ATOM      5  O   UNL     1      -1.149   1.272  23.214  0.00  0.00    -0.158 OA
ATOM     16  C   UNL     1      -0.764  -0.567  25.023  0.00  0.00    +0.214 C 
ENDBRANCH   7   1
ENDBRANCH  13   7
ENDBRANCH  11  13
TORSDOF 8
ENDMDL
