MODEL 1
REMARK VINA RESULT:      -3.5      0.000      0.000
REMARK  Name = 75368640
REMARK  8 active torsions:
REMARK  status: ('A' for Active; 'I' for Inactive)
REMARK    1  A    between atoms: O_2  and  C_25
REMARK    2  A    between atoms: O_2  and  C_27
REMARK    3  A    between atoms: O_3  and  C_26
REMARK    4  A    between atoms: O_3  and  C_28
REMARK    5  A    between atoms: N_5  and  C_14
REMARK    6  A    between atoms: N_6  and  C_15
REMARK    7  A    between atoms: C_14  and  C_16
REMARK    8  A    between atoms: C_15  and  C_17
REMARK                            x       y       z     vdW  Elec       q    Type
REMARK                         _______ _______ _______ _____ _____    ______ ____
ROOT
ATOM      1  O   UNL     1      -2.831  -8.302  10.393  0.00  0.00    -0.252 OA
ATOM      4  N   UNL     1      -4.793  -9.332   9.615  0.00  0.00    -0.278 N 
ATOM      5  N   UNL     1      -7.366  -9.577   8.505  0.00  0.00    -0.295 NA
ATOM      6  N   UNL     1      -3.922 -10.036  11.561  0.00  0.00    -0.279 N 
ATOM      8  C   UNL     1      -5.617 -10.462   9.993  0.00  0.00    +0.109 C 
ATOM      9  C   UNL     1      -7.098 -10.110   9.856  0.00  0.00    +0.109 C 
ATOM     10  C   UNL     1      -5.161 -10.780  11.416  0.00  0.00    +0.133 C 
ATOM     11  C   UNL     1      -5.068  -8.639   8.373  0.00  0.00    +0.125 C 
ATOM     12  C   UNL     1      -6.568  -8.361   8.250  0.00  0.00    +0.104 C 
ATOM     13  C   UNL     1      -3.732  -9.122  10.506  0.00  0.00    +0.305 C 
ENDROOT
BRANCH   5  14
ATOM     14  C   UNL     1      -8.792  -9.294   8.343  0.00  0.00    +0.121 C 
BRANCH  14  16
ATOM      7  N   UNL     1      -8.279  -5.548   8.284  0.00  0.00    -0.221 NA
ATOM     16  C   UNL     1      -9.084  -7.823   8.417  0.00  0.00    -0.015 A 
ATOM     18  C   UNL     1     -10.370  -7.360   8.675  0.00  0.00    +0.011 A 
ATOM     21  C   UNL     1      -8.082  -6.885   8.232  0.00  0.00    +0.119 A 
ATOM     24  C   UNL     1     -10.611  -5.992   8.736  0.00  0.00    +0.067 A 
ATOM     26  C   UNL     1      -9.541  -5.136   8.536  0.00  0.00    +0.214 A 
BRANCH  26   3
ATOM      3  O   UNL     1      -9.754  -3.782   8.593  0.00  0.00    -0.480 OA
ATOM     28  C   UNL     1     -10.686  -3.322   9.563  0.00  0.00    +0.279 C 
ENDBRANCH  26   3
ENDBRANCH  14  16
ENDBRANCH   5  14
BRANCH   6  15
ATOM     15  C   UNL     1      -3.095 -10.146  12.743  0.00  0.00    +0.144 C 
BRANCH  15  17
ATOM     17  C   UNL     1      -3.911 -10.154  14.001  0.00  0.00    -0.030 A 
ATOM     19  C   UNL     1      -3.332 -10.554  15.207  0.00  0.00    +0.009 A 
ATOM     20  C   UNL     1      -5.249  -9.761  13.969  0.00  0.00    +0.009 A 
ATOM     22  C   UNL     1      -4.092 -10.561  16.376  0.00  0.00    +0.046 A 
ATOM     23  C   UNL     1      -6.008  -9.767  15.138  0.00  0.00    +0.046 A 
ATOM     25  C   UNL     1      -5.429 -10.168  16.342  0.00  0.00    +0.120 A 
BRANCH  25   2
ATOM      2  O   UNL     1      -6.170 -10.175  17.484  0.00  0.00    -0.495 OA
ATOM     27  C   UNL     1      -5.512 -10.589  18.682  0.00  0.00    +0.277 C 
ENDBRANCH  25   2
ENDBRANCH  15  17
ENDBRANCH   6  15
TORSDOF 6
ENDMDL
MODEL 2
REMARK VINA RESULT:      -0.9      3.379      5.684
REMARK  Name = 75368640
REMARK  8 active torsions:
REMARK  status: ('A' for Active; 'I' for Inactive)
REMARK    1  A    between atoms: O_2  and  C_25
REMARK    2  A    between atoms: O_2  and  C_27
REMARK    3  A    between atoms: O_3  and  C_26
REMARK    4  A    between atoms: O_3  and  C_28
REMARK    5  A    between atoms: N_5  and  C_14
REMARK    6  A    between atoms: N_6  and  C_15
REMARK    7  A    between atoms: C_14  and  C_16
REMARK    8  A    between atoms: C_15  and  C_17
REMARK                            x       y       z     vdW  Elec       q    Type
REMARK                         _______ _______ _______ _____ _____    ______ ____
ROOT
ATOM      1  O   UNL     1      -2.107  -8.547   9.986  0.00  0.00    -0.252 OA
ATOM      4  N   UNL     1      -4.327  -9.312   9.932  0.00  0.00    -0.278 N 
ATOM      5  N   UNL     1      -7.134  -9.214   9.777  0.00  0.00    -0.295 NA
ATOM      6  N   UNL     1      -2.936 -10.190  11.460  0.00  0.00    -0.279 N 
ATOM      8  C   UNL     1      -5.103 -10.354  10.573  0.00  0.00    +0.109 C 
ATOM      9  C   UNL     1      -6.487  -9.828  10.954  0.00  0.00    +0.109 C 
ATOM     10  C   UNL     1      -4.231 -10.781  11.751  0.00  0.00    +0.133 C 
ATOM     11  C   UNL     1      -4.923  -8.542   8.860  0.00  0.00    +0.125 C 
ATOM     12  C   UNL     1      -6.330  -8.088   9.261  0.00  0.00    +0.104 C 
ATOM     13  C   UNL     1      -3.008  -9.261  10.403  0.00  0.00    +0.305 C 
ENDROOT
BRANCH   5  14
ATOM     14  C   UNL     1      -8.483  -8.762  10.115  0.00  0.00    +0.121 C 
BRANCH  14  16
ATOM      7  N   UNL     1     -10.660 -10.288  12.806  0.00  0.00    -0.221 NA
ATOM     16  C   UNL     1      -8.929  -9.279  11.453  0.00  0.00    -0.015 A 
ATOM     18  C   UNL     1      -8.081  -9.241  12.555  0.00  0.00    +0.011 A 
ATOM     21  C   UNL     1     -10.197  -9.807  11.630  0.00  0.00    +0.119 A 
ATOM     24  C   UNL     1      -8.521  -9.727  13.782  0.00  0.00    +0.067 A 
ATOM     26  C   UNL     1      -9.807 -10.235  13.853  0.00  0.00    +0.214 A 
BRANCH  26   3
ATOM      3  O   UNL     1     -10.264 -10.719  15.052  0.00  0.00    -0.480 OA
ATOM     28  C   UNL     1      -9.704 -10.147  16.227  0.00  0.00    +0.279 C 
ENDBRANCH  26   3
ENDBRANCH  14  16
ENDBRANCH   5  14
BRANCH   6  15
ATOM     15  C   UNL     1      -1.775 -10.443  12.285  0.00  0.00    +0.144 C 
BRANCH  15  17
ATOM     17  C   UNL     1      -0.750  -9.354  12.162  0.00  0.00    -0.030 A 
ATOM     19  C   UNL     1      -0.673  -8.355  13.134  0.00  0.00    +0.009 A 
ATOM     20  C   UNL     1       0.126  -9.338  11.076  0.00  0.00    +0.009 A 
ATOM     22  C   UNL     1       0.280  -7.343  13.019  0.00  0.00    +0.046 A 
ATOM     23  C   UNL     1       1.078  -8.326  10.962  0.00  0.00    +0.046 A 
ATOM     25  C   UNL     1       1.154  -7.328  11.933  0.00  0.00    +0.120 A 
BRANCH  25   2
ATOM      2  O   UNL     1       2.083  -6.339  11.821  0.00  0.00    -0.495 OA
ATOM     27  C   UNL     1       3.425  -6.665  12.183  0.00  0.00    +0.277 C 
ENDBRANCH  25   2
ENDBRANCH  15  17
ENDBRANCH   6  15
TORSDOF 6
ENDMDL
