MODEL 1
REMARK VINA RESULT:      -3.3      0.000      0.000
REMARK  Name = 11912447
REMARK  11 active torsions:
REMARK  status: ('A' for Active; 'I' for Inactive)
REMARK    1  A    between atoms: O_3  and  C_26
REMARK    2  A    between atoms: O_3  and  C_27
REMARK    3  A    between atoms: C_7  and  C_12
REMARK    4  A    between atoms: C_8  and  C_13
REMARK    5  A    between atoms: C_12  and  C_14
REMARK    6  A    between atoms: C_13  and  C_20
REMARK    7  A    between atoms: C_15  and  C_16
REMARK    8  A    between atoms: C_16  and  C_23
REMARK    9  A    between atoms: C_16  and  C_24
REMARK   10  A    between atoms: C_16  and  C_25
REMARK   11  A    between atoms: C_19  and  C_26
REMARK                            x       y       z     vdW  Elec       q    Type
REMARK                         _______ _______ _______ _____ _____    ______ ____
ROOT
ATOM      2  O   UNL     1      -1.224  -2.913  24.480  0.00  0.00    -0.275 OA
ATOM      5  N   UNL     1      -1.208  -0.589  24.537  0.00  0.00    -0.301 N 
ATOM      7  C   UNL     1      -0.087   1.808  23.285  0.00  0.00    +0.004 C 
ATOM      8  C   UNL     1       0.575   0.415  23.140  0.00  0.00    +0.010 C 
ATOM      9  C   UNL     1      -1.596   1.634  23.537  0.00  0.00    +0.023 C 
ATOM     10  C   UNL     1       0.239  -0.500  24.327  0.00  0.00    +0.111 C 
ATOM     11  C   UNL     1      -1.891   0.698  24.707  0.00  0.00    +0.108 C 
ATOM     15  C   UNL     1      -1.818  -1.840  24.627  0.00  0.00    +0.221 C 
ENDROOT
BRANCH  15  16
ATOM     16  C   UNL     1      -3.297  -1.853  24.922  0.00  0.00    +0.039 C 
ATOM     23  C   UNL     1      -3.769  -3.308  24.890  0.00  0.00    +0.020 C 
ATOM     24  C   UNL     1      -4.020  -1.032  23.853  0.00  0.00    +0.020 C 
ATOM     25  C   UNL     1      -3.529  -1.245  26.306  0.00  0.00    +0.020 C 
ENDBRANCH  15  16
BRANCH   8  13
ATOM     13  C   UNL     1       2.087   0.490  22.929  0.00  0.00    +0.002 C 
ATOM     20  C   UNL     1       2.491  -0.178  21.632  0.00  0.00    +0.004 C 
ENDBRANCH   8  13
BRANCH   7  12
ATOM     12  C   UNL     1       0.550   2.693  24.364  0.00  0.00    +0.100 C 
BRANCH  12  14
ATOM      1  O   UNL     1       0.084   1.782  26.501  0.00  0.00    -0.276 OA
ATOM      6  N   UNL     1      -1.329   3.473  25.765  0.00  0.00    -0.301 N 
ATOM     14  C   UNL     1      -0.246   2.602  25.641  0.00  0.00    +0.216 C 
ATOM     17  C   UNL     1      -2.128   3.473  26.993  0.00  0.00    +0.108 C 
ATOM     18  C   UNL     1      -1.746   4.459  24.761  0.00  0.00    +0.108 C 
ATOM     19  C   UNL     1      -4.100   4.291  25.653  0.00  0.00    +0.101 C 
ATOM     21  C   UNL     1      -3.607   3.268  26.680  0.00  0.00    +0.033 C 
ATOM     22  C   UNL     1      -3.219   4.274  24.401  0.00  0.00    +0.033 C 
BRANCH  19  26
ATOM      4  O   UNL     1      -6.478   4.665  25.621  0.00  0.00    -0.251 OA
ATOM     26  C   UNL     1      -5.519   3.983  25.286  0.00  0.00    +0.310 C 
BRANCH  26   3
ATOM      3  O   UNL     1      -5.560   2.843  24.538  0.00  0.00    -0.468 OA
ATOM     27  C   UNL     1      -6.247   1.738  25.136  0.00  0.00    +0.280 C 
ENDBRANCH  26   3
ENDBRANCH  19  26
ENDBRANCH  12  14
ENDBRANCH   7  12
TORSDOF 6
ENDMDL
MODEL 2
REMARK VINA RESULT:      -2.1      1.639      2.708
REMARK  Name = 11912447
REMARK  11 active torsions:
REMARK  status: ('A' for Active; 'I' for Inactive)
REMARK    1  A    between atoms: O_3  and  C_26
REMARK    2  A    between atoms: O_3  and  C_27
REMARK    3  A    between atoms: C_7  and  C_12
REMARK    4  A    between atoms: C_8  and  C_13
REMARK    5  A    between atoms: C_12  and  C_14
REMARK    6  A    between atoms: C_13  and  C_20
REMARK    7  A    between atoms: C_15  and  C_16
REMARK    8  A    between atoms: C_16  and  C_23
REMARK    9  A    between atoms: C_16  and  C_24
REMARK   10  A    between atoms: C_16  and  C_25
REMARK   11  A    between atoms: C_19  and  C_26
REMARK                            x       y       z     vdW  Elec       q    Type
REMARK                         _______ _______ _______ _____ _____    ______ ____
ROOT
ATOM      2  O   UNL     1      -3.045  -1.103  26.685  0.00  0.00    -0.275 OA
ATOM      5  N   UNL     1      -1.922   0.012  24.982  0.00  0.00    -0.301 N 
ATOM      7  C   UNL     1       0.406   1.678  24.369  0.00  0.00    +0.004 C 
ATOM      8  C   UNL     1      -0.149   1.533  25.808  0.00  0.00    +0.010 C 
ATOM      9  C   UNL     1       0.049   0.422  23.554  0.00  0.00    +0.023 C 
ATOM     10  C   UNL     1      -1.646   1.191  25.808  0.00  0.00    +0.111 C 
ATOM     11  C   UNL     1      -1.443   0.098  23.598  0.00  0.00    +0.108 C 
ATOM     15  C   UNL     1      -2.651  -1.050  25.516  0.00  0.00    +0.221 C 
ENDROOT
BRANCH  15  16
ATOM     16  C   UNL     1      -2.963  -2.194  24.583  0.00  0.00    +0.039 C 
ATOM     23  C   UNL     1      -4.001  -1.704  23.572  0.00  0.00    +0.020 C 
ATOM     24  C   UNL     1      -3.521  -3.359  25.401  0.00  0.00    +0.020 C 
ATOM     25  C   UNL     1      -1.677  -2.613  23.869  0.00  0.00    +0.020 C 
ENDBRANCH  15  16
BRANCH   8  13
ATOM     13  C   UNL     1       0.123   2.759  26.681  0.00  0.00    +0.002 C 
ATOM     20  C   UNL     1       0.821   2.370  27.966  0.00  0.00    +0.004 C 
ENDBRANCH   8  13
BRANCH   7  12
ATOM     12  C   UNL     1      -0.056   2.950  23.647  0.00  0.00    +0.100 C 
BRANCH  12  14
ATOM      1  O   UNL     1      -0.339   4.408  25.493  0.00  0.00    -0.276 OA
ATOM      6  N   UNL     1      -2.263   3.828  24.326  0.00  0.00    -0.301 N 
ATOM     14  C   UNL     1      -0.890   3.796  24.575  0.00  0.00    +0.216 C 
ATOM     17  C   UNL     1      -3.135   4.660  25.159  0.00  0.00    +0.108 C 
ATOM     18  C   UNL     1      -2.947   3.114  23.242  0.00  0.00    +0.108 C 
ATOM     19  C   UNL     1      -5.036   3.082  24.657  0.00  0.00    +0.101 C 
ATOM     21  C   UNL     1      -4.272   3.831  25.751  0.00  0.00    +0.033 C 
ATOM     22  C   UNL     1      -4.081   2.252  23.795  0.00  0.00    +0.033 C 
BRANCH  19  26
ATOM      4  O   UNL     1      -6.775   1.418  24.663  0.00  0.00    -0.251 OA
ATOM     26  C   UNL     1      -6.063   2.192  25.287  0.00  0.00    +0.310 C 
BRANCH  26   3
ATOM      3  O   UNL     1      -6.070   2.389  26.637  0.00  0.00    -0.468 OA
ATOM     27  C   UNL     1      -6.772   1.401  27.399  0.00  0.00    +0.280 C 
ENDBRANCH  26   3
ENDBRANCH  19  26
ENDBRANCH  12  14
ENDBRANCH   7  12
TORSDOF 6
ENDMDL
MODEL 3
REMARK VINA RESULT:      -0.7      2.379      7.099
REMARK  Name = 11912447
REMARK  11 active torsions:
REMARK  status: ('A' for Active; 'I' for Inactive)
REMARK    1  A    between atoms: O_3  and  C_26
REMARK    2  A    between atoms: O_3  and  C_27
REMARK    3  A    between atoms: C_7  and  C_12
REMARK    4  A    between atoms: C_8  and  C_13
REMARK    5  A    between atoms: C_12  and  C_14
REMARK    6  A    between atoms: C_13  and  C_20
REMARK    7  A    between atoms: C_15  and  C_16
REMARK    8  A    between atoms: C_16  and  C_23
REMARK    9  A    between atoms: C_16  and  C_24
REMARK   10  A    between atoms: C_16  and  C_25
REMARK   11  A    between atoms: C_19  and  C_26
REMARK                            x       y       z     vdW  Elec       q    Type
REMARK                         _______ _______ _______ _____ _____    ______ ____
ROOT
ATOM      2  O   UNL     1      -5.874   2.463  26.475  0.00  0.00    -0.275 OA
ATOM      5  N   UNL     1      -3.923   1.881  25.354  0.00  0.00    -0.301 N 
ATOM      7  C   UNL     1      -2.647  -0.197  23.733  0.00  0.00    +0.004 C 
ATOM      8  C   UNL     1      -3.878  -0.488  24.628  0.00  0.00    +0.010 C 
ATOM      9  C   UNL     1      -2.653   1.288  23.323  0.00  0.00    +0.023 C 
ATOM     10  C   UNL     1      -3.965   0.489  25.810  0.00  0.00    +0.111 C 
ATOM     11  C   UNL     1      -2.766   2.227  24.521  0.00  0.00    +0.108 C 
ATOM     15  C   UNL     1      -4.907   2.776  25.774  0.00  0.00    +0.221 C 
ENDROOT
BRANCH  15  16
ATOM     16  C   UNL     1      -4.755   4.208  25.328  0.00  0.00    +0.039 C 
ATOM     23  C   UNL     1      -3.633   4.840  26.154  0.00  0.00    +0.020 C 
ATOM     24  C   UNL     1      -6.075   4.942  25.569  0.00  0.00    +0.020 C 
ATOM     25  C   UNL     1      -4.400   4.227  23.841  0.00  0.00    +0.020 C 
ENDBRANCH  15  16
BRANCH   8  13
ATOM     13  C   UNL     1      -3.931  -1.934  25.119  0.00  0.00    +0.002 C 
ATOM     20  C   UNL     1      -3.887  -2.907  23.961  0.00  0.00    +0.004 C 
ENDBRANCH   8  13
BRANCH   7  12
ATOM     12  C   UNL     1      -1.307  -0.584  24.369  0.00  0.00    +0.100 C 
BRANCH  12  14
ATOM      1  O   UNL     1      -0.565  -2.321  22.938  0.00  0.00    -0.276 OA
ATOM      6  N   UNL     1       0.627  -0.329  22.853  0.00  0.00    -0.301 N 
ATOM     14  C   UNL     1      -0.388  -1.163  23.323  0.00  0.00    +0.216 C 
ATOM     17  C   UNL     1       1.536  -0.805  21.807  0.00  0.00    +0.108 C 
ATOM     18  C   UNL     1       0.863   1.052  23.290  0.00  0.00    +0.108 C 
ATOM     19  C   UNL     1       3.298   0.767  22.691  0.00  0.00    +0.101 C 
ATOM     21  C   UNL     1       2.991  -0.665  22.247  0.00  0.00    +0.033 C 
ATOM     22  C   UNL     1       2.305   1.230  23.761  0.00  0.00    +0.033 C 
BRANCH  19  26
ATOM      4  O   UNL     1       5.205   1.845  23.687  0.00  0.00    -0.251 OA
ATOM     26  C   UNL     1       4.696   0.834  23.224  0.00  0.00    +0.310 C 
BRANCH  26   3
ATOM      3  O   UNL     1       5.287  -0.390  23.107  0.00  0.00    -0.468 OA
ATOM     27  C   UNL     1       5.773  -0.957  24.328  0.00  0.00    +0.280 C 
ENDBRANCH  26   3
ENDBRANCH  19  26
ENDBRANCH  12  14
ENDBRANCH   7  12
TORSDOF 6
ENDMDL
MODEL 4
REMARK VINA RESULT:      -0.3      1.848      5.028
REMARK  Name = 11912447
REMARK  11 active torsions:
REMARK  status: ('A' for Active; 'I' for Inactive)
REMARK    1  A    between atoms: O_3  and  C_26
REMARK    2  A    between atoms: O_3  and  C_27
REMARK    3  A    between atoms: C_7  and  C_12
REMARK    4  A    between atoms: C_8  and  C_13
REMARK    5  A    between atoms: C_12  and  C_14
REMARK    6  A    between atoms: C_13  and  C_20
REMARK    7  A    between atoms: C_15  and  C_16
REMARK    8  A    between atoms: C_16  and  C_23
REMARK    9  A    between atoms: C_16  and  C_24
REMARK   10  A    between atoms: C_16  and  C_25
REMARK   11  A    between atoms: C_19  and  C_26
REMARK                            x       y       z     vdW  Elec       q    Type
REMARK                         _______ _______ _______ _____ _____    ______ ____
ROOT
ATOM      2  O   UNL     1      -6.402   1.566  25.820  0.00  0.00    -0.275 OA
ATOM      5  N   UNL     1      -4.269   1.059  25.048  0.00  0.00    -0.301 N 
ATOM      7  C   UNL     1      -2.729  -0.771  23.358  0.00  0.00    +0.004 C 
ATOM      8  C   UNL     1      -4.137  -1.130  23.894  0.00  0.00    +0.010 C 
ATOM      9  C   UNL     1      -2.596   0.760  23.258  0.00  0.00    +0.023 C 
ATOM     10  C   UNL     1      -4.456  -0.387  25.200  0.00  0.00    +0.111 C 
ATOM     11  C   UNL     1      -2.944   1.466  24.567  0.00  0.00    +0.108 C 
ATOM     15  C   UNL     1      -5.293   1.931  25.417  0.00  0.00    +0.221 C 
ENDROOT
BRANCH  15  16
ATOM     16  C   UNL     1      -4.999   3.406  25.307  0.00  0.00    +0.039 C 
ATOM     23  C   UNL     1      -3.933   3.751  26.348  0.00  0.00    +0.020 C 
ATOM     24  C   UNL     1      -6.286   4.186  25.579  0.00  0.00    +0.020 C 
ATOM     25  C   UNL     1      -4.486   3.702  23.896  0.00  0.00    +0.020 C 
ENDBRANCH  15  16
BRANCH   8  13
ATOM     13  C   UNL     1      -4.346  -2.635  24.067  0.00  0.00    +0.002 C 
ATOM     20  C   UNL     1      -3.531  -3.169  25.225  0.00  0.00    +0.004 C 
ENDBRANCH   8  13
BRANCH   7  12
ATOM     12  C   UNL     1      -1.578  -1.369  24.176  0.00  0.00    +0.100 C 
BRANCH  12  14
ATOM      1  O   UNL     1      -1.783  -0.757  26.456  0.00  0.00    -0.276 OA
ATOM      6  N   UNL     1      -0.428   0.594  25.138  0.00  0.00    -0.301 N 
ATOM     14  C   UNL     1      -1.277  -0.490  25.363  0.00  0.00    +0.216 C 
ATOM     17  C   UNL     1      -0.056   1.472  26.251  0.00  0.00    +0.108 C 
ATOM     18  C   UNL     1       0.189   0.938  23.851  0.00  0.00    +0.108 C 
ATOM     19  C   UNL     1       0.272   3.347  24.597  0.00  0.00    +0.101 C 
ATOM     21  C   UNL     1      -0.371   2.929  25.922  0.00  0.00    +0.033 C 
ATOM     22  C   UNL     1      -0.121   2.385  23.473  0.00  0.00    +0.033 C 
BRANCH  19  26
ATOM      4  O   UNL     1       0.130   5.309  23.209  0.00  0.00    -0.251 OA
ATOM     26  C   UNL     1      -0.157   4.740  24.254  0.00  0.00    +0.310 C 
BRANCH  26   3
ATOM      3  O   UNL     1      -0.900   5.254  25.276  0.00  0.00    -0.468 OA
ATOM     27  C   UNL     1      -1.955   6.139  24.886  0.00  0.00    +0.280 C 
ENDBRANCH  26   3
ENDBRANCH  19  26
ENDBRANCH  12  14
ENDBRANCH   7  12
TORSDOF 6
ENDMDL
MODEL 5
REMARK VINA RESULT:      -0.2      2.886      7.278
REMARK  Name = 11912447
REMARK  11 active torsions:
REMARK  status: ('A' for Active; 'I' for Inactive)
REMARK    1  A    between atoms: O_3  and  C_26
REMARK    2  A    between atoms: O_3  and  C_27
REMARK    3  A    between atoms: C_7  and  C_12
REMARK    4  A    between atoms: C_8  and  C_13
REMARK    5  A    between atoms: C_12  and  C_14
REMARK    6  A    between atoms: C_13  and  C_20
REMARK    7  A    between atoms: C_15  and  C_16
REMARK    8  A    between atoms: C_16  and  C_23
REMARK    9  A    between atoms: C_16  and  C_24
REMARK   10  A    between atoms: C_16  and  C_25
REMARK   11  A    between atoms: C_19  and  C_26
REMARK                            x       y       z     vdW  Elec       q    Type
REMARK                         _______ _______ _______ _____ _____    ______ ____
ROOT
ATOM      2  O   UNL     1      -5.151   3.928  25.462  0.00  0.00    -0.275 OA
ATOM      5  N   UNL     1      -3.598   2.297  24.888  0.00  0.00    -0.301 N 
ATOM      7  C   UNL     1      -0.796   1.491  25.152  0.00  0.00    +0.004 C 
ATOM      8  C   UNL     1      -1.260   2.951  25.384  0.00  0.00    +0.010 C 
ATOM      9  C   UNL     1      -1.964   0.531  25.440  0.00  0.00    +0.023 C 
ATOM     10  C   UNL     1      -2.542   3.271  24.600  0.00  0.00    +0.111 C 
ATOM     11  C   UNL     1      -3.228   0.895  24.663  0.00  0.00    +0.108 C 
ATOM     15  C   UNL     1      -4.861   2.742  25.278  0.00  0.00    +0.221 C 
ENDROOT
BRANCH  15  16
ATOM     16  C   UNL     1      -5.918   1.687  25.480  0.00  0.00    +0.039 C 
ATOM     23  C   UNL     1      -6.981   1.872  24.395  0.00  0.00    +0.020 C 
ATOM     24  C   UNL     1      -6.535   1.866  26.869  0.00  0.00    +0.020 C 
ATOM     25  C   UNL     1      -5.268   0.307  25.362  0.00  0.00    +0.020 C 
ENDBRANCH  15  16
BRANCH   8  13
ATOM     13  C   UNL     1      -0.172   3.981  25.079  0.00  0.00    +0.002 C 
ATOM     20  C   UNL     1      -0.774   5.328  24.741  0.00  0.00    +0.004 C 
ENDBRANCH   8  13
BRANCH   7  12
ATOM     12  C   UNL     1      -0.208   1.237  23.759  0.00  0.00    +0.100 C 
BRANCH  12  14
ATOM      1  O   UNL     1      -0.020  -1.070  24.266  0.00  0.00    -0.276 OA
ATOM      6  N   UNL     1       1.751  -0.118  23.102  0.00  0.00    -0.301 N 
ATOM     14  C   UNL     1       0.508  -0.090  23.735  0.00  0.00    +0.216 C 
ATOM     17  C   UNL     1       2.490  -1.379  23.002  0.00  0.00    +0.108 C 
ATOM     18  C   UNL     1       2.404   1.030  22.461  0.00  0.00    +0.108 C 
ATOM     19  C   UNL     1       4.635  -0.057  22.917  0.00  0.00    +0.101 C 
ATOM     21  C   UNL     1       3.899  -1.229  23.571  0.00  0.00    +0.033 C 
ATOM     22  C   UNL     1       3.812   1.230  23.020  0.00  0.00    +0.033 C 
BRANCH  19  26
ATOM      4  O   UNL     1       6.143   0.826  24.573  0.00  0.00    -0.251 OA
ATOM     26  C   UNL     1       5.964   0.129  23.583  0.00  0.00    +0.310 C 
BRANCH  26   3
ATOM      3  O   UNL     1       6.913  -0.590  22.917  0.00  0.00    -0.468 OA
ATOM     27  C   UNL     1       8.266  -0.178  23.140  0.00  0.00    +0.280 C 
ENDBRANCH  26   3
ENDBRANCH  19  26
ENDBRANCH  12  14
ENDBRANCH   7  12
TORSDOF 6
ENDMDL
MODEL 6
REMARK VINA RESULT:       0.6      1.876      4.985
REMARK  Name = 11912447
REMARK  11 active torsions:
REMARK  status: ('A' for Active; 'I' for Inactive)
REMARK    1  A    between atoms: O_3  and  C_26
REMARK    2  A    between atoms: O_3  and  C_27
REMARK    3  A    between atoms: C_7  and  C_12
REMARK    4  A    between atoms: C_8  and  C_13
REMARK    5  A    between atoms: C_12  and  C_14
REMARK    6  A    between atoms: C_13  and  C_20
REMARK    7  A    between atoms: C_15  and  C_16
REMARK    8  A    between atoms: C_16  and  C_23
REMARK    9  A    between atoms: C_16  and  C_24
REMARK   10  A    between atoms: C_16  and  C_25
REMARK   11  A    between atoms: C_19  and  C_26
REMARK                            x       y       z     vdW  Elec       q    Type
REMARK                         _______ _______ _______ _____ _____    ______ ____
ROOT
ATOM      2  O   UNL     1      -2.889  -0.778  22.550  0.00  0.00    -0.275 OA
ATOM      5  N   UNL     1      -3.511   0.437  24.432  0.00  0.00    -0.301 N 
ATOM      7  C   UNL     1      -4.987   2.790  25.356  0.00  0.00    +0.004 C 
ATOM      8  C   UNL     1      -4.502   2.643  23.892  0.00  0.00    +0.010 C 
ATOM      9  C   UNL     1      -5.185   1.393  25.972  0.00  0.00    +0.023 C 
ATOM     10  C   UNL     1      -3.269   1.732  23.791  0.00  0.00    +0.111 C 
ATOM     11  C   UNL     1      -3.948   0.508  25.830  0.00  0.00    +0.108 C 
ATOM     15  C   UNL     1      -3.257  -0.741  23.728  0.00  0.00    +0.221 C 
ENDROOT
BRANCH  15  16
ATOM     16  C   UNL     1      -3.453  -2.034  24.479  0.00  0.00    +0.039 C 
ATOM     23  C   UNL     1      -2.201  -2.888  24.277  0.00  0.00    +0.020 C 
ATOM     24  C   UNL     1      -4.684  -2.747  23.917  0.00  0.00    +0.020 C 
ATOM     25  C   UNL     1      -3.653  -1.718  25.962  0.00  0.00    +0.020 C 
ENDBRANCH  15  16
BRANCH   8  13
ATOM     13  C   UNL     1      -4.237   3.985  23.212  0.00  0.00    +0.002 C 
ATOM     20  C   UNL     1      -3.897   3.798  21.749  0.00  0.00    +0.004 C 
ENDBRANCH   8  13
BRANCH   7  12
ATOM     12  C   UNL     1      -4.070   3.651  26.234  0.00  0.00    +0.100 C 
BRANCH  12  14
ATOM      1  O   UNL     1      -3.308   5.262  24.673  0.00  0.00    -0.276 OA
ATOM      6  N   UNL     1      -1.724   3.760  25.468  0.00  0.00    -0.301 N 
ATOM     14  C   UNL     1      -3.007   4.302  25.386  0.00  0.00    +0.216 C 
ATOM     17  C   UNL     1      -0.628   4.362  24.705  0.00  0.00    +0.108 C 
ATOM     18  C   UNL     1      -1.335   2.620  26.308  0.00  0.00    +0.108 C 
ATOM     19  C   UNL     1       0.516   2.115  24.669  0.00  0.00    +0.101 C 
ATOM     21  C   UNL     1       0.066   3.318  23.835  0.00  0.00    +0.033 C 
ATOM     22  C   UNL     1      -0.655   1.539  25.469  0.00  0.00    +0.033 C 
BRANCH  19  26
ATOM      4  O   UNL     1       0.464   0.084  23.379  0.00  0.00    -0.251 OA
ATOM     26  C   UNL     1       1.084   1.067  23.763  0.00  0.00    +0.310 C 
BRANCH  26   3
ATOM      3  O   UNL     1       2.372   1.384  23.449  0.00  0.00    -0.468 OA
ATOM     27  C   UNL     1       3.051   0.444  22.609  0.00  0.00    +0.280 C 
ENDBRANCH  26   3
ENDBRANCH  19  26
ENDBRANCH  12  14
ENDBRANCH   7  12
TORSDOF 6
ENDMDL
