MODEL 1
REMARK VINA RESULT:       2.7      0.000      0.000
REMARK  Name = 51137477
REMARK  8 active torsions:
REMARK  status: ('A' for Active; 'I' for Inactive)
REMARK    1  A    between atoms: O_2  and  C_22
REMARK    2  A    between atoms: O_2  and  C_29
REMARK    3  A    between atoms: N_4  and  C_12
REMARK    4  A    between atoms: N_7  and  C_21
REMARK    5  A    between atoms: C_8  and  C_13
REMARK    6  A    between atoms: C_12  and  C_14
REMARK    7  A    between atoms: C_17  and  C_20
REMARK    8  A    between atoms: C_27  and  C_28
REMARK                            x       y       z     vdW  Elec       q    Type
REMARK                         _______ _______ _______ _____ _____    ______ ____
ROOT
ATOM      4  N   UNL     1      -2.962  -1.491  24.252  0.00  0.00    -0.297 NA
ATOM      8  C   UNL     1      -4.635  -0.311  25.458  0.00  0.00    +0.092 C 
ATOM      9  C   UNL     1      -5.213  -0.952  24.187  0.00  0.00    +0.029 C 
ATOM     10  C   UNL     1      -3.194  -0.847  25.548  0.00  0.00    +0.097 C 
ATOM     11  C   UNL     1      -4.244  -2.077  23.865  0.00  0.00    +0.085 C 
ENDROOT
BRANCH   8  13
ATOM      1  O   UNL     1      -3.625   1.900  25.153  0.00  0.00    -0.420 OA
ATOM      5  N   UNL     1      -5.791   1.956  25.709  0.00  0.00    -0.112 NA
ATOM      6  N   UNL     1      -5.353   3.259  25.569  0.00  0.00    -0.107 NA
ATOM     13  C   UNL     1      -4.750   1.197  25.457  0.00  0.00    +0.222 A 
ATOM     17  C   UNL     1      -4.083   3.178  25.245  0.00  0.00    +0.252 A 
BRANCH  17  20
ATOM     20  C   UNL     1      -3.123   4.209  24.977  0.00  0.00    +0.080 A 
ATOM     22  C   UNL     1      -1.808   4.098  25.426  0.00  0.00    +0.132 A 
ATOM     23  C   UNL     1      -3.521   5.337  24.257  0.00  0.00    +0.017 A 
ATOM     24  C   UNL     1      -0.889   5.112  25.157  0.00  0.00    +0.046 A 
ATOM     25  C   UNL     1      -2.602   6.352  23.989  0.00  0.00    +0.001 A 
ATOM     26  C   UNL     1      -1.286   6.239  24.437  0.00  0.00    +0.004 A 
BRANCH  22   2
ATOM      2  O   UNL     1      -1.391   3.007  26.132  0.00  0.00    -0.494 OA
ATOM     29  C   UNL     1      -0.202   2.362  25.682  0.00  0.00    +0.277 C 
ENDBRANCH  22   2
ENDBRANCH  17  20
ENDBRANCH   8  13
BRANCH   4  12
ATOM     12  C   UNL     1      -1.890  -2.473  24.300  0.00  0.00    +0.119 C 
BRANCH  12  14
ATOM     14  C   UNL     1      -0.543  -1.846  24.058  0.00  0.00    -0.033 A 
ATOM     15  C   UNL     1      -0.397  -0.867  23.075  0.00  0.00    +0.007 A 
ATOM     16  C   UNL     1       0.558  -2.244  24.817  0.00  0.00    +0.007 A 
ATOM     18  C   UNL     1       0.851  -0.286  22.850  0.00  0.00    +0.023 A 
ATOM     19  C   UNL     1       1.806  -1.662  24.592  0.00  0.00    +0.023 A 
ATOM     21  C   UNL     1       1.952  -0.683  23.610  0.00  0.00    +0.033 A 
BRANCH  21   7
ATOM      3  O   UNL     1       4.725  -1.785  24.021  0.00  0.00    -0.276 OA
ATOM      7  N   UNL     1       3.201  -0.101  23.385  0.00  0.00    -0.286 N 
ATOM     27  C   UNL     1       4.467  -0.664  23.597  0.00  0.00    +0.214 C 
ATOM     28  C   UNL     1       5.572   0.295  23.229  0.00  0.00    +0.109 C 
ATOM     30  H   UNL     1       3.178   0.849  23.022  0.00  0.00    +0.155 HD
ENDBRANCH  21   7
ENDBRANCH  12  14
ENDBRANCH   4  12
TORSDOF 6
ENDMDL
MODEL 2
REMARK VINA RESULT:       3.4      2.059      5.396
REMARK  Name = 51137477
REMARK  8 active torsions:
REMARK  status: ('A' for Active; 'I' for Inactive)
REMARK    1  A    between atoms: O_2  and  C_22
REMARK    2  A    between atoms: O_2  and  C_29
REMARK    3  A    between atoms: N_4  and  C_12
REMARK    4  A    between atoms: N_7  and  C_21
REMARK    5  A    between atoms: C_8  and  C_13
REMARK    6  A    between atoms: C_12  and  C_14
REMARK    7  A    between atoms: C_17  and  C_20
REMARK    8  A    between atoms: C_27  and  C_28
REMARK                            x       y       z     vdW  Elec       q    Type
REMARK                         _______ _______ _______ _____ _____    ______ ____
ROOT
ATOM      4  N   UNL     1      -2.990   4.191  25.718  0.00  0.00    -0.297 NA
ATOM      8  C   UNL     1      -4.980   3.466  24.642  0.00  0.00    +0.092 C 
ATOM      9  C   UNL     1      -5.290   4.156  25.980  0.00  0.00    +0.029 C 
ATOM     10  C   UNL     1      -3.470   3.677  24.432  0.00  0.00    +0.097 C 
ATOM     11  C   UNL     1      -4.071   5.024  26.240  0.00  0.00    +0.085 C 
ENDROOT
BRANCH   8  13
ATOM      1  O   UNL     1      -4.455   1.078  24.489  0.00  0.00    -0.420 OA
ATOM      5  N   UNL     1      -6.639   1.520  24.686  0.00  0.00    -0.112 NA
ATOM      6  N   UNL     1      -6.486   0.148  24.610  0.00  0.00    -0.107 NA
ATOM     13  C   UNL     1      -5.428   2.022  24.611  0.00  0.00    +0.222 A 
ATOM     17  C   UNL     1      -5.196  -0.063  24.495  0.00  0.00    +0.252 A 
BRANCH  17  20
ATOM     20  C   UNL     1      -4.460  -1.289  24.379  0.00  0.00    +0.080 A 
ATOM     22  C   UNL     1      -3.279  -1.486  25.093  0.00  0.00    +0.132 A 
ATOM     23  C   UNL     1      -4.941  -2.292  23.536  0.00  0.00    +0.017 A 
ATOM     24  C   UNL     1      -2.577  -2.684  24.965  0.00  0.00    +0.046 A 
ATOM     25  C   UNL     1      -4.238  -3.490  23.407  0.00  0.00    +0.001 A 
ATOM     26  C   UNL     1      -3.057  -3.687  24.122  0.00  0.00    +0.004 A 
BRANCH  22   2
ATOM      2  O   UNL     1      -2.785  -0.523  25.924  0.00  0.00    -0.494 OA
ATOM     29  C   UNL     1      -1.369  -0.467  26.080  0.00  0.00    +0.277 C 
ENDBRANCH  22   2
ENDBRANCH  17  20
ENDBRANCH   8  13
BRANCH   4  12
ATOM     12  C   UNL     1      -1.734   4.916  25.597  0.00  0.00    +0.119 C 
BRANCH  12  14
ATOM     14  C   UNL     1      -0.642   4.054  25.023  0.00  0.00    -0.033 A 
ATOM     15  C   UNL     1      -0.219   2.915  25.709  0.00  0.00    +0.007 A 
ATOM     16  C   UNL     1      -0.053   4.393  23.804  0.00  0.00    +0.007 A 
ATOM     18  C   UNL     1       0.793   2.116  25.177  0.00  0.00    +0.023 A 
ATOM     19  C   UNL     1       0.959   3.594  23.273  0.00  0.00    +0.023 A 
ATOM     21  C   UNL     1       1.381   2.455  23.959  0.00  0.00    +0.033 A 
BRANCH  21   7
ATOM      3  O   UNL     1       1.243  -0.234  22.610  0.00  0.00    -0.276 OA
ATOM      7  N   UNL     1       2.394   1.656  23.427  0.00  0.00    -0.286 N 
ATOM     27  C   UNL     1       2.272   0.404  22.808  0.00  0.00    +0.214 C 
ATOM     28  C   UNL     1       3.610  -0.134  22.367  0.00  0.00    +0.109 C 
ATOM     30  H   UNL     1       3.334   2.038  23.501  0.00  0.00    +0.155 HD
ENDBRANCH  21   7
ENDBRANCH  12  14
ENDBRANCH   4  12
TORSDOF 6
ENDMDL
MODEL 3
REMARK VINA RESULT:       4.2      2.218      4.127
REMARK  Name = 51137477
REMARK  8 active torsions:
REMARK  status: ('A' for Active; 'I' for Inactive)
REMARK    1  A    between atoms: O_2  and  C_22
REMARK    2  A    between atoms: O_2  and  C_29
REMARK    3  A    between atoms: N_4  and  C_12
REMARK    4  A    between atoms: N_7  and  C_21
REMARK    5  A    between atoms: C_8  and  C_13
REMARK    6  A    between atoms: C_12  and  C_14
REMARK    7  A    between atoms: C_17  and  C_20
REMARK    8  A    between atoms: C_27  and  C_28
REMARK                            x       y       z     vdW  Elec       q    Type
REMARK                         _______ _______ _______ _____ _____    ______ ____
ROOT
ATOM      4  N   UNL     1       0.460  -0.009  23.254  0.00  0.00    -0.297 NA
ATOM      8  C   UNL     1       0.177   1.319  25.204  0.00  0.00    +0.092 C 
ATOM      9  C   UNL     1      -0.456  -0.071  25.380  0.00  0.00    +0.029 C 
ATOM     10  C   UNL     1       0.923   1.243  23.859  0.00  0.00    +0.097 C 
ATOM     11  C   UNL     1       0.268  -0.939  24.365  0.00  0.00    +0.085 C 
ENDROOT
BRANCH   8  13
ATOM      1  O   UNL     1      -2.147   2.083  25.319  0.00  0.00    -0.420 OA
ATOM      5  N   UNL     1      -0.640   3.735  25.384  0.00  0.00    -0.112 NA
ATOM      6  N   UNL     1      -1.898   4.302  25.456  0.00  0.00    -0.107 NA
ATOM     13  C   UNL     1      -0.833   2.439  25.305  0.00  0.00    +0.222 A 
ATOM     17  C   UNL     1      -2.746   3.300  25.414  0.00  0.00    +0.252 A 
BRANCH  17  20
ATOM     20  C   UNL     1      -4.180   3.293  25.454  0.00  0.00    +0.080 A 
ATOM     22  C   UNL     1      -4.891   2.093  25.427  0.00  0.00    +0.132 A 
ATOM     23  C   UNL     1      -4.864   4.506  25.520  0.00  0.00    +0.017 A 
ATOM     24  C   UNL     1      -6.285   2.106  25.464  0.00  0.00    +0.046 A 
ATOM     25  C   UNL     1      -6.259   4.520  25.556  0.00  0.00    +0.001 A 
ATOM     26  C   UNL     1      -6.969   3.320  25.530  0.00  0.00    +0.004 A 
BRANCH  22   2
ATOM      2  O   UNL     1      -4.248   0.891  25.363  0.00  0.00    -0.494 OA
ATOM     29  C   UNL     1      -4.595   0.030  24.281  0.00  0.00    +0.277 C 
ENDBRANCH  22   2
ENDBRANCH  17  20
ENDBRANCH   8  13
BRANCH   4  12
ATOM     12  C   UNL     1       1.382  -0.520  22.251  0.00  0.00    +0.119 C 
BRANCH  12  14
ATOM     14  C   UNL     1       2.819  -0.324  22.658  0.00  0.00    -0.033 A 
ATOM     15  C   UNL     1       3.492   0.844  22.299  0.00  0.00    +0.007 A 
ATOM     16  C   UNL     1       3.475  -1.310  23.395  0.00  0.00    +0.007 A 
ATOM     18  C   UNL     1       4.822   1.025  22.676  0.00  0.00    +0.023 A 
ATOM     19  C   UNL     1       4.806  -1.128  23.772  0.00  0.00    +0.023 A 
ATOM     21  C   UNL     1       5.479   0.039  23.413  0.00  0.00    +0.033 A 
BRANCH  21   7
ATOM      3  O   UNL     1       8.021  -1.002  22.179  0.00  0.00    -0.276 OA
ATOM      7  N   UNL     1       6.810   0.221  23.791  0.00  0.00    -0.286 N 
ATOM     27  C   UNL     1       7.961  -0.292  23.177  0.00  0.00    +0.214 C 
ATOM     28  C   UNL     1       9.215   0.138  23.895  0.00  0.00    +0.109 C 
ATOM     30  H   UNL     1       6.952   0.801  24.615  0.00  0.00    +0.155 HD
ENDBRANCH  21   7
ENDBRANCH  12  14
ENDBRANCH   4  12
TORSDOF 6
ENDMDL
MODEL 4
REMARK VINA RESULT:       4.4      1.875      5.044
REMARK  Name = 51137477
REMARK  8 active torsions:
REMARK  status: ('A' for Active; 'I' for Inactive)
REMARK    1  A    between atoms: O_2  and  C_22
REMARK    2  A    between atoms: O_2  and  C_29
REMARK    3  A    between atoms: N_4  and  C_12
REMARK    4  A    between atoms: N_7  and  C_21
REMARK    5  A    between atoms: C_8  and  C_13
REMARK    6  A    between atoms: C_12  and  C_14
REMARK    7  A    between atoms: C_17  and  C_20
REMARK    8  A    between atoms: C_27  and  C_28
REMARK                            x       y       z     vdW  Elec       q    Type
REMARK                         _______ _______ _______ _____ _____    ______ ____
ROOT
ATOM      4  N   UNL     1      -1.031   3.587  24.415  0.00  0.00    -0.297 NA
ATOM      8  C   UNL     1      -3.400   3.549  24.232  0.00  0.00    +0.092 C 
ATOM      9  C   UNL     1      -2.953   4.256  25.521  0.00  0.00    +0.029 C 
ATOM     10  C   UNL     1      -2.097   3.290  23.454  0.00  0.00    +0.097 C 
ATOM     11  C   UNL     1      -1.528   4.696  25.227  0.00  0.00    +0.085 C 
ENDROOT
BRANCH   8  13
ATOM      1  O   UNL     1      -3.626   1.112  24.317  0.00  0.00    -0.420 OA
ATOM      5  N   UNL     1      -5.482   2.220  24.893  0.00  0.00    -0.112 NA
ATOM      6  N   UNL     1      -5.748   0.867  24.984  0.00  0.00    -0.107 NA
ATOM     13  C   UNL     1      -4.233   2.316  24.500  0.00  0.00    +0.222 A 
ATOM     17  C   UNL     1      -4.636   0.259  24.638  0.00  0.00    +0.252 A 
BRANCH  17  20
ATOM     20  C   UNL     1      -4.329  -1.139  24.550  0.00  0.00    +0.080 A 
ATOM     22  C   UNL     1      -3.416  -1.729  25.424  0.00  0.00    +0.132 A 
ATOM     23  C   UNL     1      -4.956  -1.912  23.573  0.00  0.00    +0.017 A 
ATOM     24  C   UNL     1      -3.129  -3.089  25.321  0.00  0.00    +0.046 A 
ATOM     25  C   UNL     1      -4.669  -3.274  23.469  0.00  0.00    +0.001 A 
ATOM     26  C   UNL     1      -3.756  -3.862  24.344  0.00  0.00    +0.004 A 
BRANCH  22   2
ATOM      2  O   UNL     1      -2.788  -0.997  26.389  0.00  0.00    -0.494 OA
ATOM     29  C   UNL     1      -1.413  -0.689  26.174  0.00  0.00    +0.277 C 
ENDBRANCH  22   2
ENDBRANCH  17  20
ENDBRANCH   8  13
BRANCH   4  12
ATOM     12  C   UNL     1       0.236   3.892  23.768  0.00  0.00    +0.119 C 
BRANCH  12  14
ATOM     14  C   UNL     1       1.098   2.667  23.618  0.00  0.00    -0.033 A 
ATOM     15  C   UNL     1       2.380   2.779  23.079  0.00  0.00    +0.007 A 
ATOM     16  C   UNL     1       0.615   1.421  24.018  0.00  0.00    +0.007 A 
ATOM     18  C   UNL     1       3.179   1.645  22.939  0.00  0.00    +0.023 A 
ATOM     19  C   UNL     1       1.415   0.287  23.877  0.00  0.00    +0.023 A 
ATOM     21  C   UNL     1       2.696   0.398  23.339  0.00  0.00    +0.033 A 
BRANCH  21   7
ATOM      3  O   UNL     1       5.365  -0.275  24.560  0.00  0.00    -0.276 OA
ATOM      7  N   UNL     1       3.496  -0.737  23.200  0.00  0.00    -0.286 N 
ATOM     27  C   UNL     1       4.738  -0.998  23.794  0.00  0.00    +0.214 C 
ATOM     28  C   UNL     1       5.280  -2.345  23.388  0.00  0.00    +0.109 C 
ATOM     30  H   UNL     1       3.121  -1.460  22.589  0.00  0.00    +0.155 HD
ENDBRANCH  21   7
ENDBRANCH  12  14
ENDBRANCH   4  12
TORSDOF 6
ENDMDL
MODEL 5
REMARK VINA RESULT:       6.1      1.955      6.705
REMARK  Name = 51137477
REMARK  8 active torsions:
REMARK  status: ('A' for Active; 'I' for Inactive)
REMARK    1  A    between atoms: O_2  and  C_22
REMARK    2  A    between atoms: O_2  and  C_29
REMARK    3  A    between atoms: N_4  and  C_12
REMARK    4  A    between atoms: N_7  and  C_21
REMARK    5  A    between atoms: C_8  and  C_13
REMARK    6  A    between atoms: C_12  and  C_14
REMARK    7  A    between atoms: C_17  and  C_20
REMARK    8  A    between atoms: C_27  and  C_28
REMARK                            x       y       z     vdW  Elec       q    Type
REMARK                         _______ _______ _______ _____ _____    ______ ____
ROOT
ATOM      4  N   UNL     1      -3.948  -1.131  24.937  0.00  0.00    -0.297 NA
ATOM      8  C   UNL     1      -2.165  -2.199  23.785  0.00  0.00    +0.092 C 
ATOM      9  C   UNL     1      -3.018  -3.218  24.556  0.00  0.00    +0.029 C 
ATOM     10  C   UNL     1      -2.924  -0.867  23.921  0.00  0.00    +0.097 C 
ATOM     11  C   UNL     1      -4.356  -2.520  24.736  0.00  0.00    +0.085 C 
ENDROOT
BRANCH   8  13
ATOM      1  O   UNL     1       0.120  -1.339  23.586  0.00  0.00    -0.420 OA
ATOM      5  N   UNL     1      -0.157  -2.812  25.246  0.00  0.00    -0.112 NA
ATOM      6  N   UNL     1       1.165  -2.412  25.248  0.00  0.00    -0.107 NA
ATOM     13  C   UNL     1      -0.729  -2.161  24.260  0.00  0.00    +0.222 A 
ATOM     17  C   UNL     1       1.281  -1.552  24.262  0.00  0.00    +0.252 A 
BRANCH  17  20
ATOM     20  C   UNL     1       2.422  -0.817  23.798  0.00  0.00    +0.080 A 
ATOM     22  C   UNL     1       2.280   0.464  23.265  0.00  0.00    +0.132 A 
ATOM     23  C   UNL     1       3.687  -1.400  23.883  0.00  0.00    +0.017 A 
ATOM     24  C   UNL     1       3.401   1.162  22.816  0.00  0.00    +0.046 A 
ATOM     25  C   UNL     1       4.808  -0.703  23.434  0.00  0.00    +0.001 A 
ATOM     26  C   UNL     1       4.666   0.579  22.902  0.00  0.00    +0.004 A 
BRANCH  22   2
ATOM      2  O   UNL     1       1.056   1.058  23.169  0.00  0.00    -0.494 OA
ATOM     29  C   UNL     1       0.648   1.877  24.262  0.00  0.00    +0.277 C 
ENDBRANCH  22   2
ENDBRANCH  17  20
ENDBRANCH   8  13
BRANCH   4  12
ATOM     12  C   UNL     1      -5.066  -0.203  24.859  0.00  0.00    +0.119 C 
BRANCH  12  14
ATOM     14  C   UNL     1      -4.603   1.229  24.807  0.00  0.00    -0.033 A 
ATOM     15  C   UNL     1      -5.164   2.174  25.667  0.00  0.00    +0.007 A 
ATOM     16  C   UNL     1      -3.613   1.610  23.901  0.00  0.00    +0.007 A 
ATOM     18  C   UNL     1      -4.736   3.500  25.619  0.00  0.00    +0.023 A 
ATOM     19  C   UNL     1      -3.186   2.936  23.854  0.00  0.00    +0.023 A 
ATOM     21  C   UNL     1      -3.746   3.881  24.713  0.00  0.00    +0.033 A 
BRANCH  21   7
ATOM      3  O   UNL     1      -1.015   5.071  25.157  0.00  0.00    -0.276 OA
ATOM      7  N   UNL     1      -3.317   5.208  24.665  0.00  0.00    -0.286 N 
ATOM     27  C   UNL     1      -2.026   5.708  24.883  0.00  0.00    +0.214 C 
ATOM     28  C   UNL     1      -1.976   7.208  24.739  0.00  0.00    +0.109 C 
ATOM     30  H   UNL     1      -4.039   5.890  24.443  0.00  0.00    +0.155 HD
ENDBRANCH  21   7
ENDBRANCH  12  14
ENDBRANCH   4  12
TORSDOF 6
ENDMDL
