MODEL 1
REMARK VINA RESULT:       0.4      0.000      0.000
REMARK  Name = 75536429
REMARK  10 active torsions:
REMARK  status: ('A' for Active; 'I' for Inactive)
REMARK    1  A    between atoms: O_2  and  C_13
REMARK    2  A    between atoms: O_6  and  C_28
REMARK    3  A    between atoms: O_6  and  C_33
REMARK    4  A    between atoms: N_7  and  C_17
REMARK    5  A    between atoms: N_8  and  C_20
REMARK    6  A    between atoms: N_10  and  C_27
REMARK    7  A    between atoms: C_11  and  C_16
REMARK    8  A    between atoms: C_12  and  C_17
REMARK    9  A    between atoms: C_16  and  C_18
REMARK   10  A    between atoms: C_20  and  C_21
REMARK                            x       y       z     vdW  Elec       q    Type
REMARK                         _______ _______ _______ _____ _____    ______ ____
ROOT
ATOM      1  O   UNL     1      -2.484   3.183  25.796  0.00  0.00    -0.369 OA
ATOM     11  C   UNL     1      -1.332   3.536  25.026  0.00  0.00    +0.125 C 
ATOM     12  C   UNL     1      -3.653   3.974  25.543  0.00  0.00    +0.164 C 
ATOM     13  C   UNL     1      -3.367   5.469  25.735  0.00  0.00    +0.145 C 
ATOM     14  C   UNL     1      -0.940   4.992  25.278  0.00  0.00    +0.034 C 
ATOM     15  C   UNL     1      -2.115   5.923  24.990  0.00  0.00    +0.036 C 
ENDROOT
BRANCH  13   2
ATOM      2  O   UNL     1      -3.162   5.723  27.127  0.00  0.00    -0.389 OA
ATOM     34  H   UNL     1      -2.271   6.101  27.229  0.00  0.00    +0.210 HD
ENDBRANCH  13   2
BRANCH  11  16
ATOM     16  C   UNL     1      -0.205   2.593  25.428  0.00  0.00    +0.090 C 
BRANCH  16  18
ATOM      3  O   UNL     1      -0.069   0.352  22.610  0.00  0.00    -0.358 OA
ATOM      9  N   UNL     1      -0.760   1.123  23.536  0.00  0.00    -0.083 NA
ATOM     18  C   UNL     1       0.185   1.677  24.301  0.00  0.00    +0.086 A 
ATOM     19  C   UNL     1       1.479   1.295  23.909  0.00  0.00    +0.072 A 
ATOM     21  C   UNL     1       1.264   0.461  22.842  0.00  0.00    +0.151 A 
BRANCH  21  20
ATOM     20  C   UNL     1       2.150  -0.295  21.949  0.00  0.00    +0.161 C 
BRANCH  20   8
ATOM      4  O   UNL     1       5.471  -0.185  24.512  0.00  0.00    -0.377 OA
ATOM      8  N   UNL     1       3.514  -0.415  22.457  0.00  0.00    -0.291 NA
ATOM     22  C   UNL     1       4.029   0.892  22.886  0.00  0.00    +0.113 C 
ATOM     23  C   UNL     1       3.573  -1.369  23.574  0.00  0.00    +0.113 C 
ATOM     24  C   UNL     1       5.448   0.740  23.424  0.00  0.00    +0.175 C 
ATOM     25  C   UNL     1       5.002  -1.468  24.097  0.00  0.00    +0.175 C 
ENDBRANCH  20   8
ENDBRANCH  21  20
ENDBRANCH  16  18
ENDBRANCH  11  16
BRANCH  12  17
ATOM     17  C   UNL     1      -4.250   3.651  24.175  0.00  0.00    +0.140 C 
BRANCH  17   7
ATOM      5  O   UNL     1      -4.739   1.083  25.345  0.00  0.00    -0.253 OA
ATOM      7  N   UNL     1      -3.778   2.388  23.694  0.00  0.00    -0.297 N 
ATOM     10  N   UNL     1      -3.469   0.103  23.632  0.00  0.00    -0.266 N 
ATOM     26  C   UNL     1      -4.060   1.164  24.324  0.00  0.00    +0.304 C 
ATOM     35  H   UNL     1      -3.171   2.382  22.882  0.00  0.00    +0.150 HD
ATOM     36  H   UNL     1      -2.936   0.340  22.799  0.00  0.00    +0.156 HD
BRANCH  10  27
ATOM     27  C   UNL     1      -3.520  -1.275  23.946  0.00  0.00    +0.077 A 
ATOM     28  C   UNL     1      -2.560  -1.851  24.779  0.00  0.00    +0.141 A 
ATOM     29  C   UNL     1      -4.543  -2.060  23.414  0.00  0.00    +0.027 A 
ATOM     30  C   UNL     1      -2.622  -3.211  25.079  0.00  0.00    +0.047 A 
ATOM     31  C   UNL     1      -4.605  -3.422  23.714  0.00  0.00    +0.002 A 
ATOM     32  C   UNL     1      -3.644  -3.997  24.546  0.00  0.00    +0.004 A 
BRANCH  28   6
ATOM      6  O   UNL     1      -1.553  -1.101  25.310  0.00  0.00    -0.493 OA
ATOM     33  C   UNL     1      -0.300  -1.750  25.511  0.00  0.00    +0.277 C 
ENDBRANCH  28   6
ENDBRANCH  10  27
ENDBRANCH  17   7
ENDBRANCH  12  17
TORSDOF 9
ENDMDL
MODEL 2
REMARK VINA RESULT:       0.8      1.811      2.789
REMARK  Name = 75536429
REMARK  10 active torsions:
REMARK  status: ('A' for Active; 'I' for Inactive)
REMARK    1  A    between atoms: O_2  and  C_13
REMARK    2  A    between atoms: O_6  and  C_28
REMARK    3  A    between atoms: O_6  and  C_33
REMARK    4  A    between atoms: N_7  and  C_17
REMARK    5  A    between atoms: N_8  and  C_20
REMARK    6  A    between atoms: N_10  and  C_27
REMARK    7  A    between atoms: C_11  and  C_16
REMARK    8  A    between atoms: C_12  and  C_17
REMARK    9  A    between atoms: C_16  and  C_18
REMARK   10  A    between atoms: C_20  and  C_21
REMARK                            x       y       z     vdW  Elec       q    Type
REMARK                         _______ _______ _______ _____ _____    ______ ____
ROOT
ATOM      1  O   UNL     1      -4.584   3.419  26.509  0.00  0.00    -0.369 OA
ATOM     11  C   UNL     1      -3.482   3.531  25.606  0.00  0.00    +0.125 C 
ATOM     12  C   UNL     1      -5.879   3.409  25.893  0.00  0.00    +0.164 C 
ATOM     13  C   UNL     1      -6.086   4.646  25.010  0.00  0.00    +0.145 C 
ATOM     14  C   UNL     1      -3.587   4.815  24.784  0.00  0.00    +0.034 C 
ATOM     15  C   UNL     1      -4.923   4.875  24.048  0.00  0.00    +0.036 C 
ENDROOT
BRANCH  13   2
ATOM      2  O   UNL     1      -6.193   5.799  25.848  0.00  0.00    -0.389 OA
ATOM     34  H   UNL     1      -6.449   6.549  25.285  0.00  0.00    +0.210 HD
ENDBRANCH  13   2
BRANCH  11  16
ATOM     16  C   UNL     1      -2.205   3.522  26.437  0.00  0.00    +0.090 C 
BRANCH  16  18
ATOM      3  O   UNL     1       0.889   1.985  25.413  0.00  0.00    -0.358 OA
ATOM      9  N   UNL     1       0.085   2.628  26.346  0.00  0.00    -0.083 NA
ATOM     18  C   UNL     1      -1.076   2.837  25.718  0.00  0.00    +0.086 A 
ATOM     19  C   UNL     1      -1.062   2.352  24.398  0.00  0.00    +0.072 A 
ATOM     21  C   UNL     1       0.196   1.827  24.257  0.00  0.00    +0.151 A 
BRANCH  21  20
ATOM     20  C   UNL     1       0.901   1.161  23.156  0.00  0.00    +0.161 C 
BRANCH  20   8
ATOM      4  O   UNL     1       4.779  -0.425  22.903  0.00  0.00    -0.377 OA
ATOM      8  N   UNL     1       2.238   0.700  23.523  0.00  0.00    -0.291 NA
ATOM     22  C   UNL     1       2.395  -0.732  23.232  0.00  0.00    +0.113 C 
ATOM     23  C   UNL     1       3.269   1.473  22.815  0.00  0.00    +0.113 C 
ATOM     24  C   UNL     1       3.801  -1.187  23.612  0.00  0.00    +0.175 C 
ATOM     25  C   UNL     1       4.655   0.966  23.203  0.00  0.00    +0.175 C 
ENDBRANCH  20   8
ENDBRANCH  21  20
ENDBRANCH  16  18
ENDBRANCH  11  16
BRANCH  12  17
ATOM     17  C   UNL     1      -6.125   2.097  25.152  0.00  0.00    +0.140 C 
BRANCH  17   7
ATOM      5  O   UNL     1      -3.878   0.843  23.894  0.00  0.00    -0.253 OA
ATOM      7  N   UNL     1      -5.320   1.044  25.692  0.00  0.00    -0.297 N 
ATOM     10  N   UNL     1      -3.635  -0.529  25.784  0.00  0.00    -0.266 N 
ATOM     26  C   UNL     1      -4.229   0.476  25.013  0.00  0.00    +0.304 C 
ATOM     35  H   UNL     1      -5.580   0.657  26.593  0.00  0.00    +0.150 HD
ATOM     36  H   UNL     1      -4.048  -0.712  26.695  0.00  0.00    +0.156 HD
BRANCH  10  27
ATOM     27  C   UNL     1      -2.518  -1.331  25.452  0.00  0.00    +0.077 A 
ATOM     28  C   UNL     1      -2.688  -2.546  24.788  0.00  0.00    +0.141 A 
ATOM     29  C   UNL     1      -1.239  -0.898  25.797  0.00  0.00    +0.027 A 
ATOM     30  C   UNL     1      -1.578  -3.328  24.469  0.00  0.00    +0.047 A 
ATOM     31  C   UNL     1      -0.127  -1.680  25.478  0.00  0.00    +0.002 A 
ATOM     32  C   UNL     1      -0.297  -2.895  24.815  0.00  0.00    +0.004 A 
BRANCH  28   6
ATOM      6  O   UNL     1      -3.930  -2.988  24.441  0.00  0.00    -0.493 OA
ATOM     33  C   UNL     1      -4.441  -2.559  23.182  0.00  0.00    +0.277 C 
ENDBRANCH  28   6
ENDBRANCH  10  27
ENDBRANCH  17   7
ENDBRANCH  12  17
TORSDOF 9
ENDMDL
MODEL 3
REMARK VINA RESULT:       1.3      1.297      5.174
REMARK  Name = 75536429
REMARK  10 active torsions:
REMARK  status: ('A' for Active; 'I' for Inactive)
REMARK    1  A    between atoms: O_2  and  C_13
REMARK    2  A    between atoms: O_6  and  C_28
REMARK    3  A    between atoms: O_6  and  C_33
REMARK    4  A    between atoms: N_7  and  C_17
REMARK    5  A    between atoms: N_8  and  C_20
REMARK    6  A    between atoms: N_10  and  C_27
REMARK    7  A    between atoms: C_11  and  C_16
REMARK    8  A    between atoms: C_12  and  C_17
REMARK    9  A    between atoms: C_16  and  C_18
REMARK   10  A    between atoms: C_20  and  C_21
REMARK                            x       y       z     vdW  Elec       q    Type
REMARK                         _______ _______ _______ _____ _____    ______ ____
ROOT
ATOM      1  O   UNL     1      -2.710  -0.873  24.210  0.00  0.00    -0.369 OA
ATOM     11  C   UNL     1      -2.486  -1.108  25.603  0.00  0.00    +0.125 C 
ATOM     12  C   UNL     1      -3.922  -1.432  23.685  0.00  0.00    +0.164 C 
ATOM     13  C   UNL     1      -4.002  -2.941  23.953  0.00  0.00    +0.145 C 
ATOM     14  C   UNL     1      -2.441  -2.607  25.896  0.00  0.00    +0.034 C 
ATOM     15  C   UNL     1      -3.717  -3.289  25.412  0.00  0.00    +0.036 C 
ENDROOT
BRANCH  13   2
ATOM      2  O   UNL     1      -3.024  -3.604  23.148  0.00  0.00    -0.389 OA
ATOM     34  H   UNL     1      -2.604  -2.933  22.583  0.00  0.00    +0.210 HD
ENDBRANCH  13   2
BRANCH  11  16
ATOM     16  C   UNL     1      -1.166  -0.443  25.973  0.00  0.00    +0.090 C 
BRANCH  16  18
ATOM      3  O   UNL     1       0.407   1.092  23.117  0.00  0.00    -0.358 OA
ATOM      9  N   UNL     1      -0.465   1.110  24.198  0.00  0.00    -0.083 NA
ATOM     18  C   UNL     1      -0.353  -0.100  24.755  0.00  0.00    +0.086 A 
ATOM     19  C   UNL     1       0.566  -0.916  24.073  0.00  0.00    +0.072 A 
ATOM     21  C   UNL     1       1.015  -0.120  23.052  0.00  0.00    +0.151 A 
BRANCH  21  20
ATOM     20  C   UNL     1       1.976  -0.314  21.960  0.00  0.00    +0.161 C 
BRANCH  20   8
ATOM      4  O   UNL     1       5.378  -0.100  24.409  0.00  0.00    -0.377 OA
ATOM      8  N   UNL     1       3.362  -0.375  22.417  0.00  0.00    -0.291 NA
ATOM     22  C   UNL     1       3.822   0.945  22.869  0.00  0.00    +0.113 C 
ATOM     23  C   UNL     1       3.512  -1.357  23.501  0.00  0.00    +0.113 C 
ATOM     24  C   UNL     1       5.266   0.854  23.352  0.00  0.00    +0.175 C 
ATOM     25  C   UNL     1       4.963  -1.394  23.970  0.00  0.00    +0.175 C 
ENDBRANCH  20   8
ENDBRANCH  21  20
ENDBRANCH  16  18
ENDBRANCH  11  16
BRANCH  12  17
ATOM     17  C   UNL     1      -5.144  -0.670  24.192  0.00  0.00    +0.140 C 
BRANCH  17   7
ATOM      5  O   UNL     1      -3.565   1.473  23.136  0.00  0.00    -0.253 OA
ATOM      7  N   UNL     1      -4.756   0.525  24.878  0.00  0.00    -0.297 N 
ATOM     10  N   UNL     1      -3.756   2.579  25.198  0.00  0.00    -0.266 N 
ATOM     26  C   UNL     1      -3.976   1.537  24.292  0.00  0.00    +0.304 C 
ATOM     35  H   UNL     1      -5.019   0.624  25.852  0.00  0.00    +0.150 HD
ATOM     36  H   UNL     1      -4.169   2.478  26.122  0.00  0.00    +0.156 HD
BRANCH  10  27
ATOM     27  C   UNL     1      -3.024   3.771  24.988  0.00  0.00    +0.077 A 
ATOM     28  C   UNL     1      -1.776   3.953  25.584  0.00  0.00    +0.141 A 
ATOM     29  C   UNL     1      -3.563   4.771  24.179  0.00  0.00    +0.027 A 
ATOM     30  C   UNL     1      -1.066   5.134  25.370  0.00  0.00    +0.047 A 
ATOM     31  C   UNL     1      -2.852   5.953  23.965  0.00  0.00    +0.002 A 
ATOM     32  C   UNL     1      -1.605   6.135  24.561  0.00  0.00    +0.004 A 
BRANCH  28   6
ATOM      6  O   UNL     1      -1.231   2.988  26.378  0.00  0.00    -0.493 OA
ATOM     33  C   UNL     1       0.191   2.913  26.424  0.00  0.00    +0.277 C 
ENDBRANCH  28   6
ENDBRANCH  10  27
ENDBRANCH  17   7
ENDBRANCH  12  17
TORSDOF 9
ENDMDL
MODEL 4
REMARK VINA RESULT:       2.3      1.811      7.208
REMARK  Name = 75536429
REMARK  10 active torsions:
REMARK  status: ('A' for Active; 'I' for Inactive)
REMARK    1  A    between atoms: O_2  and  C_13
REMARK    2  A    between atoms: O_6  and  C_28
REMARK    3  A    between atoms: O_6  and  C_33
REMARK    4  A    between atoms: N_7  and  C_17
REMARK    5  A    between atoms: N_8  and  C_20
REMARK    6  A    between atoms: N_10  and  C_27
REMARK    7  A    between atoms: C_11  and  C_16
REMARK    8  A    between atoms: C_12  and  C_17
REMARK    9  A    between atoms: C_16  and  C_18
REMARK   10  A    between atoms: C_20  and  C_21
REMARK                            x       y       z     vdW  Elec       q    Type
REMARK                         _______ _______ _______ _____ _____    ______ ____
ROOT
ATOM      1  O   UNL     1      -3.178  -0.071  24.844  0.00  0.00    -0.369 OA
ATOM     11  C   UNL     1      -4.256  -0.549  24.035  0.00  0.00    +0.125 C 
ATOM     12  C   UNL     1      -1.879  -0.550  24.474  0.00  0.00    +0.164 C 
ATOM     13  C   UNL     1      -1.836  -2.084  24.449  0.00  0.00    +0.145 C 
ATOM     14  C   UNL     1      -4.323  -2.076  24.076  0.00  0.00    +0.034 C 
ATOM     15  C   UNL     1      -2.990  -2.685  23.650  0.00  0.00    +0.036 C 
ENDROOT
BRANCH  13   2
ATOM      2  O   UNL     1      -1.934  -2.570  25.790  0.00  0.00    -0.389 OA
ATOM     34  H   UNL     1      -1.758  -3.526  25.769  0.00  0.00    +0.210 HD
ENDBRANCH  13   2
BRANCH  11  16
ATOM     16  C   UNL     1      -5.541   0.065  24.575  0.00  0.00    +0.090 C 
BRANCH  16  18
ATOM      3  O   UNL     1      -5.639   3.119  26.483  0.00  0.00    -0.358 OA
ATOM      9  N   UNL     1      -6.156   1.885  26.111  0.00  0.00    -0.083 NA
ATOM     18  C   UNL     1      -5.297   1.408  25.206  0.00  0.00    +0.086 A 
ATOM     19  C   UNL     1      -4.228   2.290  24.968  0.00  0.00    +0.072 A 
ATOM     21  C   UNL     1      -4.491   3.350  25.796  0.00  0.00    +0.151 A 
BRANCH  21  20
ATOM     20  C   UNL     1      -3.807   4.619  26.069  0.00  0.00    +0.161 C 
BRANCH  20   8
ATOM      4  O   UNL     1       0.025   3.630  24.672  0.00  0.00    -0.377 OA
ATOM      8  N   UNL     1      -2.353   4.527  25.954  0.00  0.00    -0.291 NA
ATOM     22  C   UNL     1      -1.911   3.129  26.046  0.00  0.00    +0.113 C 
ATOM     23  C   UNL     1      -1.891   5.119  24.690  0.00  0.00    +0.113 C 
ATOM     24  C   UNL     1      -0.393   3.056  25.911  0.00  0.00    +0.175 C 
ATOM     25  C   UNL     1      -0.374   4.998  24.586  0.00  0.00    +0.175 C 
ENDBRANCH  20   8
ENDBRANCH  21  20
ENDBRANCH  16  18
ENDBRANCH  11  16
BRANCH  12  17
ATOM     17  C   UNL     1      -1.411   0.082  23.166  0.00  0.00    +0.140 C 
BRANCH  17   7
ATOM      5  O   UNL     1       1.112   0.680  24.383  0.00  0.00    -0.253 OA
ATOM      7  N   UNL     1      -0.131  -0.428  22.777  0.00  0.00    -0.297 N 
ATOM     10  N   UNL     1       2.154  -0.737  22.829  0.00  0.00    -0.266 N 
ATOM     26  C   UNL     1       1.069  -0.088  23.425  0.00  0.00    +0.304 C 
ATOM     35  H   UNL     1      -0.084  -1.032  21.963  0.00  0.00    +0.150 HD
ATOM     36  H   UNL     1       1.948  -1.345  22.040  0.00  0.00    +0.156 HD
BRANCH  10  27
ATOM     27  C   UNL     1       3.520  -0.655  23.190  0.00  0.00    +0.077 A 
ATOM     28  C   UNL     1       4.301   0.424  22.775  0.00  0.00    +0.141 A 
ATOM     29  C   UNL     1       4.084  -1.666  23.966  0.00  0.00    +0.027 A 
ATOM     30  C   UNL     1       5.646   0.491  23.137  0.00  0.00    +0.047 A 
ATOM     31  C   UNL     1       5.430  -1.600  24.328  0.00  0.00    +0.002 A 
ATOM     32  C   UNL     1       6.211  -0.521  23.913  0.00  0.00    +0.004 A 
BRANCH  28   6
ATOM      6  O   UNL     1       3.769   1.424  22.016  0.00  0.00    -0.493 OA
ATOM     33  C   UNL     1       3.152   2.505  22.710  0.00  0.00    +0.277 C 
ENDBRANCH  28   6
ENDBRANCH  10  27
ENDBRANCH  17   7
ENDBRANCH  12  17
TORSDOF 9
ENDMDL
MODEL 5
REMARK VINA RESULT:       4.3      1.265      5.021
REMARK  Name = 75536429
REMARK  10 active torsions:
REMARK  status: ('A' for Active; 'I' for Inactive)
REMARK    1  A    between atoms: O_2  and  C_13
REMARK    2  A    between atoms: O_6  and  C_28
REMARK    3  A    between atoms: O_6  and  C_33
REMARK    4  A    between atoms: N_7  and  C_17
REMARK    5  A    between atoms: N_8  and  C_20
REMARK    6  A    between atoms: N_10  and  C_27
REMARK    7  A    between atoms: C_11  and  C_16
REMARK    8  A    between atoms: C_12  and  C_17
REMARK    9  A    between atoms: C_16  and  C_18
REMARK   10  A    between atoms: C_20  and  C_21
REMARK                            x       y       z     vdW  Elec       q    Type
REMARK                         _______ _______ _______ _____ _____    ______ ____
ROOT
ATOM      1  O   UNL     1      -1.719  -0.990  24.299  0.00  0.00    -0.369 OA
ATOM     11  C   UNL     1      -2.114  -0.377  25.529  0.00  0.00    +0.125 C 
ATOM     12  C   UNL     1      -2.589  -2.028  23.828  0.00  0.00    +0.164 C 
ATOM     13  C   UNL     1      -2.778  -3.121  24.888  0.00  0.00    +0.145 C 
ATOM     14  C   UNL     1      -2.202  -1.418  26.646  0.00  0.00    +0.034 C 
ATOM     15  C   UNL     1      -3.148  -2.549  26.254  0.00  0.00    +0.036 C 
ENDROOT
BRANCH  13   2
ATOM      2  O   UNL     1      -1.551  -3.840  25.033  0.00  0.00    -0.389 OA
ATOM     34  H   UNL     1      -1.729  -4.615  25.593  0.00  0.00    +0.210 HD
ENDBRANCH  13   2
BRANCH  11  16
ATOM     16  C   UNL     1      -1.080   0.691  25.863  0.00  0.00    +0.090 C 
BRANCH  16  18
ATOM      3  O   UNL     1       1.484   1.726  23.553  0.00  0.00    -0.358 OA
ATOM      9  N   UNL     1       0.594   1.968  24.592  0.00  0.00    -0.083 NA
ATOM     18  C   UNL     1      -0.030   0.804  24.792  0.00  0.00    +0.086 A 
ATOM     19  C   UNL     1       0.420  -0.200  23.917  0.00  0.00    +0.072 A 
ATOM     21  C   UNL     1       1.372   0.432  23.159  0.00  0.00    +0.151 A 
BRANCH  21  20
ATOM     20  C   UNL     1       2.246   0.002  22.062  0.00  0.00    +0.161 C 
BRANCH  20   8
ATOM      4  O   UNL     1       5.654  -0.464  24.468  0.00  0.00    -0.377 OA
ATOM      8  N   UNL     1       3.600  -0.329  22.501  0.00  0.00    -0.291 NA
ATOM     22  C   UNL     1       4.311   0.874  22.954  0.00  0.00    +0.113 C 
ATOM     23  C   UNL     1       3.570  -1.330  23.577  0.00  0.00    +0.113 C 
ATOM     24  C   UNL     1       5.716   0.503  23.418  0.00  0.00    +0.175 C 
ATOM     25  C   UNL     1       4.992  -1.650  24.027  0.00  0.00    +0.175 C 
ENDBRANCH  20   8
ENDBRANCH  21  20
ENDBRANCH  16  18
ENDBRANCH  11  16
BRANCH  12  17
ATOM     17  C   UNL     1      -3.909  -1.452  23.322  0.00  0.00    +0.140 C 
BRANCH  17   7
ATOM      5  O   UNL     1      -4.755   0.369  25.364  0.00  0.00    -0.253 OA
ATOM      7  N   UNL     1      -3.858  -0.022  23.268  0.00  0.00    -0.297 N 
ATOM     10  N   UNL     1      -4.123   2.156  23.979  0.00  0.00    -0.266 N 
ATOM     26  C   UNL     1      -4.294   0.809  24.314  0.00  0.00    +0.304 C 
ATOM     35  H   UNL     1      -3.533   0.413  22.411  0.00  0.00    +0.150 HD
ATOM     36  H   UNL     1      -3.724   2.354  23.065  0.00  0.00    +0.156 HD
BRANCH  10  27
ATOM     27  C   UNL     1      -4.439   3.291  24.762  0.00  0.00    +0.077 A 
ATOM     28  C   UNL     1      -3.428   4.093  25.291  0.00  0.00    +0.141 A 
ATOM     29  C   UNL     1      -5.777   3.604  25.003  0.00  0.00    +0.027 A 
ATOM     30  C   UNL     1      -3.755   5.209  26.062  0.00  0.00    +0.047 A 
ATOM     31  C   UNL     1      -6.104   4.720  25.775  0.00  0.00    +0.002 A 
ATOM     32  C   UNL     1      -5.093   5.522  26.306  0.00  0.00    +0.004 A 
BRANCH  28   6
ATOM      6  O   UNL     1      -2.115   3.805  25.067  0.00  0.00    -0.493 OA
ATOM     33  C   UNL     1      -1.205   4.902  25.049  0.00  0.00    +0.277 C 
ENDBRANCH  28   6
ENDBRANCH  10  27
ENDBRANCH  17   7
ENDBRANCH  12  17
TORSDOF 9
ENDMDL
