MODEL 1
REMARK VINA RESULT:      -3.7      0.000      0.000
REMARK  Name = 11912476
REMARK  8 active torsions:
REMARK  status: ('A' for Active; 'I' for Inactive)
REMARK    1  A    between atoms: O_3  and  C_12
REMARK    2  A    between atoms: O_3  and  C_21
REMARK    3  A    between atoms: N_5  and  C_11
REMARK    4  A    between atoms: N_6  and  C_15
REMARK    5  A    between atoms: C_23  and  C_24
REMARK    6  A    between atoms: C_23  and  C_27
REMARK    7  A    between atoms: C_23  and  C_28
REMARK    8  A    between atoms: C_23  and  C_29
REMARK                            x       y       z     vdW  Elec       q    Type
REMARK                         _______ _______ _______ _____ _____    ______ ____
ROOT
ATOM      1  O   UNL     1      -2.263   0.606  23.857  0.00  0.00    -0.368 OA
ATOM      2  O   UNL     1      -2.560  -2.354  24.605  0.00  0.00    -0.368 OA
ATOM      9  C   UNL     1      -3.277  -1.181  25.042  0.00  0.00    +0.173 C 
ATOM     10  C   UNL     1      -2.264  -0.056  25.132  0.00  0.00    +0.192 C 
ATOM     11  C   UNL     1      -4.232  -0.726  23.963  0.00  0.00    +0.130 C 
ATOM     12  C   UNL     1      -0.973  -0.798  25.378  0.00  0.00    +0.235 C 
ATOM     13  C   UNL     1      -3.327   0.080  23.048  0.00  0.00    +0.185 C 
ATOM     14  C   UNL     1      -1.160  -2.047  24.545  0.00  0.00    +0.207 C 
ENDROOT
BRANCH  11   5
ATOM      5  N   UNL     1      -5.261   0.121  24.527  0.00  0.00    -0.306 N 
ATOM      7  N   UNL     1      -3.782   1.919  24.812  0.00  0.00    -0.219 NA
ATOM      8  N   UNL     1      -6.097   2.108  25.454  0.00  0.00    -0.223 NA
ATOM     22  C   UNL     1      -5.040   1.422  24.943  0.00  0.00    +0.216 A 
ATOM     24  C   UNL     1      -3.602   3.190  25.227  0.00  0.00    +0.052 A 
ATOM     25  C   UNL     1      -4.606   3.972  25.759  0.00  0.00    +0.043 A 
ATOM     26  C   UNL     1      -5.846   3.373  25.849  0.00  0.00    +0.116 A 
ATOM     30  H   UNL     1      -6.213  -0.222  24.580  0.00  0.00    +0.149 HD
BRANCH  24  23
ATOM     23  C   UNL     1      -2.227   3.752  25.091  0.00  0.00    +0.005 C 
ATOM     27  C   UNL     1      -2.115   5.303  25.267  0.00  0.00    +0.017 C 
ATOM     28  C   UNL     1      -1.259   3.143  26.152  0.00  0.00    +0.017 C 
ATOM     29  C   UNL     1      -1.630   3.451  23.681  0.00  0.00    +0.017 C 
ENDBRANCH  24  23
ENDBRANCH  11   5
BRANCH  12   3
ATOM      3  O   UNL     1       0.175  -0.073  24.995  0.00  0.00    -0.442 OA
BRANCH   3  21
ATOM      4  O   UNL     1       0.196  -0.675  22.778  0.00  0.00    -0.226 OA
ATOM      6  N   UNL     1       2.153  -0.584  24.020  0.00  0.00    -0.278 N 
ATOM     21  C   UNL     1       0.792  -0.466  23.829  0.00  0.00    +0.401 C 
ATOM     31  H   UNL     1       2.510  -0.424  24.956  0.00  0.00    +0.152 HD
BRANCH   6  15
ATOM     15  C   UNL     1       3.078  -0.980  22.980  0.00  0.00    +0.076 C 
ATOM     16  C   UNL     1       4.321  -1.651  23.574  0.00  0.00    +0.022 C 
ATOM     17  C   UNL     1       3.459   0.214  22.097  0.00  0.00    +0.022 C 
ATOM     18  C   UNL     1       5.235  -0.656  24.292  0.00  0.00    +0.002 C 
ATOM     19  C   UNL     1       4.374   1.205  22.818  0.00  0.00    +0.002 C 
ATOM     20  C   UNL     1       5.609   0.516  23.390  0.00  0.00    +0.000 C 
ENDBRANCH   6  15
ENDBRANCH   3  21
ENDBRANCH  12   3
TORSDOF 5
ENDMDL
MODEL 2
REMARK VINA RESULT:      -3.4      1.509      3.642
REMARK  Name = 11912476
REMARK  8 active torsions:
REMARK  status: ('A' for Active; 'I' for Inactive)
REMARK    1  A    between atoms: O_3  and  C_12
REMARK    2  A    between atoms: O_3  and  C_21
REMARK    3  A    between atoms: N_5  and  C_11
REMARK    4  A    between atoms: N_6  and  C_15
REMARK    5  A    between atoms: C_23  and  C_24
REMARK    6  A    between atoms: C_23  and  C_27
REMARK    7  A    between atoms: C_23  and  C_28
REMARK    8  A    between atoms: C_23  and  C_29
REMARK                            x       y       z     vdW  Elec       q    Type
REMARK                         _______ _______ _______ _____ _____    ______ ____
ROOT
ATOM      1  O   UNL     1      -1.729   2.354  26.098  0.00  0.00    -0.368 OA
ATOM      2  O   UNL     1      -0.772   4.848  24.589  0.00  0.00    -0.368 OA
ATOM      9  C   UNL     1      -2.051   4.180  24.619  0.00  0.00    +0.173 C 
ATOM     10  C   UNL     1      -1.767   2.693  24.702  0.00  0.00    +0.192 C 
ATOM     11  C   UNL     1      -2.766   4.487  25.913  0.00  0.00    +0.130 C 
ATOM     12  C   UNL     1      -0.403   2.584  24.063  0.00  0.00    +0.235 C 
ATOM     13  C   UNL     1      -2.143   3.490  26.873  0.00  0.00    +0.185 C 
ATOM     14  C   UNL     1       0.266   3.860  24.523  0.00  0.00    +0.207 C 
ENDROOT
BRANCH  11   5
ATOM      5  N   UNL     1      -4.184   4.235  25.776  0.00  0.00    -0.306 N 
ATOM      7  N   UNL     1      -3.843   1.986  25.202  0.00  0.00    -0.219 NA
ATOM      8  N   UNL     1      -6.066   2.905  25.335  0.00  0.00    -0.223 NA
ATOM     22  C   UNL     1      -4.714   3.005  25.428  0.00  0.00    +0.216 A 
ATOM     24  C   UNL     1      -4.393   0.802  24.865  0.00  0.00    +0.052 A 
ATOM     25  C   UNL     1      -5.752   0.594  24.745  0.00  0.00    +0.043 A 
ATOM     26  C   UNL     1      -6.548   1.692  24.994  0.00  0.00    +0.116 A 
ATOM     30  H   UNL     1      -4.844   4.974  25.992  0.00  0.00    +0.149 HD
BRANCH  24  23
ATOM     23  C   UNL     1      -3.452  -0.328  24.615  0.00  0.00    +0.005 C 
ATOM     27  C   UNL     1      -2.422  -0.610  25.758  0.00  0.00    +0.017 C 
ATOM     28  C   UNL     1      -4.221  -1.670  24.408  0.00  0.00    +0.017 C 
ATOM     29  C   UNL     1      -2.593  -0.076  23.336  0.00  0.00    +0.017 C 
ENDBRANCH  24  23
ENDBRANCH  11   5
BRANCH  12   3
ATOM      3  O   UNL     1       0.315   1.436  24.460  0.00  0.00    -0.442 OA
BRANCH   3  21
ATOM      4  O   UNL     1       0.405  -0.081  22.738  0.00  0.00    -0.226 OA
ATOM      6  N   UNL     1       2.291   1.089  23.412  0.00  0.00    -0.278 N 
ATOM     21  C   UNL     1       0.958   0.737  23.464  0.00  0.00    +0.401 C 
ATOM     31  H   UNL     1       2.628   1.749  24.105  0.00  0.00    +0.152 HD
BRANCH   6  15
ATOM     15  C   UNL     1       3.233   0.528  22.469  0.00  0.00    +0.076 C 
ATOM     16  C   UNL     1       3.309  -0.996  22.608  0.00  0.00    +0.022 C 
ATOM     17  C   UNL     1       4.616   1.170  22.623  0.00  0.00    +0.022 C 
ATOM     18  C   UNL     1       4.021  -1.432  23.890  0.00  0.00    +0.002 C 
ATOM     19  C   UNL     1       5.325   0.731  23.905  0.00  0.00    +0.002 C 
ATOM     20  C   UNL     1       5.398  -0.789  24.015  0.00  0.00    +0.000 C 
ENDBRANCH   6  15
ENDBRANCH   3  21
ENDBRANCH  12   3
TORSDOF 5
ENDMDL
MODEL 3
REMARK VINA RESULT:      -1.0      2.708      7.286
REMARK  Name = 11912476
REMARK  8 active torsions:
REMARK  status: ('A' for Active; 'I' for Inactive)
REMARK    1  A    between atoms: O_3  and  C_12
REMARK    2  A    between atoms: O_3  and  C_21
REMARK    3  A    between atoms: N_5  and  C_11
REMARK    4  A    between atoms: N_6  and  C_15
REMARK    5  A    between atoms: C_23  and  C_24
REMARK    6  A    between atoms: C_23  and  C_27
REMARK    7  A    between atoms: C_23  and  C_28
REMARK    8  A    between atoms: C_23  and  C_29
REMARK                            x       y       z     vdW  Elec       q    Type
REMARK                         _______ _______ _______ _____ _____    ______ ____
ROOT
ATOM      1  O   UNL     1      -1.331   1.935  25.052  0.00  0.00    -0.368 OA
ATOM      2  O   UNL     1       0.559   3.655  23.355  0.00  0.00    -0.368 OA
ATOM      9  C   UNL     1       0.792   2.465  24.137  0.00  0.00    +0.173 C 
ATOM     10  C   UNL     1      -0.084   2.573  25.370  0.00  0.00    +0.192 C 
ATOM     11  C   UNL     1       0.253   1.255  23.412  0.00  0.00    +0.130 C 
ATOM     12  C   UNL     1      -0.243   4.066  25.529  0.00  0.00    +0.235 C 
ATOM     13  C   UNL     1      -1.221   1.290  23.773  0.00  0.00    +0.185 C 
ATOM     14  C   UNL     1      -0.303   4.534  24.092  0.00  0.00    +0.207 C 
ENDROOT
BRANCH  11   5
ATOM      5  N   UNL     1       0.868   0.048  23.922  0.00  0.00    -0.306 N 
ATOM      7  N   UNL     1      -1.206  -0.968  24.335  0.00  0.00    -0.219 NA
ATOM      8  N   UNL     1       0.854  -2.116  24.827  0.00  0.00    -0.223 NA
ATOM     22  C   UNL     1       0.151  -1.045  24.374  0.00  0.00    +0.216 A 
ATOM     24  C   UNL     1      -1.874  -2.050  24.783  0.00  0.00    +0.052 A 
ATOM     25  C   UNL     1      -1.257  -3.188  25.261  0.00  0.00    +0.043 A 
ATOM     26  C   UNL     1       0.123  -3.164  25.260  0.00  0.00    +0.116 A 
ATOM     30  H   UNL     1       1.878  -0.040  23.907  0.00  0.00    +0.149 HD
BRANCH  24  23
ATOM     23  C   UNL     1      -3.363  -1.983  24.746  0.00  0.00    +0.005 C 
ATOM     27  C   UNL     1      -3.970  -1.173  23.552  0.00  0.00    +0.017 C 
ATOM     28  C   UNL     1      -3.991  -3.408  24.643  0.00  0.00    +0.017 C 
ATOM     29  C   UNL     1      -3.931  -1.310  26.034  0.00  0.00    +0.017 C 
ENDBRANCH  24  23
ENDBRANCH  11   5
BRANCH  12   3
ATOM      3  O   UNL     1      -1.395   4.435  26.255  0.00  0.00    -0.442 OA
BRANCH   3  21
ATOM      4  O   UNL     1      -2.599   5.905  24.963  0.00  0.00    -0.226 OA
ATOM      6  N   UNL     1      -3.434   3.807  25.499  0.00  0.00    -0.278 N 
ATOM     21  C   UNL     1      -2.493   4.816  25.518  0.00  0.00    +0.401 C 
ATOM     31  H   UNL     1      -3.235   2.973  26.040  0.00  0.00    +0.152 HD
BRANCH   6  15
ATOM     15  C   UNL     1      -4.700   3.904  24.806  0.00  0.00    +0.076 C 
ATOM     16  C   UNL     1      -5.874   3.811  25.786  0.00  0.00    +0.022 C 
ATOM     17  C   UNL     1      -4.809   2.841  23.706  0.00  0.00    +0.022 C 
ATOM     18  C   UNL     1      -6.056   2.400  26.347  0.00  0.00    +0.002 C 
ATOM     19  C   UNL     1      -4.992   1.432  24.271  0.00  0.00    +0.002 C 
ATOM     20  C   UNL     1      -6.173   1.363  25.235  0.00  0.00    +0.000 C 
ENDBRANCH   6  15
ENDBRANCH   3  21
ENDBRANCH  12   3
TORSDOF 5
ENDMDL
MODEL 4
REMARK VINA RESULT:      -0.1      1.460      7.167
REMARK  Name = 11912476
REMARK  8 active torsions:
REMARK  status: ('A' for Active; 'I' for Inactive)
REMARK    1  A    between atoms: O_3  and  C_12
REMARK    2  A    between atoms: O_3  and  C_21
REMARK    3  A    between atoms: N_5  and  C_11
REMARK    4  A    between atoms: N_6  and  C_15
REMARK    5  A    between atoms: C_23  and  C_24
REMARK    6  A    between atoms: C_23  and  C_27
REMARK    7  A    between atoms: C_23  and  C_28
REMARK    8  A    between atoms: C_23  and  C_29
REMARK                            x       y       z     vdW  Elec       q    Type
REMARK                         _______ _______ _______ _____ _____    ______ ____
ROOT
ATOM      1  O   UNL     1      -1.719   0.390  24.948  0.00  0.00    -0.368 OA
ATOM      2  O   UNL     1      -1.215  -2.612  25.326  0.00  0.00    -0.368 OA
ATOM      9  C   UNL     1      -1.129  -1.768  24.160  0.00  0.00    +0.173 C 
ATOM     10  C   UNL     1      -2.254  -0.756  24.266  0.00  0.00    +0.192 C 
ATOM     11  C   UNL     1       0.124  -0.927  24.221  0.00  0.00    +0.130 C 
ATOM     12  C   UNL     1      -3.270  -1.486  25.111  0.00  0.00    +0.235 C 
ATOM     13  C   UNL     1      -0.302   0.226  25.112  0.00  0.00    +0.185 C 
ATOM     14  C   UNL     1      -2.392  -2.260  26.068  0.00  0.00    +0.207 C 
ENDROOT
BRANCH  11   5
ATOM      5  N   UNL     1       0.470  -0.443  22.902  0.00  0.00    -0.306 N 
ATOM      7  N   UNL     1       2.767  -0.455  23.376  0.00  0.00    -0.219 NA
ATOM      8  N   UNL     1       1.953   0.242  21.218  0.00  0.00    -0.223 NA
ATOM     22  C   UNL     1       1.769  -0.212  22.485  0.00  0.00    +0.216 A 
ATOM     24  C   UNL     1       4.021  -0.220  22.938  0.00  0.00    +0.052 A 
ATOM     25  C   UNL     1       4.317   0.240  21.671  0.00  0.00    +0.043 A 
ATOM     26  C   UNL     1       3.232   0.456  20.846  0.00  0.00    +0.116 A 
ATOM     30  H   UNL     1      -0.263  -0.308  22.214  0.00  0.00    +0.149 HD
BRANCH  24  23
ATOM     23  C   UNL     1       5.129  -0.482  23.902  0.00  0.00    +0.005 C 
ATOM     27  C   UNL     1       5.167   0.457  25.152  0.00  0.00    +0.017 C 
ATOM     28  C   UNL     1       5.050  -1.932  24.474  0.00  0.00    +0.017 C 
ATOM     29  C   UNL     1       6.522  -0.321  23.219  0.00  0.00    +0.017 C 
ENDBRANCH  24  23
ENDBRANCH  11   5
BRANCH  12   3
ATOM      3  O   UNL     1      -4.162  -0.626  25.787  0.00  0.00    -0.442 OA
BRANCH   3  21
ATOM      4  O   UNL     1      -5.505   0.314  24.178  0.00  0.00    -0.226 OA
ATOM      6  N   UNL     1      -4.095   1.616  25.482  0.00  0.00    -0.278 N 
ATOM     21  C   UNL     1      -4.666   0.431  25.065  0.00  0.00    +0.401 C 
ATOM     31  H   UNL     1      -3.378   1.562  26.198  0.00  0.00    +0.152 HD
BRANCH   6  15
ATOM     15  C   UNL     1      -4.420   2.906  24.916  0.00  0.00    +0.076 C 
ATOM     16  C   UNL     1      -3.531   3.217  23.707  0.00  0.00    +0.022 C 
ATOM     17  C   UNL     1      -4.326   4.012  25.973  0.00  0.00    +0.022 C 
ATOM     18  C   UNL     1      -2.088   3.527  24.106  0.00  0.00    +0.002 C 
ATOM     19  C   UNL     1      -2.881   4.320  26.369  0.00  0.00    +0.002 C 
ATOM     20  C   UNL     1      -2.020   4.637  25.150  0.00  0.00    +0.000 C 
ENDBRANCH   6  15
ENDBRANCH   3  21
ENDBRANCH  12   3
TORSDOF 5
ENDMDL
MODEL 5
REMARK VINA RESULT:       0.2      2.418      5.232
REMARK  Name = 11912476
REMARK  8 active torsions:
REMARK  status: ('A' for Active; 'I' for Inactive)
REMARK    1  A    between atoms: O_3  and  C_12
REMARK    2  A    between atoms: O_3  and  C_21
REMARK    3  A    between atoms: N_5  and  C_11
REMARK    4  A    between atoms: N_6  and  C_15
REMARK    5  A    between atoms: C_23  and  C_24
REMARK    6  A    between atoms: C_23  and  C_27
REMARK    7  A    between atoms: C_23  and  C_28
REMARK    8  A    between atoms: C_23  and  C_29
REMARK                            x       y       z     vdW  Elec       q    Type
REMARK                         _______ _______ _______ _____ _____    ______ ____
ROOT
ATOM      1  O   UNL     1      -0.092   0.734  26.176  0.00  0.00    -0.368 OA
ATOM      2  O   UNL     1       1.072   2.615  24.051  0.00  0.00    -0.368 OA
ATOM      9  C   UNL     1      -0.235   2.552  24.659  0.00  0.00    +0.173 C 
ATOM     10  C   UNL     1      -0.554   1.083  24.861  0.00  0.00    +0.192 C 
ATOM     11  C   UNL     1      -0.181   3.109  26.062  0.00  0.00    +0.130 C 
ATOM     12  C   UNL     1       0.271   0.419  23.785  0.00  0.00    +0.235 C 
ATOM     13  C   UNL     1       0.328   1.924  26.863  0.00  0.00    +0.185 C 
ATOM     14  C   UNL     1       1.512   1.282  23.756  0.00  0.00    +0.207 C 
ENDROOT
BRANCH  11   5
ATOM      5  N   UNL     1      -1.506   3.485  26.505  0.00  0.00    -0.306 N 
ATOM      7  N   UNL     1      -2.457   3.033  24.408  0.00  0.00    -0.219 NA
ATOM      8  N   UNL     1      -3.812   3.825  26.236  0.00  0.00    -0.223 NA
ATOM     22  C   UNL     1      -2.626   3.446  25.692  0.00  0.00    +0.216 A 
ATOM     24  C   UNL     1      -3.568   3.007  23.644  0.00  0.00    +0.052 A 
ATOM     25  C   UNL     1      -4.819   3.370  24.099  0.00  0.00    +0.043 A 
ATOM     26  C   UNL     1      -4.882   3.775  25.416  0.00  0.00    +0.116 A 
ATOM     30  H   UNL     1      -1.652   3.744  27.474  0.00  0.00    +0.149 HD
BRANCH  24  23
ATOM     23  C   UNL     1      -3.402   2.556  22.232  0.00  0.00    +0.005 C 
ATOM     27  C   UNL     1      -1.992   2.817  21.606  0.00  0.00    +0.017 C 
ATOM     28  C   UNL     1      -3.638   1.020  22.098  0.00  0.00    +0.017 C 
ATOM     29  C   UNL     1      -4.415   3.273  21.286  0.00  0.00    +0.017 C 
ENDBRANCH  24  23
ENDBRANCH  11   5
BRANCH  12   3
ATOM      3  O   UNL     1       0.571  -0.932  24.059  0.00  0.00    -0.442 OA
BRANCH   3  21
ATOM      4  O   UNL     1       0.148  -2.117  25.981  0.00  0.00    -0.226 OA
ATOM      6  N   UNL     1      -1.563  -1.524  24.531  0.00  0.00    -0.278 N 
ATOM     21  C   UNL     1      -0.251  -1.577  24.955  0.00  0.00    +0.401 C 
ATOM     31  H   UNL     1      -1.747  -1.083  23.636  0.00  0.00    +0.152 HD
BRANCH   6  15
ATOM     15  C   UNL     1      -2.666  -2.112  25.258  0.00  0.00    +0.076 C 
ATOM     16  C   UNL     1      -3.681  -2.747  24.303  0.00  0.00    +0.022 C 
ATOM     17  C   UNL     1      -3.334  -1.080  26.174  0.00  0.00    +0.022 C 
ATOM     18  C   UNL     1      -4.484  -1.704  23.524  0.00  0.00    +0.002 C 
ATOM     19  C   UNL     1      -4.137  -0.039  25.392  0.00  0.00    +0.002 C 
ATOM     20  C   UNL     1      -5.148  -0.696  24.457  0.00  0.00    +0.000 C 
ENDBRANCH   6  15
ENDBRANCH   3  21
ENDBRANCH  12   3
TORSDOF 5
ENDMDL
