MODEL 1
REMARK VINA RESULT:       2.0      0.000      0.000
REMARK  Name = 7049404
REMARK  13 active torsions:
REMARK  status: ('A' for Active; 'I' for Inactive)
REMARK    1  A    between atoms: S_1  and  C_21
REMARK    2  A    between atoms: S_1  and  C_27
REMARK    3  A    between atoms: O_7  and  C_23
REMARK    4  A    between atoms: O_7  and  C_28
REMARK    5  A    between atoms: N_10  and  C_14
REMARK    6  A    between atoms: N_11  and  C_19
REMARK    7  A    between atoms: N_12  and  C_26
REMARK    8  A    between atoms: C_13  and  C_17
REMARK    9  A    between atoms: C_18  and  C_21
REMARK   10  A    between atoms: C_19  and  C_20
REMARK   11  A    between atoms: C_19  and  C_23
REMARK   12  A    between atoms: C_20  and  C_24
REMARK   13  A    between atoms: C_20  and  C_25
REMARK                            x       y       z     vdW  Elec       q    Type
REMARK                         _______ _______ _______ _____ _____    ______ ____
ROOT
ATOM      5  O   UNL     1      -4.733   1.307  26.244  0.00  0.00    -0.275 OA
ATOM      9  N   UNL     1      -3.591  -0.366  25.125  0.00  0.00    -0.287 N 
ATOM     13  C   UNL     1      -2.604  -0.611  26.168  0.00  0.00    +0.164 C 
ATOM     14  C   UNL     1      -2.097  -1.994  24.252  0.00  0.00    +0.094 C 
ATOM     15  C   UNL     1      -1.925  -1.921  25.772  0.00  0.00    +0.055 C 
ATOM     16  C   UNL     1      -3.436  -1.304  24.013  0.00  0.00    +0.131 C 
ATOM     18  C   UNL     1      -4.634   0.532  25.292  0.00  0.00    +0.226 C 
ENDROOT
BRANCH  14  10
ATOM      6  O   UNL     1       0.665  -1.958  25.012  0.00  0.00    -0.252 OA
ATOM     10  N   UNL     1      -1.021  -1.334  23.558  0.00  0.00    -0.295 N 
ATOM     12  N   UNL     1       1.127  -0.638  23.126  0.00  0.00    -0.267 N 
ATOM     22  C   UNL     1       0.309  -1.364  23.997  0.00  0.00    +0.304 C 
ATOM     34  H   UNL     1      -1.246  -0.766  22.746  0.00  0.00    +0.151 HD
ATOM     36  H   UNL     1       0.673  -0.202  22.327  0.00  0.00    +0.156 HD
BRANCH  12  26
ATOM      2  F   UNL     1       2.263   1.858  22.632  0.00  0.00    -0.203 F 
ATOM      3  F   UNL     1       6.598   0.171  23.494  0.00  0.00    -0.205 F 
ATOM     26  C   UNL     1       2.523  -0.429  23.218  0.00  0.00    +0.070 A 
ATOM     29  C   UNL     1       3.060   0.833  22.966  0.00  0.00    +0.147 A 
ATOM     30  C   UNL     1       3.362  -1.488  23.563  0.00  0.00    +0.029 A 
ATOM     31  C   UNL     1       4.437   1.036  23.058  0.00  0.00    +0.078 A 
ATOM     32  C   UNL     1       4.739  -1.285  23.656  0.00  0.00    +0.040 A 
ATOM     33  C   UNL     1       5.276  -0.023  23.404  0.00  0.00    +0.126 A 
ENDBRANCH  12  26
ENDBRANCH  14  10
BRANCH  13  17
ATOM      4  O   UNL     1      -0.581   0.473  26.824  0.00  0.00    -0.274 OA
ATOM     11  N   UNL     1      -2.073   1.608  25.444  0.00  0.00    -0.301 N 
ATOM     17  C   UNL     1      -1.631   0.528  26.188  0.00  0.00    +0.234 C 
ATOM     35  H   UNL     1      -2.927   1.517  24.903  0.00  0.00    +0.150 HD
BRANCH  11  19
ATOM     19  C   UNL     1      -1.329   2.841  25.322  0.00  0.00    +0.184 C 
BRANCH  19  20
ATOM     20  C   UNL     1      -2.232   4.089  25.432  0.00  0.00    +0.014 C 
ATOM     24  C   UNL     1      -1.493   5.399  25.138  0.00  0.00    +0.009 C 
ATOM     25  C   UNL     1      -2.906   4.167  26.805  0.00  0.00    +0.009 C 
ENDBRANCH  19  20
BRANCH  19  23
ATOM      8  O   UNL     1       0.369   3.715  23.837  0.00  0.00    -0.249 OA
ATOM     23  C   UNL     1      -0.497   2.870  24.043  0.00  0.00    +0.328 C 
BRANCH  23   7
ATOM      7  O   UNL     1      -0.833   1.866  23.187  0.00  0.00    -0.467 OA
ATOM     28  C   UNL     1      -2.130   1.965  22.590  0.00  0.00    +0.280 C 
ENDBRANCH  23   7
ENDBRANCH  19  23
ENDBRANCH  11  19
ENDBRANCH  13  17
BRANCH  18  21
ATOM     21  C   UNL     1      -5.678   0.525  24.203  0.00  0.00    +0.164 C 
BRANCH  21   1
ATOM      1  S   UNL     1      -6.826   1.869  24.538  0.00  0.00    -0.155 S 
ATOM     27  C   UNL     1      -5.626   3.180  24.884  0.00  0.00    +0.085 C 
ENDBRANCH  21   1
ENDBRANCH  18  21
TORSDOF 9
ENDMDL
MODEL 2
REMARK VINA RESULT:       2.2      0.945      1.348
REMARK  Name = 7049404
REMARK  13 active torsions:
REMARK  status: ('A' for Active; 'I' for Inactive)
REMARK    1  A    between atoms: S_1  and  C_21
REMARK    2  A    between atoms: S_1  and  C_27
REMARK    3  A    between atoms: O_7  and  C_23
REMARK    4  A    between atoms: O_7  and  C_28
REMARK    5  A    between atoms: N_10  and  C_14
REMARK    6  A    between atoms: N_11  and  C_19
REMARK    7  A    between atoms: N_12  and  C_26
REMARK    8  A    between atoms: C_13  and  C_17
REMARK    9  A    between atoms: C_18  and  C_21
REMARK   10  A    between atoms: C_19  and  C_20
REMARK   11  A    between atoms: C_19  and  C_23
REMARK   12  A    between atoms: C_20  and  C_24
REMARK   13  A    between atoms: C_20  and  C_25
REMARK                            x       y       z     vdW  Elec       q    Type
REMARK                         _______ _______ _______ _____ _____    ______ ____
ROOT
ATOM      5  O   UNL     1      -4.768   1.002  26.450  0.00  0.00    -0.275 OA
ATOM      9  N   UNL     1      -3.639  -0.421  25.015  0.00  0.00    -0.287 N 
ATOM     13  C   UNL     1      -2.696  -0.929  26.003  0.00  0.00    +0.164 C 
ATOM     14  C   UNL     1      -2.166  -1.868  23.840  0.00  0.00    +0.094 C 
ATOM     15  C   UNL     1      -2.044  -2.142  25.342  0.00  0.00    +0.055 C 
ATOM     16  C   UNL     1      -3.475  -1.092  23.726  0.00  0.00    +0.131 C 
ATOM     18  C   UNL     1      -4.660   0.455  25.351  0.00  0.00    +0.226 C 
ENDROOT
BRANCH  14  10
ATOM      6  O   UNL     1       0.579  -2.156  24.606  0.00  0.00    -0.252 OA
ATOM     10  N   UNL     1      -1.048  -1.109  23.340  0.00  0.00    -0.295 N 
ATOM     12  N   UNL     1       1.138  -0.434  23.111  0.00  0.00    -0.267 N 
ATOM     22  C   UNL     1       0.271  -1.312  23.768  0.00  0.00    +0.304 C 
ATOM     34  H   UNL     1      -1.231  -0.347  22.693  0.00  0.00    +0.151 HD
ATOM     36  H   UNL     1       0.720   0.208  22.442  0.00  0.00    +0.156 HD
BRANCH  12  26
ATOM      2  F   UNL     1       2.463   1.981  22.694  0.00  0.00    -0.203 F 
ATOM      3  F   UNL     1       6.632  -0.010  23.712  0.00  0.00    -0.205 F 
ATOM     26  C   UNL     1       2.539  -0.324  23.263  0.00  0.00    +0.070 A 
ATOM     29  C   UNL     1       3.173   0.901  23.047  0.00  0.00    +0.147 A 
ATOM     30  C   UNL     1       3.289  -1.441  23.629  0.00  0.00    +0.029 A 
ATOM     31  C   UNL     1       4.555   1.007  23.198  0.00  0.00    +0.078 A 
ATOM     32  C   UNL     1       4.671  -1.335  23.781  0.00  0.00    +0.040 A 
ATOM     33  C   UNL     1       5.304  -0.111  23.566  0.00  0.00    +0.126 A 
ENDBRANCH  12  26
ENDBRANCH  14  10
BRANCH  13  17
ATOM      4  O   UNL     1      -0.676  -0.088  26.957  0.00  0.00    -0.274 OA
ATOM     11  N   UNL     1      -2.061   1.369  25.785  0.00  0.00    -0.301 N 
ATOM     17  C   UNL     1      -1.691   0.141  26.303  0.00  0.00    +0.234 C 
ATOM     35  H   UNL     1      -2.890   1.428  25.201  0.00  0.00    +0.150 HD
BRANCH  11  19
ATOM     19  C   UNL     1      -1.275   2.570  25.956  0.00  0.00    +0.184 C 
BRANCH  19  20
ATOM     20  C   UNL     1      -2.006   3.832  25.450  0.00  0.00    +0.014 C 
ATOM     24  C   UNL     1      -1.057   4.990  25.120  0.00  0.00    +0.009 C 
ATOM     25  C   UNL     1      -3.068   4.298  26.451  0.00  0.00    +0.009 C 
ENDBRANCH  19  20
BRANCH  19  23
ATOM      8  O   UNL     1       0.258   2.198  24.122  0.00  0.00    -0.249 OA
ATOM     23  C   UNL     1       0.104   2.434  25.316  0.00  0.00    +0.328 C 
BRANCH  23   7
ATOM      7  O   UNL     1       1.110   2.603  26.219  0.00  0.00    -0.467 OA
ATOM     28  C   UNL     1       0.710   2.664  27.592  0.00  0.00    +0.280 C 
ENDBRANCH  23   7
ENDBRANCH  19  23
ENDBRANCH  11  19
ENDBRANCH  13  17
BRANCH  18  21
ATOM     21  C   UNL     1      -5.666   0.729  24.262  0.00  0.00    +0.164 C 
BRANCH  21   1
ATOM      1  S   UNL     1      -5.946   2.505  24.210  0.00  0.00    -0.155 S 
ATOM     27  C   UNL     1      -4.376   3.014  23.467  0.00  0.00    +0.085 C 
ENDBRANCH  21   1
ENDBRANCH  18  21
TORSDOF 9
ENDMDL
MODEL 3
REMARK VINA RESULT:       4.0      1.715      3.953
REMARK  Name = 7049404
REMARK  13 active torsions:
REMARK  status: ('A' for Active; 'I' for Inactive)
REMARK    1  A    between atoms: S_1  and  C_21
REMARK    2  A    between atoms: S_1  and  C_27
REMARK    3  A    between atoms: O_7  and  C_23
REMARK    4  A    between atoms: O_7  and  C_28
REMARK    5  A    between atoms: N_10  and  C_14
REMARK    6  A    between atoms: N_11  and  C_19
REMARK    7  A    between atoms: N_12  and  C_26
REMARK    8  A    between atoms: C_13  and  C_17
REMARK    9  A    between atoms: C_18  and  C_21
REMARK   10  A    between atoms: C_19  and  C_20
REMARK   11  A    between atoms: C_19  and  C_23
REMARK   12  A    between atoms: C_20  and  C_24
REMARK   13  A    between atoms: C_20  and  C_25
REMARK                            x       y       z     vdW  Elec       q    Type
REMARK                         _______ _______ _______ _____ _____    ______ ____
ROOT
ATOM      5  O   UNL     1      -4.570   1.458  25.848  0.00  0.00    -0.275 OA
ATOM      9  N   UNL     1      -2.959   2.095  24.313  0.00  0.00    -0.287 N 
ATOM     13  C   UNL     1      -3.565   1.438  23.163  0.00  0.00    +0.164 C 
ATOM     14  C   UNL     1      -1.460   2.424  22.500  0.00  0.00    +0.094 C 
ATOM     15  C   UNL     1      -2.825   2.000  21.951  0.00  0.00    +0.055 C 
ATOM     16  C   UNL     1      -1.772   2.858  23.929  0.00  0.00    +0.131 C 
ATOM     18  C   UNL     1      -3.568   2.114  25.559  0.00  0.00    +0.226 C 
ENDROOT
BRANCH  14  10
ATOM      6  O   UNL     1       1.221   2.467  23.508  0.00  0.00    -0.252 OA
ATOM     10  N   UNL     1      -0.508   1.342  22.464  0.00  0.00    -0.295 N 
ATOM     12  N   UNL     1       1.482   0.242  22.804  0.00  0.00    -0.267 N 
ATOM     22  C   UNL     1       0.791   1.444  22.981  0.00  0.00    +0.304 C 
ATOM     34  H   UNL     1      -0.767   0.486  21.983  0.00  0.00    +0.151 HD
ATOM     36  H   UNL     1       0.978  -0.513  22.345  0.00  0.00    +0.156 HD
BRANCH  12  26
ATOM      2  F   UNL     1       3.526   2.120  22.572  0.00  0.00    -0.203 F 
ATOM      3  F   UNL     1       6.682  -0.945  24.313  0.00  0.00    -0.205 F 
ATOM     26  C   UNL     1       2.809  -0.059  23.187  0.00  0.00    +0.070 A 
ATOM     29  C   UNL     1       3.810   0.904  23.060  0.00  0.00    +0.147 A 
ATOM     30  C   UNL     1       3.117  -1.321  23.695  0.00  0.00    +0.029 A 
ATOM     31  C   UNL     1       5.119   0.605  23.439  0.00  0.00    +0.078 A 
ATOM     32  C   UNL     1       4.425  -1.620  24.074  0.00  0.00    +0.040 A 
ATOM     33  C   UNL     1       5.426  -0.658  23.947  0.00  0.00    +0.126 A 
ENDBRANCH  12  26
ENDBRANCH  14  10
BRANCH  13  17
ATOM      4  O   UNL     1      -4.097  -0.847  22.724  0.00  0.00    -0.274 OA
ATOM     11  N   UNL     1      -2.302  -0.356  24.123  0.00  0.00    -0.301 N 
ATOM     17  C   UNL     1      -3.364  -0.042  23.293  0.00  0.00    +0.234 C 
ATOM     35  H   UNL     1      -1.722   0.394  24.486  0.00  0.00    +0.150 HD
BRANCH  11  19
ATOM     19  C   UNL     1      -1.915  -1.714  24.431  0.00  0.00    +0.184 C 
BRANCH  19  20
ATOM     20  C   UNL     1      -2.979  -2.456  25.268  0.00  0.00    +0.014 C 
ATOM     24  C   UNL     1      -4.011  -3.199  24.413  0.00  0.00    +0.009 C 
ATOM     25  C   UNL     1      -3.690  -1.504  26.234  0.00  0.00    +0.009 C 
ENDBRANCH  19  20
BRANCH  19  23
ATOM      8  O   UNL     1      -0.036  -2.818  25.480  0.00  0.00    -0.249 OA
ATOM     23  C   UNL     1      -0.546  -1.769  25.102  0.00  0.00    +0.328 C 
BRANCH  23   7
ATOM      7  O   UNL     1       0.019  -0.535  25.222  0.00  0.00    -0.467 OA
ATOM     28  C   UNL     1      -0.555   0.317  26.220  0.00  0.00    +0.280 C 
ENDBRANCH  23   7
ENDBRANCH  19  23
ENDBRANCH  11  19
ENDBRANCH  13  17
BRANCH  18  21
ATOM     21  C   UNL     1      -2.914   3.000  26.589  0.00  0.00    +0.164 C 
BRANCH  21   1
ATOM      1  S   UNL     1      -3.363   4.700  26.213  0.00  0.00    -0.155 S 
ATOM     27  C   UNL     1      -5.037   4.415  25.586  0.00  0.00    +0.085 C 
ENDBRANCH  21   1
ENDBRANCH  18  21
TORSDOF 9
ENDMDL
MODEL 4
REMARK VINA RESULT:       4.0      1.851      4.349
REMARK  Name = 7049404
REMARK  13 active torsions:
REMARK  status: ('A' for Active; 'I' for Inactive)
REMARK    1  A    between atoms: S_1  and  C_21
REMARK    2  A    between atoms: S_1  and  C_27
REMARK    3  A    between atoms: O_7  and  C_23
REMARK    4  A    between atoms: O_7  and  C_28
REMARK    5  A    between atoms: N_10  and  C_14
REMARK    6  A    between atoms: N_11  and  C_19
REMARK    7  A    between atoms: N_12  and  C_26
REMARK    8  A    between atoms: C_13  and  C_17
REMARK    9  A    between atoms: C_18  and  C_21
REMARK   10  A    between atoms: C_19  and  C_20
REMARK   11  A    between atoms: C_19  and  C_23
REMARK   12  A    between atoms: C_20  and  C_24
REMARK   13  A    between atoms: C_20  and  C_25
REMARK                            x       y       z     vdW  Elec       q    Type
REMARK                         _______ _______ _______ _____ _____    ______ ____
ROOT
ATOM      5  O   UNL     1      -6.104   1.744  24.727  0.00  0.00    -0.275 OA
ATOM      9  N   UNL     1      -4.149   2.896  25.185  0.00  0.00    -0.287 N 
ATOM     13  C   UNL     1      -3.755   3.101  23.798  0.00  0.00    +0.164 C 
ATOM     14  C   UNL     1      -2.032   3.971  25.251  0.00  0.00    +0.094 C 
ATOM     15  C   UNL     1      -2.633   4.136  23.853  0.00  0.00    +0.055 C 
ATOM     16  C   UNL     1      -3.227   3.561  26.106  0.00  0.00    +0.131 C 
ATOM     18  C   UNL     1      -5.350   2.295  25.531  0.00  0.00    +0.226 C 
ENDROOT
BRANCH  14  10
ATOM      6  O   UNL     1      -0.160   3.404  23.158  0.00  0.00    -0.252 OA
ATOM     10  N   UNL     1      -0.989   2.976  25.273  0.00  0.00    -0.295 N 
ATOM     12  N   UNL     1       0.789   1.735  24.510  0.00  0.00    -0.267 N 
ATOM     22  C   UNL     1      -0.111   2.760  24.203  0.00  0.00    +0.304 C 
ATOM     34  H   UNL     1      -0.928   2.358  26.077  0.00  0.00    +0.151 HD
ATOM     36  H   UNL     1       0.694   1.300  25.424  0.00  0.00    +0.156 HD
BRANCH  12  26
ATOM      2  F   UNL     1       0.266  -0.041  22.428  0.00  0.00    -0.203 F 
ATOM      3  F   UNL     1       4.863  -0.271  21.331  0.00  0.00    -0.205 F 
ATOM     26  C   UNL     1       1.827   1.221  23.699  0.00  0.00    +0.070 A 
ATOM     29  C   UNL     1       1.532   0.334  22.663  0.00  0.00    +0.147 A 
ATOM     30  C   UNL     1       3.147   1.604  23.934  0.00  0.00    +0.029 A 
ATOM     31  C   UNL     1       2.557  -0.171  21.863  0.00  0.00    +0.078 A 
ATOM     32  C   UNL     1       4.172   1.099  23.135  0.00  0.00    +0.040 A 
ATOM     33  C   UNL     1       3.878   0.212  22.099  0.00  0.00    +0.126 A 
ENDBRANCH  12  26
ENDBRANCH  14  10
BRANCH  13  17
ATOM      4  O   UNL     1      -2.845   1.706  22.088  0.00  0.00    -0.274 OA
ATOM     11  N   UNL     1      -3.398   0.759  24.141  0.00  0.00    -0.301 N 
ATOM     17  C   UNL     1      -3.274   1.798  23.235  0.00  0.00    +0.234 C 
ATOM     35  H   UNL     1      -3.704   0.964  25.087  0.00  0.00    +0.150 HD
BRANCH  11  19
ATOM     19  C   UNL     1      -3.027  -0.604  23.835  0.00  0.00    +0.184 C 
BRANCH  19  20
ATOM     20  C   UNL     1      -4.079  -1.626  24.318  0.00  0.00    +0.014 C 
ATOM     24  C   UNL     1      -3.580  -2.516  25.460  0.00  0.00    +0.009 C 
ATOM     25  C   UNL     1      -4.581  -2.495  23.160  0.00  0.00    +0.009 C 
ENDBRANCH  19  20
BRANCH  19  23
ATOM      8  O   UNL     1      -0.990  -1.902  23.972  0.00  0.00    -0.249 OA
ATOM     23  C   UNL     1      -1.640  -0.942  24.374  0.00  0.00    +0.328 C 
BRANCH  23   7
ATOM      7  O   UNL     1      -1.231  -0.063  25.331  0.00  0.00    -0.467 OA
ATOM     28  C   UNL     1      -0.902  -0.635  26.601  0.00  0.00    +0.280 C 
ENDBRANCH  23   7
ENDBRANCH  19  23
ENDBRANCH  11  19
ENDBRANCH  13  17
BRANCH  18  21
ATOM     21  C   UNL     1      -5.699   2.336  26.997  0.00  0.00    +0.164 C 
BRANCH  21   1
ATOM      1  S   UNL     1      -7.275   1.495  27.208  0.00  0.00    -0.155 S 
ATOM     27  C   UNL     1      -6.858   0.478  28.646  0.00  0.00    +0.085 C 
ENDBRANCH  21   1
ENDBRANCH  18  21
TORSDOF 9
ENDMDL
MODEL 5
REMARK VINA RESULT:       4.2      1.992      4.480
REMARK  Name = 7049404
REMARK  13 active torsions:
REMARK  status: ('A' for Active; 'I' for Inactive)
REMARK    1  A    between atoms: S_1  and  C_21
REMARK    2  A    between atoms: S_1  and  C_27
REMARK    3  A    between atoms: O_7  and  C_23
REMARK    4  A    between atoms: O_7  and  C_28
REMARK    5  A    between atoms: N_10  and  C_14
REMARK    6  A    between atoms: N_11  and  C_19
REMARK    7  A    between atoms: N_12  and  C_26
REMARK    8  A    between atoms: C_13  and  C_17
REMARK    9  A    between atoms: C_18  and  C_21
REMARK   10  A    between atoms: C_19  and  C_20
REMARK   11  A    between atoms: C_19  and  C_23
REMARK   12  A    between atoms: C_20  and  C_24
REMARK   13  A    between atoms: C_20  and  C_25
REMARK                            x       y       z     vdW  Elec       q    Type
REMARK                         _______ _______ _______ _____ _____    ______ ____
ROOT
ATOM      5  O   UNL     1      -4.583   3.271  27.157  0.00  0.00    -0.275 OA
ATOM      9  N   UNL     1      -3.965   3.231  24.926  0.00  0.00    -0.287 N 
ATOM     13  C   UNL     1      -4.911   2.202  24.517  0.00  0.00    +0.164 C 
ATOM     14  C   UNL     1      -3.522   2.802  22.633  0.00  0.00    +0.094 C 
ATOM     15  C   UNL     1      -4.901   2.238  22.990  0.00  0.00    +0.055 C 
ATOM     16  C   UNL     1      -3.219   3.756  23.783  0.00  0.00    +0.131 C 
ATOM     18  C   UNL     1      -3.939   3.740  26.216  0.00  0.00    +0.226 C 
ENDROOT
BRANCH  14  10
ATOM      6  O   UNL     1      -0.691   3.095  22.954  0.00  0.00    -0.252 OA
ATOM     10  N   UNL     1      -2.530   1.762  22.522  0.00  0.00    -0.295 N 
ATOM     12  N   UNL     1      -0.443   0.799  22.529  0.00  0.00    -0.267 N 
ATOM     22  C   UNL     1      -1.158   1.989  22.694  0.00  0.00    +0.304 C 
ATOM     34  H   UNL     1      -2.832   0.833  22.243  0.00  0.00    +0.151 HD
ATOM     36  H   UNL     1      -0.983  -0.035  22.314  0.00  0.00    +0.156 HD
BRANCH  12  26
ATOM      2  F   UNL     1       0.924  -0.853  20.749  0.00  0.00    -0.203 F 
ATOM      3  F   UNL     1       5.038   0.059  22.900  0.00  0.00    -0.205 F 
ATOM     26  C   UNL     1       0.955   0.608  22.622  0.00  0.00    +0.070 A 
ATOM     29  C   UNL     1       1.610  -0.225  21.715  0.00  0.00    +0.147 A 
ATOM     30  C   UNL     1       1.680   1.255  23.623  0.00  0.00    +0.029 A 
ATOM     31  C   UNL     1       2.989  -0.412  21.809  0.00  0.00    +0.078 A 
ATOM     32  C   UNL     1       3.059   1.069  23.717  0.00  0.00    +0.040 A 
ATOM     33  C   UNL     1       3.714   0.236  22.810  0.00  0.00    +0.126 A 
ENDBRANCH  12  26
ENDBRANCH  14  10
BRANCH  13  17
ATOM      4  O   UNL     1      -4.887   0.393  26.075  0.00  0.00    -0.274 OA
ATOM     11  N   UNL     1      -3.458   0.319  24.239  0.00  0.00    -0.301 N 
ATOM     17  C   UNL     1      -4.439   0.878  25.039  0.00  0.00    +0.234 C 
ATOM     35  H   UNL     1      -3.213   0.777  23.367  0.00  0.00    +0.150 HD
BRANCH  11  19
ATOM     19  C   UNL     1      -2.821  -0.944  24.536  0.00  0.00    +0.184 C 
BRANCH  19  20
ATOM     20  C   UNL     1      -3.839  -2.093  24.707  0.00  0.00    +0.014 C 
ATOM     24  C   UNL     1      -3.188  -3.425  25.097  0.00  0.00    +0.009 C 
ATOM     25  C   UNL     1      -4.687  -2.277  23.445  0.00  0.00    +0.009 C 
ENDBRANCH  19  20
BRANCH  19  23
ATOM      8  O   UNL     1      -2.311  -0.884  26.899  0.00  0.00    -0.249 OA
ATOM     23  C   UNL     1      -1.898  -0.837  25.745  0.00  0.00    +0.328 C 
BRANCH  23   7
ATOM      7  O   UNL     1      -0.593  -0.685  25.385  0.00  0.00    -0.467 OA
ATOM     28  C   UNL     1       0.096  -1.886  25.022  0.00  0.00    +0.280 C 
ENDBRANCH  23   7
ENDBRANCH  19  23
ENDBRANCH  11  19
ENDBRANCH  13  17
BRANCH  18  21
ATOM     21  C   UNL     1      -3.042   4.933  26.427  0.00  0.00    +0.164 C 
BRANCH  21   1
ATOM      1  S   UNL     1      -1.509   4.628  25.536  0.00  0.00    -0.155 S 
ATOM     27  C   UNL     1      -1.030   3.073  26.330  0.00  0.00    +0.085 C 
ENDBRANCH  21   1
ENDBRANCH  18  21
TORSDOF 9
ENDMDL
MODEL 6
REMARK VINA RESULT:       4.6      2.082      4.179
REMARK  Name = 7049404
REMARK  13 active torsions:
REMARK  status: ('A' for Active; 'I' for Inactive)
REMARK    1  A    between atoms: S_1  and  C_21
REMARK    2  A    between atoms: S_1  and  C_27
REMARK    3  A    between atoms: O_7  and  C_23
REMARK    4  A    between atoms: O_7  and  C_28
REMARK    5  A    between atoms: N_10  and  C_14
REMARK    6  A    between atoms: N_11  and  C_19
REMARK    7  A    between atoms: N_12  and  C_26
REMARK    8  A    between atoms: C_13  and  C_17
REMARK    9  A    between atoms: C_18  and  C_21
REMARK   10  A    between atoms: C_19  and  C_20
REMARK   11  A    between atoms: C_19  and  C_23
REMARK   12  A    between atoms: C_20  and  C_24
REMARK   13  A    between atoms: C_20  and  C_25
REMARK                            x       y       z     vdW  Elec       q    Type
REMARK                         _______ _______ _______ _____ _____    ______ ____
ROOT
ATOM      5  O   UNL     1      -5.095   3.009  27.131  0.00  0.00    -0.275 OA
ATOM      9  N   UNL     1      -4.204   3.056  24.995  0.00  0.00    -0.287 N 
ATOM     13  C   UNL     1      -5.094   2.051  24.428  0.00  0.00    +0.164 C 
ATOM     14  C   UNL     1      -3.480   2.719  22.758  0.00  0.00    +0.094 C 
ATOM     15  C   UNL     1      -4.894   2.151  22.917  0.00  0.00    +0.055 C 
ATOM     16  C   UNL     1      -3.321   3.623  23.976  0.00  0.00    +0.131 C 
ATOM     18  C   UNL     1      -4.339   3.511  26.298  0.00  0.00    +0.226 C 
ENDROOT
BRANCH  14  10
ATOM      6  O   UNL     1      -0.637   3.068  22.815  0.00  0.00    -0.252 OA
ATOM     10  N   UNL     1      -2.484   1.679  22.728  0.00  0.00    -0.295 N 
ATOM     12  N   UNL     1      -0.388   0.735  22.719  0.00  0.00    -0.267 N 
ATOM     22  C   UNL     1      -1.106   1.933  22.759  0.00  0.00    +0.304 C 
ATOM     34  H   UNL     1      -2.792   0.717  22.614  0.00  0.00    +0.151 HD
ATOM     36  H   UNL     1      -0.931  -0.124  22.672  0.00  0.00    +0.156 HD
BRANCH  12  26
ATOM      2  F   UNL     1       0.910  -0.822  20.807  0.00  0.00    -0.203 F 
ATOM      3  F   UNL     1       5.116   0.077  22.778  0.00  0.00    -0.205 F 
ATOM     26  C   UNL     1       1.016   0.565  22.733  0.00  0.00    +0.070 A 
ATOM     29  C   UNL     1       1.636  -0.221  21.760  0.00  0.00    +0.147 A 
ATOM     30  C   UNL     1       1.782   1.185  23.720  0.00  0.00    +0.029 A 
ATOM     31  C   UNL     1       3.021  -0.386  21.776  0.00  0.00    +0.078 A 
ATOM     32  C   UNL     1       3.166   1.019  23.736  0.00  0.00    +0.040 A 
ATOM     33  C   UNL     1       3.786   0.234  22.763  0.00  0.00    +0.126 A 
ENDBRANCH  12  26
ENDBRANCH  14  10
BRANCH  13  17
ATOM      4  O   UNL     1      -5.524  -0.146  25.256  0.00  0.00    -0.274 OA
ATOM     11  N   UNL     1      -3.319   0.570  25.052  0.00  0.00    -0.301 N 
ATOM     17  C   UNL     1      -4.693   0.704  24.949  0.00  0.00    +0.234 C 
ATOM     35  H   UNL     1      -2.724   1.315  24.704  0.00  0.00    +0.150 HD
BRANCH  11  19
ATOM     19  C   UNL     1      -2.677  -0.626  25.549  0.00  0.00    +0.184 C 
BRANCH  19  20
ATOM     20  C   UNL     1      -1.306  -0.334  26.196  0.00  0.00    +0.014 C 
ATOM     24  C   UNL     1      -0.817   1.099  25.959  0.00  0.00    +0.009 C 
ATOM     25  C   UNL     1      -0.244  -1.332  25.723  0.00  0.00    +0.009 C 
ENDBRANCH  19  20
BRANCH  19  23
ATOM      8  O   UNL     1      -1.781  -1.601  23.525  0.00  0.00    -0.249 OA
ATOM     23  C   UNL     1      -2.562  -1.694  24.466  0.00  0.00    +0.328 C 
BRANCH  23   7
ATOM      7  O   UNL     1      -3.418  -2.733  24.675  0.00  0.00    -0.467 OA
ATOM     28  C   UNL     1      -4.461  -2.885  23.707  0.00  0.00    +0.280 C 
ENDBRANCH  23   7
ENDBRANCH  19  23
ENDBRANCH  11  19
ENDBRANCH  13  17
BRANCH  18  21
ATOM     21  C   UNL     1      -3.472   4.688  26.668  0.00  0.00    +0.164 C 
BRANCH  21   1
ATOM      1  S   UNL     1      -1.781   4.291  26.200  0.00  0.00    -0.155 S 
ATOM     27  C   UNL     1      -1.472   5.674  25.073  0.00  0.00    +0.085 C 
ENDBRANCH  21   1
ENDBRANCH  18  21
TORSDOF 9
ENDMDL
