MODEL 1
REMARK VINA RESULT:      -4.4      0.000      0.000
REMARK  Name = 26743960
REMARK  6 active torsions:
REMARK  status: ('A' for Active; 'I' for Inactive)
REMARK    1  A    between atoms: O_1  and  C_10
REMARK    2  A    between atoms: N_3  and  C_12
REMARK    3  A    between atoms: C_8  and  C_13
REMARK    4  A    between atoms: C_12  and  C_14
REMARK    5  A    between atoms: C_17  and  C_20
REMARK    6  A    between atoms: C_18  and  C_24
REMARK                            x       y       z     vdW  Elec       q    Type
REMARK                         _______ _______ _______ _____ _____    ______ ____
ROOT
ATOM      3  N   UNL     1      -4.617   1.450  24.746  0.00  0.00    -0.285 NA
ATOM      8  C   UNL     1      -3.762   2.510  24.176  0.00  0.00    +0.149 C 
ATOM      9  C   UNL     1      -4.142   3.783  24.954  0.00  0.00    +0.061 C 
ATOM     10  C   UNL     1      -5.248   3.348  25.907  0.00  0.00    +0.130 C 
ATOM     11  C   UNL     1      -5.823   2.111  25.242  0.00  0.00    +0.116 C 
ENDROOT
BRANCH   8  13
ATOM      2  O   UNL     1      -1.675   2.478  25.446  0.00  0.00    -0.336 OA
ATOM      4  N   UNL     1      -1.496   1.652  23.372  0.00  0.00    -0.190 NA
ATOM      5  N   UNL     1      -0.337   2.092  25.295  0.00  0.00    -0.056 NA
ATOM     13  C   UNL     1      -2.287   2.184  24.270  0.00  0.00    +0.245 A 
ATOM     17  C   UNL     1      -0.311   1.615  24.047  0.00  0.00    +0.204 A 
BRANCH  17  20
ATOM      6  N   UNL     1       3.269   1.272  23.103  0.00  0.00    -0.263 NA
ATOM     20  C   UNL     1       0.883   1.095  23.445  0.00  0.00    +0.041 A 
ATOM     22  C   UNL     1       0.846  -0.045  22.650  0.00  0.00    +0.014 A 
ATOM     23  C   UNL     1       2.109   1.711  23.640  0.00  0.00    +0.122 A 
ATOM     25  C   UNL     1       2.020  -0.527  22.079  0.00  0.00    +0.020 A 
ATOM     26  C   UNL     1       3.195   0.162  22.335  0.00  0.00    +0.111 A 
ENDBRANCH  17  20
ENDBRANCH   8  13
BRANCH  10   1
ATOM      1  O   UNL     1      -6.219   4.367  26.048  0.00  0.00    -0.390 OA
ATOM     27  H   UNL     1      -7.094   3.951  25.963  0.00  0.00    +0.210 HD
ENDBRANCH  10   1
BRANCH   3  12
ATOM     12  C   UNL     1      -4.926   0.387  23.798  0.00  0.00    +0.120 C 
BRANCH  12  14
ATOM     14  C   UNL     1      -4.128  -0.860  24.073  0.00  0.00    -0.032 A 
ATOM     15  C   UNL     1      -2.838  -0.762  24.595  0.00  0.00    +0.023 A 
ATOM     16  C   UNL     1      -4.679  -2.112  23.805  0.00  0.00    +0.005 A 
ATOM     18  C   UNL     1      -2.099  -1.918  24.849  0.00  0.00    +0.052 A 
ATOM     19  C   UNL     1      -3.941  -3.268  24.058  0.00  0.00    +0.002 A 
ATOM     21  C   UNL     1      -2.651  -3.171  24.581  0.00  0.00    +0.019 A 
BRANCH  18  24
ATOM      7  N   UNL     1       0.293  -1.740  25.822  0.00  0.00    -0.191 NA
ATOM     24  C   UNL     1      -0.779  -1.819  25.386  0.00  0.00    +0.099 C 
ENDBRANCH  18  24
ENDBRANCH  12  14
ENDBRANCH   3  12
TORSDOF 6
ENDMDL
MODEL 2
REMARK VINA RESULT:      -3.9      2.624      3.280
REMARK  Name = 26743960
REMARK  6 active torsions:
REMARK  status: ('A' for Active; 'I' for Inactive)
REMARK    1  A    between atoms: O_1  and  C_10
REMARK    2  A    between atoms: N_3  and  C_12
REMARK    3  A    between atoms: C_8  and  C_13
REMARK    4  A    between atoms: C_12  and  C_14
REMARK    5  A    between atoms: C_17  and  C_20
REMARK    6  A    between atoms: C_18  and  C_24
REMARK                            x       y       z     vdW  Elec       q    Type
REMARK                         _______ _______ _______ _____ _____    ______ ____
ROOT
ATOM      3  N   UNL     1      -3.935   1.963  24.673  0.00  0.00    -0.285 NA
ATOM      8  C   UNL     1      -3.082   3.168  24.685  0.00  0.00    +0.149 C 
ATOM      9  C   UNL     1      -3.900   4.222  25.452  0.00  0.00    +0.061 C 
ATOM     10  C   UNL     1      -5.215   3.531  25.792  0.00  0.00    +0.130 C 
ATOM     11  C   UNL     1      -5.317   2.432  24.751  0.00  0.00    +0.116 C 
ENDROOT
BRANCH   8  13
ATOM      2  O   UNL     1      -0.742   2.501  24.461  0.00  0.00    -0.336 OA
ATOM      4  N   UNL     1      -1.345   3.036  26.551  0.00  0.00    -0.190 NA
ATOM      5  N   UNL     1       0.403   2.336  25.251  0.00  0.00    -0.056 NA
ATOM     13  C   UNL     1      -1.724   2.915  25.304  0.00  0.00    +0.245 A 
ATOM     17  C   UNL     1      -0.033   2.670  26.469  0.00  0.00    +0.204 A 
BRANCH  17  20
ATOM      6  N   UNL     1       3.007   3.008  28.584  0.00  0.00    -0.263 NA
ATOM     20  C   UNL     1       0.817   2.650  27.625  0.00  0.00    +0.041 A 
ATOM     22  C   UNL     1       0.325   2.275  28.870  0.00  0.00    +0.014 A 
ATOM     23  C   UNL     1       2.154   3.005  27.536  0.00  0.00    +0.122 A 
ATOM     25  C   UNL     1       1.172   2.265  29.973  0.00  0.00    +0.020 A 
ATOM     26  C   UNL     1       2.493   2.637  29.779  0.00  0.00    +0.111 A 
ENDBRANCH  17  20
ENDBRANCH   8  13
BRANCH  10   1
ATOM      1  O   UNL     1      -6.296   4.439  25.705  0.00  0.00    -0.390 OA
ATOM     27  H   UNL     1      -6.141   5.006  24.930  0.00  0.00    +0.210 HD
ENDBRANCH  10   1
BRANCH   3  12
ATOM     12  C   UNL     1      -3.711   1.110  23.513  0.00  0.00    +0.120 C 
BRANCH  12  14
ATOM     14  C   UNL     1      -3.382  -0.305  23.912  0.00  0.00    -0.032 A 
ATOM     15  C   UNL     1      -2.105  -0.621  24.374  0.00  0.00    +0.023 A 
ATOM     16  C   UNL     1      -4.356  -1.299  23.818  0.00  0.00    +0.005 A 
ATOM     18  C   UNL     1      -1.801  -1.932  24.743  0.00  0.00    +0.052 A 
ATOM     19  C   UNL     1      -4.053  -2.610  24.185  0.00  0.00    +0.002 A 
ATOM     21  C   UNL     1      -2.776  -2.926  24.648  0.00  0.00    +0.019 A 
BRANCH  18  24
ATOM      7  N   UNL     1       0.567  -2.519  25.607  0.00  0.00    -0.191 NA
ATOM     24  C   UNL     1      -0.494  -2.256  25.219  0.00  0.00    +0.099 C 
ENDBRANCH  18  24
ENDBRANCH  12  14
ENDBRANCH   3  12
TORSDOF 6
ENDMDL
MODEL 3
REMARK VINA RESULT:      -3.1      1.792      2.494
REMARK  Name = 26743960
REMARK  6 active torsions:
REMARK  status: ('A' for Active; 'I' for Inactive)
REMARK    1  A    between atoms: O_1  and  C_10
REMARK    2  A    between atoms: N_3  and  C_12
REMARK    3  A    between atoms: C_8  and  C_13
REMARK    4  A    between atoms: C_12  and  C_14
REMARK    5  A    between atoms: C_17  and  C_20
REMARK    6  A    between atoms: C_18  and  C_24
REMARK                            x       y       z     vdW  Elec       q    Type
REMARK                         _______ _______ _______ _____ _____    ______ ____
ROOT
ATOM      3  N   UNL     1      -2.478   2.079  24.654  0.00  0.00    -0.285 NA
ATOM      8  C   UNL     1      -1.521   2.622  23.670  0.00  0.00    +0.149 C 
ATOM      9  C   UNL     1      -1.019   3.936  24.294  0.00  0.00    +0.061 C 
ATOM     10  C   UNL     1      -1.782   4.068  25.606  0.00  0.00    +0.130 C 
ATOM     11  C   UNL     1      -3.023   3.225  25.380  0.00  0.00    +0.116 C 
ENDROOT
BRANCH   8  13
ATOM      2  O   UNL     1      -0.710   0.615  22.538  0.00  0.00    -0.336 OA
ATOM      4  N   UNL     1       0.847   1.673  23.751  0.00  0.00    -0.190 NA
ATOM      5  N   UNL     1       0.469  -0.128  22.392  0.00  0.00    -0.056 NA
ATOM     13  C   UNL     1      -0.400   1.657  23.352  0.00  0.00    +0.245 A 
ATOM     17  C   UNL     1       1.340   0.560  23.136  0.00  0.00    +0.204 A 
BRANCH  17  20
ATOM      6  N   UNL     1       4.310  -1.569  23.825  0.00  0.00    -0.263 NA
ATOM     20  C   UNL     1       2.710   0.161  23.285  0.00  0.00    +0.041 A 
ATOM     22  C   UNL     1       3.747   1.057  23.049  0.00  0.00    +0.014 A 
ATOM     23  C   UNL     1       3.042  -1.129  23.667  0.00  0.00    +0.122 A 
ATOM     25  C   UNL     1       5.066   0.641  23.201  0.00  0.00    +0.020 A 
ATOM     26  C   UNL     1       5.292  -0.670  23.587  0.00  0.00    +0.111 A 
ENDBRANCH  17  20
ENDBRANCH   8  13
BRANCH  10   1
ATOM      1  O   UNL     1      -2.107   5.421  25.864  0.00  0.00    -0.390 OA
ATOM     27  H   UNL     1      -1.613   5.966  25.228  0.00  0.00    +0.210 HD
ENDBRANCH  10   1
BRANCH   3  12
ATOM     12  C   UNL     1      -3.526   1.265  24.051  0.00  0.00    +0.120 C 
BRANCH  12  14
ATOM     14  C   UNL     1      -3.273  -0.207  24.242  0.00  0.00    -0.032 A 
ATOM     15  C   UNL     1      -2.029  -0.649  24.691  0.00  0.00    +0.023 A 
ATOM     16  C   UNL     1      -4.284  -1.128  23.969  0.00  0.00    +0.005 A 
ATOM     18  C   UNL     1      -1.796  -2.014  24.868  0.00  0.00    +0.052 A 
ATOM     19  C   UNL     1      -4.052  -2.492  24.144  0.00  0.00    +0.002 A 
ATOM     21  C   UNL     1      -2.808  -2.935  24.595  0.00  0.00    +0.019 A 
BRANCH  18  24
ATOM      7  N   UNL     1       0.511  -2.835  25.707  0.00  0.00    -0.191 NA
ATOM     24  C   UNL     1      -0.523  -2.467  25.331  0.00  0.00    +0.099 C 
ENDBRANCH  18  24
ENDBRANCH  12  14
ENDBRANCH   3  12
TORSDOF 6
ENDMDL
MODEL 4
REMARK VINA RESULT:      -2.7      2.282      4.755
REMARK  Name = 26743960
REMARK  6 active torsions:
REMARK  status: ('A' for Active; 'I' for Inactive)
REMARK    1  A    between atoms: O_1  and  C_10
REMARK    2  A    between atoms: N_3  and  C_12
REMARK    3  A    between atoms: C_8  and  C_13
REMARK    4  A    between atoms: C_12  and  C_14
REMARK    5  A    between atoms: C_17  and  C_20
REMARK    6  A    between atoms: C_18  and  C_24
REMARK                            x       y       z     vdW  Elec       q    Type
REMARK                         _______ _______ _______ _____ _____    ______ ____
ROOT
ATOM      3  N   UNL     1      -3.060  -0.669  24.732  0.00  0.00    -0.285 NA
ATOM      8  C   UNL     1      -1.857  -1.523  24.798  0.00  0.00    +0.149 C 
ATOM      9  C   UNL     1      -2.251  -2.815  24.060  0.00  0.00    +0.061 C 
ATOM     10  C   UNL     1      -3.706  -2.611  23.655  0.00  0.00    +0.130 C 
ATOM     11  C   UNL     1      -4.206  -1.572  24.642  0.00  0.00    +0.116 C 
ENDROOT
BRANCH   8  13
ATOM      2  O   UNL     1      -0.859   0.233  23.422  0.00  0.00    -0.336 OA
ATOM      4  N   UNL     1       0.628  -1.178  24.326  0.00  0.00    -0.190 NA
ATOM      5  N   UNL     1       0.402   0.668  22.993  0.00  0.00    -0.056 NA
ATOM     13  C   UNL     1      -0.635  -0.857  24.202  0.00  0.00    +0.245 A 
ATOM     17  C   UNL     1       1.225  -0.214  23.567  0.00  0.00    +0.204 A 
BRANCH  17  20
ATOM      6  N   UNL     1       4.801  -1.231  23.658  0.00  0.00    -0.263 NA
ATOM     20  C   UNL     1       2.649  -0.159  23.402  0.00  0.00    +0.041 A 
ATOM     22  C   UNL     1       3.264   0.961  22.851  0.00  0.00    +0.014 A 
ATOM     23  C   UNL     1       3.455  -1.219  23.786  0.00  0.00    +0.122 A 
ATOM     25  C   UNL     1       4.647   0.985  22.704  0.00  0.00    +0.020 A 
ATOM     26  C   UNL     1       5.363  -0.126  23.119  0.00  0.00    +0.111 A 
ENDBRANCH  17  20
ENDBRANCH   8  13
BRANCH  10   1
ATOM      1  O   UNL     1      -4.430  -3.822  23.757  0.00  0.00    -0.390 OA
ATOM     27  H   UNL     1      -4.345  -4.138  24.673  0.00  0.00    +0.210 HD
ENDBRANCH  10   1
BRANCH   3  12
ATOM     12  C   UNL     1      -3.175   0.251  25.856  0.00  0.00    +0.120 C 
BRANCH  12  14
ATOM     14  C   UNL     1      -3.404   1.668  25.401  0.00  0.00    -0.032 A 
ATOM     15  C   UNL     1      -2.338   2.567  25.353  0.00  0.00    +0.023 A 
ATOM     16  C   UNL     1      -4.682   2.081  25.028  0.00  0.00    +0.005 A 
ATOM     18  C   UNL     1      -2.552   3.880  24.932  0.00  0.00    +0.052 A 
ATOM     19  C   UNL     1      -4.897   3.394  24.607  0.00  0.00    +0.002 A 
ATOM     21  C   UNL     1      -3.831   4.293  24.558  0.00  0.00    +0.019 A 
BRANCH  18  24
ATOM      7  N   UNL     1      -0.575   5.548  24.836  0.00  0.00    -0.191 NA
ATOM     24  C   UNL     1      -1.461   4.800  24.880  0.00  0.00    +0.099 C 
ENDBRANCH  18  24
ENDBRANCH  12  14
ENDBRANCH   3  12
TORSDOF 6
ENDMDL
MODEL 5
REMARK VINA RESULT:      -2.7      2.085      6.046
REMARK  Name = 26743960
REMARK  6 active torsions:
REMARK  status: ('A' for Active; 'I' for Inactive)
REMARK    1  A    between atoms: O_1  and  C_10
REMARK    2  A    between atoms: N_3  and  C_12
REMARK    3  A    between atoms: C_8  and  C_13
REMARK    4  A    between atoms: C_12  and  C_14
REMARK    5  A    between atoms: C_17  and  C_20
REMARK    6  A    between atoms: C_18  and  C_24
REMARK                            x       y       z     vdW  Elec       q    Type
REMARK                         _______ _______ _______ _____ _____    ______ ____
ROOT
ATOM      3  N   UNL     1       0.865  -0.627  23.659  0.00  0.00    -0.285 NA
ATOM      8  C   UNL     1       0.673   0.773  24.087  0.00  0.00    +0.149 C 
ATOM      9  C   UNL     1       1.673   1.583  23.242  0.00  0.00    +0.061 C 
ATOM     10  C   UNL     1       2.411   0.547  22.403  0.00  0.00    +0.130 C 
ATOM     11  C   UNL     1       2.247  -0.735  23.197  0.00  0.00    +0.116 C 
ENDROOT
BRANCH   8  13
ATOM      2  O   UNL     1      -1.238   1.271  22.648  0.00  0.00    -0.336 OA
ATOM      4  N   UNL     1      -1.612   1.640  24.826  0.00  0.00    -0.190 NA
ATOM      5  N   UNL     1      -2.556   1.734  22.744  0.00  0.00    -0.056 NA
ATOM     13  C   UNL     1      -0.755   1.245  23.917  0.00  0.00    +0.245 A 
ATOM     17  C   UNL     1      -2.702   1.929  24.058  0.00  0.00    +0.204 A 
BRANCH  17  20
ATOM      6  N   UNL     1      -5.174   4.249  25.585  0.00  0.00    -0.263 NA
ATOM     20  C   UNL     1      -3.923   2.411  24.635  0.00  0.00    +0.041 A 
ATOM     22  C   UNL     1      -5.016   1.568  24.809  0.00  0.00    +0.014 A 
ATOM     23  C   UNL     1      -4.052   3.732  25.035  0.00  0.00    +0.122 A 
ATOM     25  C   UNL     1      -6.187   2.064  25.371  0.00  0.00    +0.020 A 
ATOM     26  C   UNL     1      -6.215   3.400  25.739  0.00  0.00    +0.111 A 
ENDBRANCH  17  20
ENDBRANCH   8  13
BRANCH  10   1
ATOM      1  O   UNL     1       3.773   0.901  22.252  0.00  0.00    -0.390 OA
ATOM     27  H   UNL     1       4.255   0.541  23.016  0.00  0.00    +0.210 HD
ENDBRANCH  10   1
BRANCH   3  12
ATOM     12  C   UNL     1       0.559  -1.596  24.703  0.00  0.00    +0.120 C 
BRANCH  12  14
ATOM     14  C   UNL     1      -0.893  -1.555  25.099  0.00  0.00    -0.032 A 
ATOM     15  C   UNL     1      -1.866  -2.067  24.240  0.00  0.00    +0.023 A 
ATOM     16  C   UNL     1      -1.265  -1.004  26.325  0.00  0.00    +0.005 A 
ATOM     18  C   UNL     1      -3.211  -2.028  24.608  0.00  0.00    +0.052 A 
ATOM     19  C   UNL     1      -2.610  -0.964  26.693  0.00  0.00    +0.002 A 
ATOM     21  C   UNL     1      -3.583  -1.477  25.834  0.00  0.00    +0.019 A 
BRANCH  18  24
ATOM      7  N   UNL     1      -5.017  -2.983  23.018  0.00  0.00    -0.191 NA
ATOM     24  C   UNL     1      -4.207  -2.555  23.730  0.00  0.00    +0.099 C 
ENDBRANCH  18  24
ENDBRANCH  12  14
ENDBRANCH   3  12
TORSDOF 6
ENDMDL
MODEL 6
REMARK VINA RESULT:      -2.4      1.924      5.803
REMARK  Name = 26743960
REMARK  6 active torsions:
REMARK  status: ('A' for Active; 'I' for Inactive)
REMARK    1  A    between atoms: O_1  and  C_10
REMARK    2  A    between atoms: N_3  and  C_12
REMARK    3  A    between atoms: C_8  and  C_13
REMARK    4  A    between atoms: C_12  and  C_14
REMARK    5  A    between atoms: C_17  and  C_20
REMARK    6  A    between atoms: C_18  and  C_24
REMARK                            x       y       z     vdW  Elec       q    Type
REMARK                         _______ _______ _______ _____ _____    ______ ____
ROOT
ATOM      3  N   UNL     1       0.352  -0.381  23.722  0.00  0.00    -0.285 NA
ATOM      8  C   UNL     1       0.999   0.773  24.378  0.00  0.00    +0.149 C 
ATOM      9  C   UNL     1       2.007   1.301  23.342  0.00  0.00    +0.061 C 
ATOM     10  C   UNL     1       1.886   0.353  22.155  0.00  0.00    +0.130 C 
ATOM     11  C   UNL     1       1.324  -0.915  22.769  0.00  0.00    +0.116 C 
ENDROOT
BRANCH   8  13
ATOM      2  O   UNL     1       0.496   2.849  25.565  0.00  0.00    -0.336 OA
ATOM      4  N   UNL     1      -1.282   1.903  24.585  0.00  0.00    -0.190 NA
ATOM      5  N   UNL     1      -0.594   3.682  25.848  0.00  0.00    -0.056 NA
ATOM     13  C   UNL     1       0.004   1.826  24.819  0.00  0.00    +0.245 A 
ATOM     17  C   UNL     1      -1.604   3.058  25.236  0.00  0.00    +0.204 A 
BRANCH  17  20
ATOM      6  N   UNL     1      -4.904   4.174  26.536  0.00  0.00    -0.263 NA
ATOM     20  C   UNL     1      -2.947   3.561  25.256  0.00  0.00    +0.041 A 
ATOM     22  C   UNL     1      -3.595   3.922  24.079  0.00  0.00    +0.014 A 
ATOM     23  C   UNL     1      -3.639   3.706  26.448  0.00  0.00    +0.122 A 
ATOM     25  C   UNL     1      -4.897   4.408  24.129  0.00  0.00    +0.020 A 
ATOM     26  C   UNL     1      -5.502   4.514  25.371  0.00  0.00    +0.111 A 
ENDBRANCH  17  20
ENDBRANCH   8  13
BRANCH  10   1
ATOM      1  O   UNL     1       3.150   0.132  21.558  0.00  0.00    -0.390 OA
ATOM     27  H   UNL     1       3.248   0.776  20.836  0.00  0.00    +0.210 HD
ENDBRANCH  10   1
BRANCH   3  12
ATOM     12  C   UNL     1      -0.107  -1.395  24.662  0.00  0.00    +0.120 C 
BRANCH  12  14
ATOM     14  C   UNL     1      -1.588  -1.642  24.542  0.00  0.00    -0.032 A 
ATOM     15  C   UNL     1      -2.489  -0.599  24.753  0.00  0.00    +0.023 A 
ATOM     16  C   UNL     1      -2.057  -2.915  24.221  0.00  0.00    +0.005 A 
ATOM     18  C   UNL     1      -3.861  -0.829  24.642  0.00  0.00    +0.052 A 
ATOM     19  C   UNL     1      -3.428  -3.147  24.111  0.00  0.00    +0.002 A 
ATOM     21  C   UNL     1      -4.330  -2.103  24.320  0.00  0.00    +0.019 A 
BRANCH  18  24
ATOM      7  N   UNL     1      -5.536   1.106  25.028  0.00  0.00    -0.191 NA
ATOM     24  C   UNL     1      -4.784   0.239  24.854  0.00  0.00    +0.099 C 
ENDBRANCH  18  24
ENDBRANCH  12  14
ENDBRANCH   3  12
TORSDOF 6
ENDMDL
MODEL 7
REMARK VINA RESULT:      -2.2      2.287      4.982
REMARK  Name = 26743960
REMARK  6 active torsions:
REMARK  status: ('A' for Active; 'I' for Inactive)
REMARK    1  A    between atoms: O_1  and  C_10
REMARK    2  A    between atoms: N_3  and  C_12
REMARK    3  A    between atoms: C_8  and  C_13
REMARK    4  A    between atoms: C_12  and  C_14
REMARK    5  A    between atoms: C_17  and  C_20
REMARK    6  A    between atoms: C_18  and  C_24
REMARK                            x       y       z     vdW  Elec       q    Type
REMARK                         _______ _______ _______ _____ _____    ______ ____
ROOT
ATOM      3  N   UNL     1      -2.460   0.094  23.199  0.00  0.00    -0.285 NA
ATOM      8  C   UNL     1      -1.394   0.008  24.218  0.00  0.00    +0.149 C 
ATOM      9  C   UNL     1      -1.772  -1.209  25.081  0.00  0.00    +0.061 C 
ATOM     10  C   UNL     1      -3.087  -1.713  24.498  0.00  0.00    +0.130 C 
ATOM     11  C   UNL     1      -3.657  -0.493  23.799  0.00  0.00    +0.116 C 
ENDROOT
BRANCH   8  13
ATOM      2  O   UNL     1       0.043  -0.260  22.260  0.00  0.00    -0.336 OA
ATOM      4  N   UNL     1       1.157  -0.092  24.196  0.00  0.00    -0.190 NA
ATOM      5  N   UNL     1       1.403  -0.347  21.935  0.00  0.00    -0.056 NA
ATOM     13  C   UNL     1      -0.014  -0.111  23.609  0.00  0.00    +0.245 A 
ATOM     17  C   UNL     1       1.994  -0.240  23.129  0.00  0.00    +0.204 A 
BRANCH  17  20
ATOM      6  N   UNL     1       5.552   0.837  23.057  0.00  0.00    -0.263 NA
ATOM     20  C   UNL     1       3.419  -0.277  23.289  0.00  0.00    +0.041 A 
ATOM     22  C   UNL     1       4.053  -1.400  23.809  0.00  0.00    +0.014 A 
ATOM     23  C   UNL     1       4.207   0.806  22.932  0.00  0.00    +0.122 A 
ATOM     25  C   UNL     1       5.437  -1.406  23.953  0.00  0.00    +0.020 A 
ATOM     26  C   UNL     1       6.134  -0.273  23.566  0.00  0.00    +0.111 A 
ENDBRANCH  17  20
ENDBRANCH   8  13
BRANCH  10   1
ATOM      1  O   UNL     1      -3.944  -2.179  25.523  0.00  0.00    -0.390 OA
ATOM     27  H   UNL     1      -4.254  -3.064  25.264  0.00  0.00    +0.210 HD
ENDBRANCH  10   1
BRANCH   3  12
ATOM     12  C   UNL     1      -2.695   1.452  22.725  0.00  0.00    +0.120 C 
BRANCH  12  14
ATOM     14  C   UNL     1      -2.815   2.431  23.863  0.00  0.00    -0.032 A 
ATOM     15  C   UNL     1      -4.066   2.930  24.225  0.00  0.00    +0.023 A 
ATOM     16  C   UNL     1      -1.674   2.840  24.553  0.00  0.00    +0.005 A 
ATOM     18  C   UNL     1      -4.176   3.837  25.279  0.00  0.00    +0.052 A 
ATOM     19  C   UNL     1      -1.783   3.748  25.606  0.00  0.00    +0.002 A 
ATOM     21  C   UNL     1      -3.035   4.246  25.969  0.00  0.00    +0.019 A 
BRANCH  18  24
ATOM      7  N   UNL     1      -6.498   4.760  25.957  0.00  0.00    -0.191 NA
ATOM     24  C   UNL     1      -5.457   4.346  25.654  0.00  0.00    +0.099 C 
ENDBRANCH  18  24
ENDBRANCH  12  14
ENDBRANCH   3  12
TORSDOF 6
ENDMDL
MODEL 8
REMARK VINA RESULT:      -1.9     17.430     20.180
REMARK  Name = 26743960
REMARK  6 active torsions:
REMARK  status: ('A' for Active; 'I' for Inactive)
REMARK    1  A    between atoms: O_1  and  C_10
REMARK    2  A    between atoms: N_3  and  C_12
REMARK    3  A    between atoms: C_8  and  C_13
REMARK    4  A    between atoms: C_12  and  C_14
REMARK    5  A    between atoms: C_17  and  C_20
REMARK    6  A    between atoms: C_18  and  C_24
REMARK                            x       y       z     vdW  Elec       q    Type
REMARK                         _______ _______ _______ _____ _____    ______ ____
ROOT
ATOM      3  N   UNL     1      16.452  -7.469  28.890  0.00  0.00    -0.285 NA
ATOM      8  C   UNL     1      15.107  -6.861  28.843  0.00  0.00    +0.149 C 
ATOM      9  C   UNL     1      14.517  -7.315  27.496  0.00  0.00    +0.061 C 
ATOM     10  C   UNL     1      15.619  -8.136  26.838  0.00  0.00    +0.130 C 
ATOM     11  C   UNL     1      16.884  -7.628  27.503  0.00  0.00    +0.116 C 
ENDROOT
BRANCH   8  13
ATOM      2  O   UNL     1      14.737  -6.964  31.256  0.00  0.00    -0.336 OA
ATOM      4  N   UNL     1      13.079  -7.850  30.038  0.00  0.00    -0.190 NA
ATOM      5  N   UNL     1      13.780  -7.418  32.173  0.00  0.00    -0.056 NA
ATOM     13  C   UNL     1      14.246  -7.257  30.024  0.00  0.00    +0.245 A 
ATOM     17  C   UNL     1      12.834  -7.926  31.378  0.00  0.00    +0.204 A 
BRANCH  17  20
ATOM      6  N   UNL     1       9.313  -8.265  32.525  0.00  0.00    -0.263 NA
ATOM     20  C   UNL     1      11.632  -8.518  31.891  0.00  0.00    +0.041 A 
ATOM     22  C   UNL     1      11.589  -9.862  32.245  0.00  0.00    +0.014 A 
ATOM     23  C   UNL     1      10.476  -7.769  32.048  0.00  0.00    +0.122 A 
ATOM     25  C   UNL     1      10.410 -10.409  32.740  0.00  0.00    +0.020 A 
ATOM     26  C   UNL     1       9.309  -9.575  32.860  0.00  0.00    +0.111 A 
ENDBRANCH  17  20
ENDBRANCH   8  13
BRANCH  10   1
ATOM      1  O   UNL     1      15.638  -7.922  25.440  0.00  0.00    -0.390 OA
ATOM     27  H   UNL     1      14.735  -8.069  25.110  0.00  0.00    +0.210 HD
ENDBRANCH  10   1
BRANCH   3  12
ATOM     12  C   UNL     1      17.405  -6.698  29.677  0.00  0.00    +0.120 C 
BRANCH  12  14
ATOM     14  C   UNL     1      17.272  -5.219  29.429  0.00  0.00    -0.032 A 
ATOM     15  C   UNL     1      17.014  -4.354  30.492  0.00  0.00    +0.023 A 
ATOM     16  C   UNL     1      17.405  -4.715  28.136  0.00  0.00    +0.005 A 
ATOM     18  C   UNL     1      16.890  -2.983  30.261  0.00  0.00    +0.052 A 
ATOM     19  C   UNL     1      17.281  -3.345  27.904  0.00  0.00    +0.002 A 
ATOM     21  C   UNL     1      17.024  -2.479  28.967  0.00  0.00    +0.019 A 
BRANCH  18  24
ATOM      7  N   UNL     1      16.418  -1.375  32.234  0.00  0.00    -0.191 NA
ATOM     24  C   UNL     1      16.630  -2.096  31.349  0.00  0.00    +0.099 C 
ENDBRANCH  18  24
ENDBRANCH  12  14
ENDBRANCH   3  12
TORSDOF 6
ENDMDL
MODEL 9
REMARK VINA RESULT:      -1.5      2.128      4.017
REMARK  Name = 26743960
REMARK  6 active torsions:
REMARK  status: ('A' for Active; 'I' for Inactive)
REMARK    1  A    between atoms: O_1  and  C_10
REMARK    2  A    between atoms: N_3  and  C_12
REMARK    3  A    between atoms: C_8  and  C_13
REMARK    4  A    between atoms: C_12  and  C_14
REMARK    5  A    between atoms: C_17  and  C_20
REMARK    6  A    between atoms: C_18  and  C_24
REMARK                            x       y       z     vdW  Elec       q    Type
REMARK                         _______ _______ _______ _____ _____    ______ ____
ROOT
ATOM      3  N   UNL     1      -0.709   1.813  25.712  0.00  0.00    -0.285 NA
ATOM      8  C   UNL     1      -0.701   1.776  24.236  0.00  0.00    +0.149 C 
ATOM      9  C   UNL     1      -0.771   3.252  23.805  0.00  0.00    +0.061 C 
ATOM     10  C   UNL     1      -0.859   4.040  25.107  0.00  0.00    +0.130 C 
ATOM     11  C   UNL     1      -1.419   3.032  26.093  0.00  0.00    +0.116 C 
ENDROOT
BRANCH   8  13
ATOM      2  O   UNL     1       0.328   0.385  22.511  0.00  0.00    -0.336 OA
ATOM      4  N   UNL     1       1.726   0.986  24.155  0.00  0.00    -0.190 NA
ATOM      5  N   UNL     1       1.567  -0.188  22.198  0.00  0.00    -0.056 NA
ATOM     13  C   UNL     1       0.509   1.058  23.677  0.00  0.00    +0.245 A 
ATOM     17  C   UNL     1       2.338   0.212  23.213  0.00  0.00    +0.204 A 
BRANCH  17  20
ATOM      6  N   UNL     1       5.393  -1.813  23.840  0.00  0.00    -0.263 NA
ATOM     20  C   UNL     1       3.724  -0.145  23.316  0.00  0.00    +0.041 A 
ATOM     22  C   UNL     1       4.724   0.771  23.010  0.00  0.00    +0.014 A 
ATOM     23  C   UNL     1       4.107  -1.413  23.723  0.00  0.00    +0.122 A 
ATOM     25  C   UNL     1       6.059   0.397  23.119  0.00  0.00    +0.020 A 
ATOM     26  C   UNL     1       6.339  -0.895  23.534  0.00  0.00    +0.111 A 
ENDBRANCH  17  20
ENDBRANCH   8  13
BRANCH  10   1
ATOM      1  O   UNL     1      -1.711   5.160  24.959  0.00  0.00    -0.390 OA
ATOM     27  H   UNL     1      -1.318   5.739  24.284  0.00  0.00    +0.210 HD
ENDBRANCH  10   1
BRANCH   3  12
ATOM     12  C   UNL     1      -1.298   0.625  26.314  0.00  0.00    +0.120 C 
BRANCH  12  14
ATOM     14  C   UNL     1      -2.498   0.140  25.543  0.00  0.00    -0.032 A 
ATOM     15  C   UNL     1      -3.649   0.924  25.478  0.00  0.00    +0.023 A 
ATOM     16  C   UNL     1      -2.456  -1.094  24.895  0.00  0.00    +0.005 A 
ATOM     18  C   UNL     1      -4.760   0.474  24.764  0.00  0.00    +0.052 A 
ATOM     19  C   UNL     1      -3.567  -1.545  24.181  0.00  0.00    +0.002 A 
ATOM     21  C   UNL     1      -4.718  -0.760  24.115  0.00  0.00    +0.019 A 
BRANCH  18  24
ATOM      7  N   UNL     1      -6.895   1.931  24.635  0.00  0.00    -0.191 NA
ATOM     24  C   UNL     1      -5.938   1.278  24.693  0.00  0.00    +0.099 C 
ENDBRANCH  18  24
ENDBRANCH  12  14
ENDBRANCH   3  12
TORSDOF 6
ENDMDL
MODEL 10
REMARK VINA RESULT:      -0.7      2.318      4.440
REMARK  Name = 26743960
REMARK  6 active torsions:
REMARK  status: ('A' for Active; 'I' for Inactive)
REMARK    1  A    between atoms: O_1  and  C_10
REMARK    2  A    between atoms: N_3  and  C_12
REMARK    3  A    between atoms: C_8  and  C_13
REMARK    4  A    between atoms: C_12  and  C_14
REMARK    5  A    between atoms: C_17  and  C_20
REMARK    6  A    between atoms: C_18  and  C_24
REMARK                            x       y       z     vdW  Elec       q    Type
REMARK                         _______ _______ _______ _____ _____    ______ ____
ROOT
ATOM      3  N   UNL     1      -2.678   0.532  22.890  0.00  0.00    -0.285 NA
ATOM      8  C   UNL     1      -1.727   0.063  23.918  0.00  0.00    +0.149 C 
ATOM      9  C   UNL     1      -2.314  -1.269  24.419  0.00  0.00    +0.061 C 
ATOM     10  C   UNL     1      -3.616  -1.442  23.646  0.00  0.00    +0.130 C 
ATOM     11  C   UNL     1      -3.982  -0.025  23.245  0.00  0.00    +0.116 C 
ENDROOT
BRANCH   8  13
ATOM      2  O   UNL     1      -0.193  -0.334  22.059  0.00  0.00    -0.336 OA
ATOM      4  N   UNL     1       0.823   0.004  24.026  0.00  0.00    -0.190 NA
ATOM      5  N   UNL     1       1.182  -0.424  21.807  0.00  0.00    -0.056 NA
ATOM     13  C   UNL     1      -0.317  -0.080  23.387  0.00  0.00    +0.245 A 
ATOM     17  C   UNL     1       1.713  -0.213  23.015  0.00  0.00    +0.204 A 
BRANCH  17  20
ATOM      6  N   UNL     1       5.223   0.996  23.237  0.00  0.00    -0.263 NA
ATOM     20  C   UNL     1       3.129  -0.213  23.245  0.00  0.00    +0.041 A 
ATOM     22  C   UNL     1       3.784  -1.359  23.684  0.00  0.00    +0.014 A 
ATOM     23  C   UNL     1       3.887   0.929  23.039  0.00  0.00    +0.122 A 
ATOM     25  C   UNL     1       5.158  -1.329  23.899  0.00  0.00    +0.020 A 
ATOM     26  C   UNL     1       5.825  -0.137  23.663  0.00  0.00    +0.111 A 
ENDBRANCH  17  20
ENDBRANCH   8  13
BRANCH  10   1
ATOM      1  O   UNL     1      -4.611  -2.030  24.462  0.00  0.00    -0.390 OA
ATOM     27  H   UNL     1      -4.990  -2.777  23.969  0.00  0.00    +0.210 HD
ENDBRANCH  10   1
BRANCH   3  12
ATOM     12  C   UNL     1      -2.718   1.983  22.763  0.00  0.00    +0.120 C 
BRANCH  12  14
ATOM     14  C   UNL     1      -2.534   2.669  24.090  0.00  0.00    -0.032 A 
ATOM     15  C   UNL     1      -1.356   2.483  24.815  0.00  0.00    +0.023 A 
ATOM     16  C   UNL     1      -3.542   3.489  24.596  0.00  0.00    +0.005 A 
ATOM     18  C   UNL     1      -1.187   3.119  26.045  0.00  0.00    +0.052 A 
ATOM     19  C   UNL     1      -3.373   4.124  25.826  0.00  0.00    +0.002 A 
ATOM     21  C   UNL     1      -2.195   3.939  26.550  0.00  0.00    +0.019 A 
BRANCH  18  24
ATOM      7  N   UNL     1       1.001   2.780  27.387  0.00  0.00    -0.191 NA
ATOM     24  C   UNL     1       0.020   2.932  26.786  0.00  0.00    +0.099 C 
ENDBRANCH  18  24
ENDBRANCH  12  14
ENDBRANCH   3  12
TORSDOF 6
ENDMDL
