MODEL 1
REMARK VINA RESULT:      -7.0      0.000      0.000
REMARK  Name = 25390424
REMARK  8 active torsions:
REMARK  status: ('A' for Active; 'I' for Inactive)
REMARK    1  A    between atoms: O_2  and  C_11
REMARK    2  A    between atoms: O_3  and  C_12
REMARK    3  A    between atoms: N_6  and  C_8
REMARK    4  A    between atoms: N_7  and  C_17
REMARK    5  A    between atoms: C_9  and  C_16
REMARK    6  A    between atoms: C_10  and  C_17
REMARK    7  A    between atoms: C_15  and  C_23
REMARK    8  A    between atoms: C_16  and  C_22
REMARK                            x       y       z     vdW  Elec       q    Type
REMARK                         _______ _______ _______ _____ _____    ______ ____
ROOT
ATOM      1  O   UNL     1      -0.971  -1.051  23.829  0.00  0.00    -0.366 OA
ATOM      9  C   UNL     1      -0.052  -0.032  24.260  0.00  0.00    +0.158 C 
ATOM     10  C   UNL     1      -2.054  -1.140  24.781  0.00  0.00    +0.167 C 
ATOM     11  C   UNL     1      -0.820   0.815  25.261  0.00  0.00    +0.175 C 
ATOM     12  C   UNL     1      -1.681  -0.227  25.943  0.00  0.00    +0.176 C 
ENDROOT
BRANCH  11   2
ATOM      2  O   UNL     1       0.041   1.497  26.147  0.00  0.00    -0.387 OA
ATOM     26  H   UNL     1       0.817   1.785  25.636  0.00  0.00    +0.210 HD
ENDBRANCH  11   2
BRANCH  12   3
ATOM      3  O   UNL     1      -0.903  -0.984  26.870  0.00  0.00    -0.387 OA
ATOM     27  H   UNL     1       0.028  -0.737  26.736  0.00  0.00    +0.210 HD
ENDBRANCH  12   3
BRANCH   9  16
ATOM     16  C   UNL     1       0.441   0.754  23.059  0.00  0.00    +0.130 C 
BRANCH  16  22
ATOM      4  O   UNL     1       1.781  -0.506  21.484  0.00  0.00    -0.276 OA
ATOM      6  N   UNL     1       2.832   0.582  23.245  0.00  0.00    -0.312 N 
ATOM     22  C   UNL     1       1.733   0.197  22.490  0.00  0.00    +0.216 C 
ATOM     24  H   UNL     1       2.701   1.148  24.078  0.00  0.00    +0.149 HD
BRANCH   6   8
ATOM      8  C   UNL     1       4.171   0.184  22.916  0.00  0.00    +0.073 C 
ATOM     13  C   UNL     1       5.339   0.637  23.741  0.00  0.00    +0.024 C 
ATOM     14  C   UNL     1       4.919  -0.804  23.762  0.00  0.00    +0.024 C 
ENDBRANCH   6   8
ENDBRANCH  16  22
ENDBRANCH   9  16
BRANCH  10  17
ATOM     17  C   UNL     1      -3.334  -0.713  24.074  0.00  0.00    +0.138 C 
BRANCH  17   7
ATOM      5  O   UNL     1      -5.299   0.980  25.379  0.00  0.00    -0.276 OA
ATOM      7  N   UNL     1      -3.436   0.715  24.005  0.00  0.00    -0.313 N 
ATOM     23  C   UNL     1      -4.416   1.449  24.667  0.00  0.00    +0.216 C 
ATOM     25  H   UNL     1      -2.735   1.208  23.459  0.00  0.00    +0.149 HD
BRANCH  23  15
ATOM     15  C   UNL     1      -4.278   2.925  24.446  0.00  0.00    +0.075 C 
ATOM     18  C   UNL     1      -2.866   3.260  23.956  0.00  0.00    +0.013 C 
ATOM     19  C   UNL     1      -4.466   3.686  25.760  0.00  0.00    +0.013 C 
ATOM     20  C   UNL     1      -2.313   4.283  24.942  0.00  0.00    +0.001 C 
ATOM     21  C   UNL     1      -3.053   3.988  26.235  0.00  0.00    +0.001 C 
ENDBRANCH  23  15
ENDBRANCH  17   7
ENDBRANCH  10  17
TORSDOF 8
ENDMDL
MODEL 2
REMARK VINA RESULT:      -6.7      2.712      6.209
REMARK  Name = 25390424
REMARK  8 active torsions:
REMARK  status: ('A' for Active; 'I' for Inactive)
REMARK    1  A    between atoms: O_2  and  C_11
REMARK    2  A    between atoms: O_3  and  C_12
REMARK    3  A    between atoms: N_6  and  C_8
REMARK    4  A    between atoms: N_7  and  C_17
REMARK    5  A    between atoms: C_9  and  C_16
REMARK    6  A    between atoms: C_10  and  C_17
REMARK    7  A    between atoms: C_15  and  C_23
REMARK    8  A    between atoms: C_16  and  C_22
REMARK                            x       y       z     vdW  Elec       q    Type
REMARK                         _______ _______ _______ _____ _____    ______ ____
ROOT
ATOM      1  O   UNL     1      -0.289   3.538  24.038  0.00  0.00    -0.366 OA
ATOM      9  C   UNL     1      -1.085   4.064  25.115  0.00  0.00    +0.158 C 
ATOM     10  C   UNL     1       0.150   2.206  24.386  0.00  0.00    +0.167 C 
ATOM     11  C   UNL     1      -1.500   2.860  25.943  0.00  0.00    +0.175 C 
ATOM     12  C   UNL     1      -0.275   1.976  25.832  0.00  0.00    +0.176 C 
ENDROOT
BRANCH  11   2
ATOM      2  O   UNL     1      -1.815   3.215  27.273  0.00  0.00    -0.387 OA
ATOM     26  H   UNL     1      -2.017   4.166  27.280  0.00  0.00    +0.210 HD
ENDBRANCH  11   2
BRANCH  12   3
ATOM      3  O   UNL     1       0.764   2.461  26.682  0.00  0.00    -0.387 OA
ATOM     27  H   UNL     1       1.334   3.036  26.144  0.00  0.00    +0.210 HD
ENDBRANCH  12   3
BRANCH   9  16
ATOM     16  C   UNL     1      -2.260   4.842  24.551  0.00  0.00    +0.130 C 
BRANCH  16  22
ATOM      4  O   UNL     1      -3.626   3.286  23.296  0.00  0.00    -0.276 OA
ATOM      6  N   UNL     1      -4.373   4.033  25.363  0.00  0.00    -0.312 N 
ATOM     22  C   UNL     1      -3.474   3.965  24.308  0.00  0.00    +0.216 C 
ATOM     24  H   UNL     1      -4.181   4.639  26.155  0.00  0.00    +0.149 HD
BRANCH   6   8
ATOM      8  C   UNL     1      -5.604   3.295  25.376  0.00  0.00    +0.073 C 
ATOM     13  C   UNL     1      -5.655   1.864  24.928  0.00  0.00    +0.024 C 
ATOM     14  C   UNL     1      -5.847   2.204  26.377  0.00  0.00    +0.024 C 
ENDBRANCH   6   8
ENDBRANCH  16  22
ENDBRANCH   9  16
BRANCH  10  17
ATOM     17  C   UNL     1      -0.499   1.231  23.412  0.00  0.00    +0.138 C 
BRANCH  17   7
ATOM      5  O   UNL     1       0.130  -1.372  24.532  0.00  0.00    -0.276 OA
ATOM      7  N   UNL     1      -1.390   0.338  24.090  0.00  0.00    -0.313 N 
ATOM     23  C   UNL     1      -1.001  -0.899  24.598  0.00  0.00    +0.216 C 
ATOM     25  H   UNL     1      -2.350   0.644  24.220  0.00  0.00    +0.149 HD
BRANCH  23  15
ATOM     15  C   UNL     1      -2.123  -1.620  25.281  0.00  0.00    +0.075 C 
ATOM     18  C   UNL     1      -2.462  -2.911  24.529  0.00  0.00    +0.013 C 
ATOM     19  C   UNL     1      -3.395  -0.770  25.270  0.00  0.00    +0.013 C 
ATOM     20  C   UNL     1      -3.946  -2.819  24.193  0.00  0.00    +0.001 C 
ATOM     21  C   UNL     1      -4.218  -1.327  24.117  0.00  0.00    +0.001 C 
ENDBRANCH  23  15
ENDBRANCH  17   7
ENDBRANCH  10  17
TORSDOF 8
ENDMDL
MODEL 3
REMARK VINA RESULT:      -6.4      1.388      1.988
REMARK  Name = 25390424
REMARK  8 active torsions:
REMARK  status: ('A' for Active; 'I' for Inactive)
REMARK    1  A    between atoms: O_2  and  C_11
REMARK    2  A    between atoms: O_3  and  C_12
REMARK    3  A    between atoms: N_6  and  C_8
REMARK    4  A    between atoms: N_7  and  C_17
REMARK    5  A    between atoms: C_9  and  C_16
REMARK    6  A    between atoms: C_10  and  C_17
REMARK    7  A    between atoms: C_15  and  C_23
REMARK    8  A    between atoms: C_16  and  C_22
REMARK                            x       y       z     vdW  Elec       q    Type
REMARK                         _______ _______ _______ _____ _____    ______ ____
ROOT
ATOM      1  O   UNL     1      -2.505   0.028  23.409  0.00  0.00    -0.366 OA
ATOM      9  C   UNL     1      -1.303  -0.288  24.133  0.00  0.00    +0.158 C 
ATOM     10  C   UNL     1      -3.646  -0.233  24.257  0.00  0.00    +0.167 C 
ATOM     11  C   UNL     1      -1.704  -0.325  25.597  0.00  0.00    +0.175 C 
ATOM     12  C   UNL     1      -3.103  -0.900  25.516  0.00  0.00    +0.176 C 
ENDROOT
BRANCH  11   2
ATOM      2  O   UNL     1      -0.820  -1.111  26.369  0.00  0.00    -0.387 OA
ATOM     26  H   UNL     1      -0.789  -0.722  27.261  0.00  0.00    +0.210 HD
ENDBRANCH  11   2
BRANCH  12   3
ATOM      3  O   UNL     1      -3.047  -2.307  25.283  0.00  0.00    -0.387 OA
ATOM     27  H   UNL     1      -2.526  -2.447  24.474  0.00  0.00    +0.210 HD
ENDBRANCH  12   3
BRANCH   9  16
ATOM     16  C   UNL     1      -0.234   0.745  23.827  0.00  0.00    +0.130 C 
BRANCH  16  22
ATOM      4  O   UNL     1       0.697  -0.629  22.065  0.00  0.00    -0.276 OA
ATOM      6  N   UNL     1       2.114   0.721  23.312  0.00  0.00    -0.312 N 
ATOM     22  C   UNL     1       0.882   0.189  22.961  0.00  0.00    +0.216 C 
ATOM     24  H   UNL     1       2.182   1.378  24.083  0.00  0.00    +0.149 HD
BRANCH   6   8
ATOM      8  C   UNL     1       3.330   0.355  22.643  0.00  0.00    +0.073 C 
ATOM     13  C   UNL     1       4.634   1.012  22.989  0.00  0.00    +0.024 C 
ATOM     14  C   UNL     1       4.401  -0.426  23.348  0.00  0.00    +0.024 C 
ENDBRANCH   6   8
ENDBRANCH  16  22
ENDBRANCH   9  16
BRANCH  10  17
ATOM     17  C   UNL     1      -4.333   1.097  24.536  0.00  0.00    +0.138 C 
BRANCH  17   7
ATOM      5  O   UNL     1      -4.916   3.802  25.417  0.00  0.00    -0.276 OA
ATOM      7  N   UNL     1      -3.420   2.043  25.106  0.00  0.00    -0.313 N 
ATOM     23  C   UNL     1      -3.787   3.326  25.502  0.00  0.00    +0.216 C 
ATOM     25  H   UNL     1      -2.460   1.741  25.244  0.00  0.00    +0.149 HD
BRANCH  23  15
ATOM     15  C   UNL     1      -2.645   4.097  26.089  0.00  0.00    +0.075 C 
ATOM     18  C   UNL     1      -2.345   5.334  25.237  0.00  0.00    +0.013 C 
ATOM     19  C   UNL     1      -1.368   3.254  26.086  0.00  0.00    +0.013 C 
ATOM     20  C   UNL     1      -0.874   5.226  24.848  0.00  0.00    +0.001 C 
ATOM     21  C   UNL     1      -0.595   3.734  24.865  0.00  0.00    +0.001 C 
ENDBRANCH  23  15
ENDBRANCH  17   7
ENDBRANCH  10  17
TORSDOF 8
ENDMDL
MODEL 4
REMARK VINA RESULT:      -6.3      1.639      6.420
REMARK  Name = 25390424
REMARK  8 active torsions:
REMARK  status: ('A' for Active; 'I' for Inactive)
REMARK    1  A    between atoms: O_2  and  C_11
REMARK    2  A    between atoms: O_3  and  C_12
REMARK    3  A    between atoms: N_6  and  C_8
REMARK    4  A    between atoms: N_7  and  C_17
REMARK    5  A    between atoms: C_9  and  C_16
REMARK    6  A    between atoms: C_10  and  C_17
REMARK    7  A    between atoms: C_15  and  C_23
REMARK    8  A    between atoms: C_16  and  C_22
REMARK                            x       y       z     vdW  Elec       q    Type
REMARK                         _______ _______ _______ _____ _____    ______ ____
ROOT
ATOM      1  O   UNL     1      -1.993  -0.041  25.658  0.00  0.00    -0.366 OA
ATOM      9  C   UNL     1      -3.319  -0.510  25.358  0.00  0.00    +0.158 C 
ATOM     10  C   UNL     1      -1.046  -0.744  24.821  0.00  0.00    +0.167 C 
ATOM     11  C   UNL     1      -3.216  -1.194  24.005  0.00  0.00    +0.175 C 
ATOM     12  C   UNL     1      -1.838  -1.817  24.083  0.00  0.00    +0.176 C 
ENDROOT
BRANCH  11   2
ATOM      2  O   UNL     1      -4.247  -2.138  23.809  0.00  0.00    -0.387 OA
ATOM     26  H   UNL     1      -3.941  -2.985  24.178  0.00  0.00    +0.210 HD
ENDBRANCH  11   2
BRANCH  12   3
ATOM      3  O   UNL     1      -1.869  -2.986  24.903  0.00  0.00    -0.387 OA
ATOM     27  H   UNL     1      -1.036  -3.465  24.757  0.00  0.00    +0.210 HD
ENDBRANCH  12   3
BRANCH   9  16
ATOM     16  C   UNL     1      -4.290   0.657  25.370  0.00  0.00    +0.130 C 
BRANCH  16  22
ATOM      4  O   UNL     1      -4.260   2.126  23.445  0.00  0.00    -0.276 OA
ATOM      6  N   UNL     1      -2.775   2.515  25.186  0.00  0.00    -0.312 N 
ATOM     22  C   UNL     1      -3.798   1.831  24.544  0.00  0.00    +0.216 C 
ATOM     24  H   UNL     1      -2.436   2.191  26.087  0.00  0.00    +0.149 HD
BRANCH   6   8
ATOM      8  C   UNL     1      -2.137   3.665  24.612  0.00  0.00    +0.073 C 
ATOM     13  C   UNL     1      -1.899   4.905  25.423  0.00  0.00    +0.024 C 
ATOM     14  C   UNL     1      -0.739   4.053  24.997  0.00  0.00    +0.024 C 
ENDBRANCH   6   8
ENDBRANCH  16  22
ENDBRANCH   9  16
BRANCH  10  17
ATOM     17  C   UNL     1      -0.406   0.274  23.885  0.00  0.00    +0.138 C 
BRANCH  17   7
ATOM      5  O   UNL     1       2.072   1.751  23.562  0.00  0.00    -0.276 OA
ATOM      7  N   UNL     1       0.835  -0.214  23.362  0.00  0.00    -0.313 N 
ATOM     23  C   UNL     1       1.980   0.568  23.242  0.00  0.00    +0.216 C 
ATOM     25  H   UNL     1       0.876  -1.191  23.088  0.00  0.00    +0.149 HD
BRANCH  23  15
ATOM     15  C   UNL     1       3.145  -0.195  22.689  0.00  0.00    +0.075 C 
ATOM     18  C   UNL     1       3.618  -1.247  23.697  0.00  0.00    +0.013 C 
ATOM     19  C   UNL     1       4.335   0.737  22.451  0.00  0.00    +0.013 C 
ATOM     20  C   UNL     1       5.096  -0.958  23.937  0.00  0.00    +0.001 C 
ATOM     21  C   UNL     1       5.234   0.528  23.662  0.00  0.00    +0.001 C 
ENDBRANCH  23  15
ENDBRANCH  17   7
ENDBRANCH  10  17
TORSDOF 8
ENDMDL
MODEL 5
REMARK VINA RESULT:      -6.1      1.836      3.977
REMARK  Name = 25390424
REMARK  8 active torsions:
REMARK  status: ('A' for Active; 'I' for Inactive)
REMARK    1  A    between atoms: O_2  and  C_11
REMARK    2  A    between atoms: O_3  and  C_12
REMARK    3  A    between atoms: N_6  and  C_8
REMARK    4  A    between atoms: N_7  and  C_17
REMARK    5  A    between atoms: C_9  and  C_16
REMARK    6  A    between atoms: C_10  and  C_17
REMARK    7  A    between atoms: C_15  and  C_23
REMARK    8  A    between atoms: C_16  and  C_22
REMARK                            x       y       z     vdW  Elec       q    Type
REMARK                         _______ _______ _______ _____ _____    ______ ____
ROOT
ATOM      1  O   UNL     1      -2.297   2.721  26.082  0.00  0.00    -0.366 OA
ATOM      9  C   UNL     1      -0.986   2.600  25.505  0.00  0.00    +0.158 C 
ATOM     10  C   UNL     1      -3.007   3.790  25.416  0.00  0.00    +0.167 C 
ATOM     11  C   UNL     1      -1.059   3.319  24.168  0.00  0.00    +0.175 C 
ATOM     12  C   UNL     1      -2.001   4.460  24.486  0.00  0.00    +0.176 C 
ENDROOT
BRANCH  11   2
ATOM      2  O   UNL     1       0.212   3.748  23.728  0.00  0.00    -0.387 OA
ATOM     26  H   UNL     1       0.737   2.953  23.532  0.00  0.00    +0.210 HD
ENDBRANCH  11   2
BRANCH  12   3
ATOM      3  O   UNL     1      -1.321   5.473  25.227  0.00  0.00    -0.387 OA
ATOM     27  H   UNL     1      -1.447   5.277  26.170  0.00  0.00    +0.210 HD
ENDBRANCH  12   3
BRANCH   9  16
ATOM     16  C   UNL     1      -0.614   1.134  25.381  0.00  0.00    +0.130 C 
BRANCH  16  22
ATOM      4  O   UNL     1      -0.669   0.395  23.077  0.00  0.00    -0.276 OA
ATOM      6  N   UNL     1       1.362   1.008  24.018  0.00  0.00    -0.312 N 
ATOM     22  C   UNL     1      -0.009   0.799  24.031  0.00  0.00    +0.216 C 
ATOM     24  H   UNL     1       1.835   1.323  24.860  0.00  0.00    +0.149 HD
BRANCH   6   8
ATOM      8  C   UNL     1       2.169   0.764  22.857  0.00  0.00    +0.073 C 
ATOM     13  C   UNL     1       3.633   1.093  22.846  0.00  0.00    +0.024 C 
ATOM     14  C   UNL     1       3.186  -0.340  22.834  0.00  0.00    +0.024 C 
ENDBRANCH   6   8
ENDBRANCH  16  22
ENDBRANCH   9  16
BRANCH  10  17
ATOM     17  C   UNL     1      -4.187   3.175  24.674  0.00  0.00    +0.138 C 
BRANCH  17   7
ATOM      5  O   UNL     1      -3.536   0.788  23.155  0.00  0.00    -0.276 OA
ATOM      7  N   UNL     1      -4.391   1.812  25.065  0.00  0.00    -0.313 N 
ATOM     23  C   UNL     1      -4.048   0.723  24.270  0.00  0.00    +0.216 C 
ATOM     25  H   UNL     1      -4.789   1.644  25.985  0.00  0.00    +0.149 HD
BRANCH  23  15
ATOM     15  C   UNL     1      -4.345  -0.589  24.929  0.00  0.00    +0.075 C 
ATOM     18  C   UNL     1      -3.291  -0.899  25.996  0.00  0.00    +0.013 C 
ATOM     19  C   UNL     1      -4.274  -1.731  23.912  0.00  0.00    +0.013 C 
ATOM     20  C   UNL     1      -2.710  -2.260  25.626  0.00  0.00    +0.001 C 
ATOM     21  C   UNL     1      -2.898  -2.346  24.122  0.00  0.00    +0.001 C 
ENDBRANCH  23  15
ENDBRANCH  17   7
ENDBRANCH  10  17
TORSDOF 8
ENDMDL
MODEL 6
REMARK VINA RESULT:      -5.6      2.793      6.097
REMARK  Name = 25390424
REMARK  8 active torsions:
REMARK  status: ('A' for Active; 'I' for Inactive)
REMARK    1  A    between atoms: O_2  and  C_11
REMARK    2  A    between atoms: O_3  and  C_12
REMARK    3  A    between atoms: N_6  and  C_8
REMARK    4  A    between atoms: N_7  and  C_17
REMARK    5  A    between atoms: C_9  and  C_16
REMARK    6  A    between atoms: C_10  and  C_17
REMARK    7  A    between atoms: C_15  and  C_23
REMARK    8  A    between atoms: C_16  and  C_22
REMARK                            x       y       z     vdW  Elec       q    Type
REMARK                         _______ _______ _______ _____ _____    ______ ____
ROOT
ATOM      1  O   UNL     1      -0.987   3.472  23.456  0.00  0.00    -0.366 OA
ATOM      9  C   UNL     1      -0.438   3.741  24.757  0.00  0.00    +0.158 C 
ATOM     10  C   UNL     1      -0.868   2.059  23.178  0.00  0.00    +0.167 C 
ATOM     11  C   UNL     1      -0.383   2.398  25.464  0.00  0.00    +0.175 C 
ATOM     12  C   UNL     1      -0.051   1.464  24.320  0.00  0.00    +0.176 C 
ENDROOT
BRANCH  11   2
ATOM      2  O   UNL     1       0.579   2.382  26.497  0.00  0.00    -0.387 OA
ATOM     26  H   UNL     1       0.757   1.451  26.715  0.00  0.00    +0.210 HD
ENDBRANCH  11   2
BRANCH  12   3
ATOM      3  O   UNL     1       1.331   1.573  23.977  0.00  0.00    -0.387 OA
ATOM     27  H   UNL     1       1.833   1.051  24.627  0.00  0.00    +0.210 HD
ENDBRANCH  12   3
BRANCH   9  16
ATOM     16  C   UNL     1      -1.298   4.765  25.475  0.00  0.00    +0.130 C 
BRANCH  16  22
ATOM      4  O   UNL     1      -3.024   3.953  26.966  0.00  0.00    -0.276 OA
ATOM      6  N   UNL     1      -3.469   4.092  24.692  0.00  0.00    -0.312 N 
ATOM     22  C   UNL     1      -2.674   4.228  25.821  0.00  0.00    +0.216 C 
ATOM     24  H   UNL     1      -3.093   4.322  23.777  0.00  0.00    +0.149 HD
BRANCH   6   8
ATOM      8  C   UNL     1      -4.816   3.602  24.752  0.00  0.00    +0.073 C 
ATOM     13  C   UNL     1      -5.374   3.019  26.017  0.00  0.00    +0.024 C 
ATOM     14  C   UNL     1      -5.879   4.339  25.513  0.00  0.00    +0.024 C 
ENDBRANCH   6   8
ENDBRANCH  16  22
ENDBRANCH   9  16
BRANCH  10  17
ATOM     17  C   UNL     1      -2.275   1.481  23.089  0.00  0.00    +0.138 C 
BRANCH  17   7
ATOM      5  O   UNL     1      -4.721   0.430  24.246  0.00  0.00    -0.276 OA
ATOM      7  N   UNL     1      -2.415   0.328  23.928  0.00  0.00    -0.313 N 
ATOM     23  C   UNL     1      -3.634  -0.107  24.441  0.00  0.00    +0.216 C 
ATOM     25  H   UNL     1      -1.576  -0.206  24.133  0.00  0.00    +0.149 HD
BRANCH  23  15
ATOM     15  C   UNL     1      -3.501  -1.350  25.266  0.00  0.00    +0.075 C 
ATOM     18  C   UNL     1      -2.085  -1.460  25.841  0.00  0.00    +0.013 C 
ATOM     19  C   UNL     1      -3.710  -2.595  24.401  0.00  0.00    +0.013 C 
ATOM     20  C   UNL     1      -1.550  -2.810  25.377  0.00  0.00    +0.001 C 
ATOM     21  C   UNL     1      -2.303  -3.084  24.087  0.00  0.00    +0.001 C 
ENDBRANCH  23  15
ENDBRANCH  17   7
ENDBRANCH  10  17
TORSDOF 8
ENDMDL
MODEL 7
REMARK VINA RESULT:      -5.6      2.014      6.464
REMARK  Name = 25390424
REMARK  8 active torsions:
REMARK  status: ('A' for Active; 'I' for Inactive)
REMARK    1  A    between atoms: O_2  and  C_11
REMARK    2  A    between atoms: O_3  and  C_12
REMARK    3  A    between atoms: N_6  and  C_8
REMARK    4  A    between atoms: N_7  and  C_17
REMARK    5  A    between atoms: C_9  and  C_16
REMARK    6  A    between atoms: C_10  and  C_17
REMARK    7  A    between atoms: C_15  and  C_23
REMARK    8  A    between atoms: C_16  and  C_22
REMARK                            x       y       z     vdW  Elec       q    Type
REMARK                         _______ _______ _______ _____ _____    ______ ____
ROOT
ATOM      1  O   UNL     1      -1.648   2.678  23.667  0.00  0.00    -0.366 OA
ATOM      9  C   UNL     1      -2.768   3.225  24.384  0.00  0.00    +0.158 C 
ATOM     10  C   UNL     1      -0.426   3.095  24.316  0.00  0.00    +0.167 C 
ATOM     11  C   UNL     1      -2.228   3.618  25.749  0.00  0.00    +0.175 C 
ATOM     12  C   UNL     1      -0.831   4.087  25.400  0.00  0.00    +0.176 C 
ENDROOT
BRANCH  11   2
ATOM      2  O   UNL     1      -3.016   4.615  26.363  0.00  0.00    -0.387 OA
ATOM     26  H   UNL     1      -3.817   4.729  25.822  0.00  0.00    +0.210 HD
ENDBRANCH  11   2
BRANCH  12   3
ATOM      3  O   UNL     1      -0.877   5.388  24.815  0.00  0.00    -0.387 OA
ATOM     27  H   UNL     1      -0.143   5.902  25.192  0.00  0.00    +0.210 HD
ENDBRANCH  12   3
BRANCH   9  16
ATOM     16  C   UNL     1      -3.884   2.198  24.451  0.00  0.00    +0.130 C 
BRANCH  16  22
ATOM      4  O   UNL     1      -3.345   0.633  22.685  0.00  0.00    -0.276 OA
ATOM      6  N   UNL     1      -3.256  -0.080  24.893  0.00  0.00    -0.312 N 
ATOM     22  C   UNL     1      -3.470   0.852  23.887  0.00  0.00    +0.216 C 
ATOM     24  H   UNL     1      -3.404   0.179  25.864  0.00  0.00    +0.149 HD
BRANCH   6   8
ATOM      8  C   UNL     1      -2.856  -1.430  24.620  0.00  0.00    +0.073 C 
ATOM     13  C   UNL     1      -3.292  -2.562  25.503  0.00  0.00    +0.024 C 
ATOM     14  C   UNL     1      -3.838  -2.445  24.110  0.00  0.00    +0.024 C 
ENDBRANCH   6   8
ENDBRANCH  16  22
ENDBRANCH   9  16
BRANCH  10  17
ATOM     17  C   UNL     1       0.256   1.851  24.871  0.00  0.00    +0.138 C 
BRANCH  17   7
ATOM      5  O   UNL     1       0.527  -0.659  23.437  0.00  0.00    -0.276 OA
ATOM      7  N   UNL     1       1.344   1.440  24.035  0.00  0.00    -0.313 N 
ATOM     23  C   UNL     1       1.392   0.211  23.382  0.00  0.00    +0.216 C 
ATOM     25  H   UNL     1       2.106   2.098  23.902  0.00  0.00    +0.149 HD
BRANCH  23  15
ATOM     15  C   UNL     1       2.629   0.046  22.553  0.00  0.00    +0.075 C 
ATOM     18  C   UNL     1       3.474  -1.116  23.084  0.00  0.00    +0.013 C 
ATOM     19  C   UNL     1       3.510   1.294  22.646  0.00  0.00    +0.013 C 
ATOM     20  C   UNL     1       4.852  -0.531  23.374  0.00  0.00    +0.001 C 
ATOM     21  C   UNL     1       4.579   0.934  23.667  0.00  0.00    +0.001 C 
ENDBRANCH  23  15
ENDBRANCH  17   7
ENDBRANCH  10  17
TORSDOF 8
ENDMDL
MODEL 8
REMARK VINA RESULT:      -5.2      2.110      4.284
REMARK  Name = 25390424
REMARK  8 active torsions:
REMARK  status: ('A' for Active; 'I' for Inactive)
REMARK    1  A    between atoms: O_2  and  C_11
REMARK    2  A    between atoms: O_3  and  C_12
REMARK    3  A    between atoms: N_6  and  C_8
REMARK    4  A    between atoms: N_7  and  C_17
REMARK    5  A    between atoms: C_9  and  C_16
REMARK    6  A    between atoms: C_10  and  C_17
REMARK    7  A    between atoms: C_15  and  C_23
REMARK    8  A    between atoms: C_16  and  C_22
REMARK                            x       y       z     vdW  Elec       q    Type
REMARK                         _______ _______ _______ _____ _____    ______ ____
ROOT
ATOM      1  O   UNL     1      -2.838   2.129  25.145  0.00  0.00    -0.366 OA
ATOM      9  C   UNL     1      -2.081   2.115  23.922  0.00  0.00    +0.158 C 
ATOM     10  C   UNL     1      -4.196   2.529  24.852  0.00  0.00    +0.167 C 
ATOM     11  C   UNL     1      -3.109   2.082  22.804  0.00  0.00    +0.175 C 
ATOM     12  C   UNL     1      -4.217   2.936  23.383  0.00  0.00    +0.176 C 
ENDROOT
BRANCH  11   2
ATOM      2  O   UNL     1      -2.589   2.585  21.591  0.00  0.00    -0.387 OA
ATOM     26  H   UNL     1      -1.770   2.097  21.400  0.00  0.00    +0.210 HD
ENDBRANCH  11   2
BRANCH  12   3
ATOM      3  O   UNL     1      -3.870   4.318  23.302  0.00  0.00    -0.387 OA
ATOM     27  H   UNL     1      -4.457   4.726  22.642  0.00  0.00    +0.210 HD
ENDBRANCH  12   3
BRANCH   9  16
ATOM     16  C   UNL     1      -1.142   0.922  23.913  0.00  0.00    +0.130 C 
BRANCH  16  22
ATOM      4  O   UNL     1       0.697   2.261  24.742  0.00  0.00    -0.276 OA
ATOM      6  N   UNL     1       1.140   0.516  23.277  0.00  0.00    -0.312 N 
ATOM     22  C   UNL     1       0.314   1.327  24.042  0.00  0.00    +0.216 C 
ATOM     24  H   UNL     1       0.739  -0.223  22.708  0.00  0.00    +0.149 HD
BRANCH   6   8
ATOM      8  C   UNL     1       2.563   0.693  23.227  0.00  0.00    +0.073 C 
ATOM     13  C   UNL     1       3.490  -0.484  23.143  0.00  0.00    +0.024 C 
ATOM     14  C   UNL     1       3.335   0.434  21.966  0.00  0.00    +0.024 C 
ENDBRANCH   6   8
ENDBRANCH  16  22
ENDBRANCH   9  16
BRANCH  10  17
ATOM     17  C   UNL     1      -5.106   1.346  25.156  0.00  0.00    +0.138 C 
BRANCH  17   7
ATOM      5  O   UNL     1      -4.649  -1.125  23.701  0.00  0.00    -0.276 OA
ATOM      7  N   UNL     1      -4.350   0.208  25.589  0.00  0.00    -0.313 N 
ATOM     23  C   UNL     1      -4.182  -0.941  24.822  0.00  0.00    +0.216 C 
ATOM     25  H   UNL     1      -3.899   0.265  26.497  0.00  0.00    +0.149 HD
BRANCH  23  15
ATOM     15  C   UNL     1      -3.326  -1.967  25.501  0.00  0.00    +0.075 C 
ATOM     18  C   UNL     1      -2.075  -1.309  26.093  0.00  0.00    +0.013 C 
ATOM     19  C   UNL     1      -2.828  -3.005  24.493  0.00  0.00    +0.013 C 
ATOM     20  C   UNL     1      -0.888  -2.051  25.489  0.00  0.00    +0.001 C 
ATOM     21  C   UNL     1      -1.409  -2.565  24.159  0.00  0.00    +0.001 C 
ENDBRANCH  23  15
ENDBRANCH  17   7
ENDBRANCH  10  17
TORSDOF 8
ENDMDL
MODEL 9
REMARK VINA RESULT:      -4.8      2.621      5.188
REMARK  Name = 25390424
REMARK  8 active torsions:
REMARK  status: ('A' for Active; 'I' for Inactive)
REMARK    1  A    between atoms: O_2  and  C_11
REMARK    2  A    between atoms: O_3  and  C_12
REMARK    3  A    between atoms: N_6  and  C_8
REMARK    4  A    between atoms: N_7  and  C_17
REMARK    5  A    between atoms: C_9  and  C_16
REMARK    6  A    between atoms: C_10  and  C_17
REMARK    7  A    between atoms: C_15  and  C_23
REMARK    8  A    between atoms: C_16  and  C_22
REMARK                            x       y       z     vdW  Elec       q    Type
REMARK                         _______ _______ _______ _____ _____    ______ ____
ROOT
ATOM      1  O   UNL     1      -1.970  -0.961  26.124  0.00  0.00    -0.366 OA
ATOM      9  C   UNL     1      -3.333  -1.178  25.719  0.00  0.00    +0.158 C 
ATOM     10  C   UNL     1      -1.089  -1.508  25.117  0.00  0.00    +0.167 C 
ATOM     11  C   UNL     1      -3.276  -1.471  24.229  0.00  0.00    +0.175 C 
ATOM     12  C   UNL     1      -1.978  -2.242  24.120  0.00  0.00    +0.176 C 
ENDROOT
BRANCH  11   2
ATOM      2  O   UNL     1      -4.401  -2.203  23.790  0.00  0.00    -0.387 OA
ATOM     26  H   UNL     1      -4.338  -3.093  24.177  0.00  0.00    +0.210 HD
ENDBRANCH  11   2
BRANCH  12   3
ATOM      3  O   UNL     1      -2.155  -3.580  24.586  0.00  0.00    -0.387 OA
ATOM     27  H   UNL     1      -2.748  -3.543  25.355  0.00  0.00    +0.210 HD
ENDBRANCH  12   3
BRANCH   9  16
ATOM     16  C   UNL     1      -4.169   0.042  26.061  0.00  0.00    +0.130 C 
BRANCH  16  22
ATOM      4  O   UNL     1      -5.638   1.372  24.670  0.00  0.00    -0.276 OA
ATOM      6  N   UNL     1      -3.475   0.946  23.944  0.00  0.00    -0.312 N 
ATOM     22  C   UNL     1      -4.535   0.859  24.835  0.00  0.00    +0.216 C 
ATOM     24  H   UNL     1      -2.601   0.471  24.148  0.00  0.00    +0.149 HD
BRANCH   6   8
ATOM      8  C   UNL     1      -3.567   1.664  22.705  0.00  0.00    +0.073 C 
ATOM     13  C   UNL     1      -3.452   3.160  22.665  0.00  0.00    +0.024 C 
ATOM     14  C   UNL     1      -2.359   2.308  22.088  0.00  0.00    +0.024 C 
ENDBRANCH   6   8
ENDBRANCH  16  22
ENDBRANCH   9  16
BRANCH  10  17
ATOM     17  C   UNL     1      -0.320  -0.351  24.492  0.00  0.00    +0.138 C 
BRANCH  17   7
ATOM      5  O   UNL     1       0.722   2.285  23.865  0.00  0.00    -0.276 OA
ATOM      7  N   UNL     1      -0.509   0.858  25.236  0.00  0.00    -0.313 N 
ATOM     23  C   UNL     1       0.030   2.085  24.860  0.00  0.00    +0.216 C 
ATOM     25  H   UNL     1      -1.089   0.809  26.068  0.00  0.00    +0.149 HD
BRANCH  23  15
ATOM     15  C   UNL     1      -0.342   3.191  25.800  0.00  0.00    +0.075 C 
ATOM     18  C   UNL     1      -1.754   2.967  26.352  0.00  0.00    +0.013 C 
ATOM     19  C   UNL     1      -0.378   4.533  25.066  0.00  0.00    +0.013 C 
ATOM     20  C   UNL     1      -2.540   4.228  26.012  0.00  0.00    +0.001 C 
ATOM     21  C   UNL     1      -1.852   4.770  24.772  0.00  0.00    +0.001 C 
ENDBRANCH  23  15
ENDBRANCH  17   7
ENDBRANCH  10  17
TORSDOF 8
ENDMDL
MODEL 10
REMARK VINA RESULT:      -4.8      2.651      4.908
REMARK  Name = 25390424
REMARK  8 active torsions:
REMARK  status: ('A' for Active; 'I' for Inactive)
REMARK    1  A    between atoms: O_2  and  C_11
REMARK    2  A    between atoms: O_3  and  C_12
REMARK    3  A    between atoms: N_6  and  C_8
REMARK    4  A    between atoms: N_7  and  C_17
REMARK    5  A    between atoms: C_9  and  C_16
REMARK    6  A    between atoms: C_10  and  C_17
REMARK    7  A    between atoms: C_15  and  C_23
REMARK    8  A    between atoms: C_16  and  C_22
REMARK                            x       y       z     vdW  Elec       q    Type
REMARK                         _______ _______ _______ _____ _____    ______ ____
ROOT
ATOM      1  O   UNL     1       0.579   1.851  25.319  0.00  0.00    -0.366 OA
ATOM      9  C   UNL     1       0.285   1.209  24.066  0.00  0.00    +0.158 C 
ATOM     10  C   UNL     1      -0.160   3.091  25.396  0.00  0.00    +0.167 C 
ATOM     11  C   UNL     1      -0.994   1.857  23.564  0.00  0.00    +0.175 C 
ATOM     12  C   UNL     1      -0.817   3.286  24.034  0.00  0.00    +0.176 C 
ENDROOT
BRANCH  11   2
ATOM      2  O   UNL     1      -1.131   1.742  22.163  0.00  0.00    -0.387 OA
ATOM     26  H   UNL     1      -2.075   1.601  21.974  0.00  0.00    +0.210 HD
ENDBRANCH  11   2
BRANCH  12   3
ATOM      3  O   UNL     1       0.107   3.974  23.191  0.00  0.00    -0.387 OA
ATOM     27  H   UNL     1      -0.165   3.814  22.272  0.00  0.00    +0.210 HD
ENDBRANCH  12   3
BRANCH   9  16
ATOM     16  C   UNL     1       0.159  -0.289  24.275  0.00  0.00    +0.130 C 
BRANCH  16  22
ATOM      4  O   UNL     1      -1.325  -0.317  26.187  0.00  0.00    -0.276 OA
ATOM      6  N   UNL     1      -1.948  -1.445  24.256  0.00  0.00    -0.312 N 
ATOM     22  C   UNL     1      -1.100  -0.667  25.031  0.00  0.00    +0.216 C 
ATOM     24  H   UNL     1      -1.675  -1.708  23.314  0.00  0.00    +0.149 HD
BRANCH   6   8
ATOM      8  C   UNL     1      -3.207  -1.933  24.742  0.00  0.00    +0.073 C 
ATOM     13  C   UNL     1      -4.408  -2.011  23.846  0.00  0.00    +0.024 C 
ATOM     14  C   UNL     1      -3.741  -3.270  24.317  0.00  0.00    +0.024 C 
ENDBRANCH   6   8
ENDBRANCH  16  22
ENDBRANCH   9  16
BRANCH  10  17
ATOM     17  C   UNL     1      -1.168   2.964  26.532  0.00  0.00    +0.138 C 
BRANCH  17   7
ATOM      5  O   UNL     1      -3.044   5.156  26.218  0.00  0.00    -0.276 OA
ATOM      7  N   UNL     1      -2.508   2.897  26.029  0.00  0.00    -0.313 N 
ATOM     23  C   UNL     1      -3.342   4.005  25.912  0.00  0.00    +0.216 C 
ATOM     25  H   UNL     1      -2.848   1.990  25.724  0.00  0.00    +0.149 HD
BRANCH  23  15
ATOM     15  C   UNL     1      -4.681   3.660  25.335  0.00  0.00    +0.075 C 
ATOM     18  C   UNL     1      -5.461   2.760  26.299  0.00  0.00    +0.013 C 
ATOM     19  C   UNL     1      -4.520   2.862  24.040  0.00  0.00    +0.013 C 
ATOM     20  C   UNL     1      -5.818   1.509  25.505  0.00  0.00    +0.001 C 
ATOM     21  C   UNL     1      -4.726   1.412  24.454  0.00  0.00    +0.001 C 
ENDBRANCH  23  15
ENDBRANCH  17   7
ENDBRANCH  10  17
TORSDOF 8
ENDMDL
