MODEL 1
REMARK VINA RESULT:       4.4      0.000      0.000
REMARK  Name = 45361435
REMARK  13 active torsions:
REMARK  status: ('A' for Active; 'I' for Inactive)
REMARK    1  A    between atoms: O_1  and  C_10
REMARK    2  A    between atoms: N_4  and  C_14
REMARK    3  A    between atoms: N_5  and  C_24
REMARK    4  A    between atoms: N_5  and  C_25
REMARK    5  A    between atoms: C_7  and  C_17
REMARK    6  A    between atoms: C_9  and  C_19
REMARK    7  A    between atoms: C_12  and  C_18
REMARK    8  A    between atoms: C_18  and  C_20
REMARK    9  A    between atoms: C_18  and  C_21
REMARK   10  A    between atoms: C_22  and  C_23
REMARK   11  A    between atoms: C_24  and  C_26
REMARK   12  A    between atoms: C_25  and  C_27
REMARK   13  A    between atoms: C_32  and  C_33
REMARK                            x       y       z     vdW  Elec       q    Type
REMARK                         _______ _______ _______ _____ _____    ______ ____
ROOT
ATOM      7  C   UNL     1      -2.449  -1.037  25.253  0.00  0.00    -0.027 C 
ATOM      8  C   UNL     1      -2.079   0.188  24.351  0.00  0.00    +0.028 C 
ATOM      9  C   UNL     1      -0.522   0.395  24.303  0.00  0.00    +0.012 C 
ATOM     10  C   UNL     1      -2.909   1.445  24.739  0.00  0.00    +0.122 C 
ATOM     11  C   UNL     1      -3.976  -1.282  25.189  0.00  0.00    +0.007 C 
ATOM     12  C   UNL     1      -4.430   1.166  24.775  0.00  0.00    +0.029 C 
ATOM     13  C   UNL     1      -1.746  -2.299  24.703  0.00  0.00    +0.009 C 
ATOM     14  C   UNL     1       0.178  -0.905  23.819  0.00  0.00    +0.076 C 
ATOM     15  C   UNL     1      -4.791  -0.065  25.607  0.00  0.00    +0.007 C 
ATOM     16  C   UNL     1      -0.235  -2.148  24.607  0.00  0.00    +0.023 C 
ATOM     17  C   UNL     1      -2.040  -0.830  26.734  0.00  0.00    +0.011 C 
ATOM     19  C   UNL     1      -0.086   1.568  23.408  0.00  0.00    +0.010 C 
ENDROOT
BRANCH  14   4
ATOM      3  O   UNL     1       1.913  -0.096  21.679  0.00  0.00    -0.270 OA
ATOM      4  N   UNL     1       1.621  -0.787  23.872  0.00  0.00    -0.308 N 
ATOM     22  C   UNL     1       2.372  -0.387  22.780  0.00  0.00    +0.244 C 
ATOM     34  H   UNL     1       2.077  -1.123  24.715  0.00  0.00    +0.149 HD
BRANCH  22  23
ATOM     23  C   UNL     1       3.842  -0.343  22.989  0.00  0.00    +0.037 A 
ATOM     28  C   UNL     1       4.491  -1.409  23.610  0.00  0.00    +0.014 A 
ATOM     29  C   UNL     1       4.574   0.765  22.561  0.00  0.00    +0.014 A 
ATOM     30  C   UNL     1       5.871  -1.369  23.805  0.00  0.00    +0.019 A 
ATOM     31  C   UNL     1       5.954   0.806  22.755  0.00  0.00    +0.019 A 
ATOM     32  C   UNL     1       6.604  -0.260  23.377  0.00  0.00    +0.052 A 
BRANCH  32  33
ATOM      6  N   UNL     1       9.166  -0.184  23.739  0.00  0.00    -0.191 NA
ATOM     33  C   UNL     1       8.017  -0.218  23.576  0.00  0.00    +0.099 C 
ENDBRANCH  32  33
ENDBRANCH  22  23
ENDBRANCH  14   4
BRANCH  10   1
ATOM      1  O   UNL     1      -2.706   2.470  23.766  0.00  0.00    -0.391 OA
ATOM     35  H   UNL     1      -1.809   2.371  23.404  0.00  0.00    +0.210 HD
ENDBRANCH  10   1
BRANCH  12  18
ATOM     18  C   UNL     1      -5.219   2.378  25.285  0.00  0.00    +0.078 C 
ATOM     20  C   UNL     1      -6.659   2.299  24.778  0.00  0.00    +0.017 C 
BRANCH  18  21
ATOM      2  O   UNL     1      -4.837   4.148  23.718  0.00  0.00    -0.275 OA
ATOM      5  N   UNL     1      -3.590   4.249  25.666  0.00  0.00    -0.302 N 
ATOM     21  C   UNL     1      -4.542   3.670  24.819  0.00  0.00    +0.219 C 
BRANCH   5  24
ATOM     24  C   UNL     1      -3.211   3.770  26.993  0.00  0.00    +0.104 C 
ATOM     26  C   UNL     1      -1.824   3.161  26.987  0.00  0.00    +0.024 C 
ENDBRANCH   5  24
BRANCH   5  25
ATOM     25  C   UNL     1      -2.911   5.469  25.241  0.00  0.00    +0.104 C 
ATOM     27  C   UNL     1      -1.430   5.233  25.027  0.00  0.00    +0.024 C 
ENDBRANCH   5  25
ENDBRANCH  18  21
ENDBRANCH  12  18
TORSDOF 8
ENDMDL
MODEL 2
REMARK VINA RESULT:       6.6      0.838      1.251
REMARK  Name = 45361435
REMARK  13 active torsions:
REMARK  status: ('A' for Active; 'I' for Inactive)
REMARK    1  A    between atoms: O_1  and  C_10
REMARK    2  A    between atoms: N_4  and  C_14
REMARK    3  A    between atoms: N_5  and  C_24
REMARK    4  A    between atoms: N_5  and  C_25
REMARK    5  A    between atoms: C_7  and  C_17
REMARK    6  A    between atoms: C_9  and  C_19
REMARK    7  A    between atoms: C_12  and  C_18
REMARK    8  A    between atoms: C_18  and  C_20
REMARK    9  A    between atoms: C_18  and  C_21
REMARK   10  A    between atoms: C_22  and  C_23
REMARK   11  A    between atoms: C_24  and  C_26
REMARK   12  A    between atoms: C_25  and  C_27
REMARK   13  A    between atoms: C_32  and  C_33
REMARK                            x       y       z     vdW  Elec       q    Type
REMARK                         _______ _______ _______ _____ _____    ______ ____
ROOT
ATOM      7  C   UNL     1      -2.551  -0.878  25.235  0.00  0.00    -0.027 C 
ATOM      8  C   UNL     1      -2.177   0.144  24.111  0.00  0.00    +0.028 C 
ATOM      9  C   UNL     1      -0.623   0.371  24.058  0.00  0.00    +0.012 C 
ATOM     10  C   UNL     1      -3.038   1.435  24.213  0.00  0.00    +0.122 C 
ATOM     11  C   UNL     1      -4.071  -1.165  25.187  0.00  0.00    +0.007 C 
ATOM     12  C   UNL     1      -4.555   1.135  24.269  0.00  0.00    +0.029 C 
ATOM     13  C   UNL     1      -1.811  -2.211  24.973  0.00  0.00    +0.009 C 
ATOM     14  C   UNL     1       0.113  -0.984  23.869  0.00  0.00    +0.076 C 
ATOM     15  C   UNL     1      -4.918   0.092  25.327  0.00  0.00    +0.007 C 
ATOM     16  C   UNL     1      -0.301  -2.048  24.884  0.00  0.00    +0.023 C 
ATOM     17  C   UNL     1      -2.187  -0.363  26.652  0.00  0.00    +0.011 C 
ATOM     19  C   UNL     1      -0.182   1.346  22.952  0.00  0.00    +0.010 C 
ENDROOT
BRANCH  14   4
ATOM      3  O   UNL     1       1.855  -0.269  21.700  0.00  0.00    -0.270 OA
ATOM      4  N   UNL     1       1.551  -0.826  23.931  0.00  0.00    -0.308 N 
ATOM     22  C   UNL     1       2.307  -0.477  22.823  0.00  0.00    +0.244 C 
ATOM     34  H   UNL     1       2.004  -1.095  24.798  0.00  0.00    +0.149 HD
BRANCH  22  23
ATOM     23  C   UNL     1       3.772  -0.381  23.046  0.00  0.00    +0.037 A 
ATOM     28  C   UNL     1       4.473  -1.473  23.556  0.00  0.00    +0.014 A 
ATOM     29  C   UNL     1       4.448   0.802  22.742  0.00  0.00    +0.014 A 
ATOM     30  C   UNL     1       5.849  -1.384  23.764  0.00  0.00    +0.019 A 
ATOM     31  C   UNL     1       5.823   0.891  22.949  0.00  0.00    +0.019 A 
ATOM     32  C   UNL     1       6.525  -0.201  23.460  0.00  0.00    +0.052 A 
BRANCH  32  33
ATOM      6  N   UNL     1       9.080  -0.034  23.846  0.00  0.00    -0.191 NA
ATOM     33  C   UNL     1       7.934  -0.109  23.673  0.00  0.00    +0.099 C 
ENDBRANCH  32  33
ENDBRANCH  22  23
ENDBRANCH  14   4
BRANCH  10   1
ATOM      1  O   UNL     1      -2.826   2.243  23.055  0.00  0.00    -0.391 OA
ATOM     35  H   UNL     1      -3.028   1.707  22.270  0.00  0.00    +0.210 HD
ENDBRANCH  10   1
BRANCH  12  18
ATOM     18  C   UNL     1      -5.378   2.408  24.501  0.00  0.00    +0.078 C 
ATOM     20  C   UNL     1      -5.129   3.391  23.356  0.00  0.00    +0.017 C 
BRANCH  18  21
ATOM      2  O   UNL     1      -5.647   2.721  26.860  0.00  0.00    -0.275 OA
ATOM      5  N   UNL     1      -3.948   3.946  25.875  0.00  0.00    -0.302 N 
ATOM     21  C   UNL     1      -5.005   3.028  25.849  0.00  0.00    +0.219 C 
BRANCH   5  24
ATOM     24  C   UNL     1      -3.118   4.336  24.737  0.00  0.00    +0.104 C 
ATOM     26  C   UNL     1      -1.756   4.824  25.186  0.00  0.00    +0.024 C 
ENDBRANCH   5  24
BRANCH   5  25
ATOM     25  C   UNL     1      -3.580   4.572  27.141  0.00  0.00    +0.104 C 
ATOM     27  C   UNL     1      -2.627   3.700  27.933  0.00  0.00    +0.024 C 
ENDBRANCH   5  25
ENDBRANCH  18  21
ENDBRANCH  12  18
TORSDOF 8
ENDMDL
