MODEL 1
REMARK VINA RESULT:      -4.3      0.000      0.000
REMARK  Name = 45784196
REMARK  4 active torsions:
REMARK  status: ('A' for Active; 'I' for Inactive)
REMARK    1  A    between atoms: N_2  and  C_10
REMARK    2  A    between atoms: C_5  and  C_9
REMARK    3  A    between atoms: C_10  and  C_11
REMARK    4  A    between atoms: C_17  and  C_21
REMARK                            x       y       z     vdW  Elec       q    Type
REMARK                         _______ _______ _______ _____ _____    ______ ____
ROOT
ATOM      2  N   UNL     1       0.805  -0.548  23.660  0.00  0.00    -0.296 NA
ATOM      5  C   UNL     1      -0.967   0.087  25.058  0.00  0.00    +0.090 C 
ATOM      6  C   UNL     1      -1.276  -1.281  24.427  0.00  0.00    +0.029 C 
ATOM      7  C   UNL     1       0.181   0.655  24.214  0.00  0.00    +0.097 C 
ATOM      8  C   UNL     1      -0.313  -1.399  23.252  0.00  0.00    +0.085 C 
ENDROOT
BRANCH   5   9
ATOM      1  O   UNL     1      -3.378   0.437  25.136  0.00  0.00    -0.439 OA
ATOM      3  N   UNL     1      -2.146   2.336  25.244  0.00  0.00    -0.213 NA
ATOM      9  C   UNL     1      -2.149   1.025  25.152  0.00  0.00    +0.201 A 
ATOM     12  C   UNL     1      -3.483   2.653  25.296  0.00  0.00    +0.110 A 
ATOM     13  C   UNL     1      -4.240   1.492  25.230  0.00  0.00    +0.155 A 
ATOM     15  C   UNL     1      -4.141   3.887  25.399  0.00  0.00    +0.035 A 
ATOM     16  C   UNL     1      -5.628   1.450  25.257  0.00  0.00    +0.049 A 
ATOM     17  C   UNL     1      -5.543   3.884  25.429  0.00  0.00    -0.048 A 
ATOM     18  C   UNL     1      -6.269   2.689  25.360  0.00  0.00    +0.007 A 
ATOM     21  C   UNL     1      -6.273   5.183  25.538  0.00  0.00    +0.044 C 
ENDBRANCH   5   9
BRANCH   2  10
ATOM     10  C   UNL     1       1.706  -0.249  22.557  0.00  0.00    +0.139 C 
BRANCH  10  11
ATOM      4  N   UNL     1       3.621  -1.366  23.560  0.00  0.00    -0.259 NA
ATOM     11  C   UNL     1       3.146  -0.231  23.000  0.00  0.00    +0.055 A 
ATOM     14  C   UNL     1       3.898   0.917  22.814  0.00  0.00    +0.024 A 
ATOM     19  C   UNL     1       5.224   0.901  23.231  0.00  0.00    +0.003 A 
ATOM     20  C   UNL     1       4.915  -1.344  23.953  0.00  0.00    +0.111 A 
ATOM     22  C   UNL     1       5.750  -0.247  23.813  0.00  0.00    +0.020 A 
ENDBRANCH  10  11
ENDBRANCH   2  10
TORSDOF 3
ENDMDL
MODEL 2
REMARK VINA RESULT:      -2.9     18.576     19.926
REMARK  Name = 45784196
REMARK  4 active torsions:
REMARK  status: ('A' for Active; 'I' for Inactive)
REMARK    1  A    between atoms: N_2  and  C_10
REMARK    2  A    between atoms: C_5  and  C_9
REMARK    3  A    between atoms: C_10  and  C_11
REMARK    4  A    between atoms: C_17  and  C_21
REMARK                            x       y       z     vdW  Elec       q    Type
REMARK                         _______ _______ _______ _____ _____    ______ ____
ROOT
ATOM      2  N   UNL     1      14.949  -5.591  32.512  0.00  0.00    -0.296 NA
ATOM      5  C   UNL     1      15.179  -7.571  31.276  0.00  0.00    +0.090 C 
ATOM      6  C   UNL     1      16.509  -7.244  31.975  0.00  0.00    +0.029 C 
ATOM      7  C   UNL     1      14.369  -6.269  31.352  0.00  0.00    +0.097 C 
ATOM      8  C   UNL     1      16.393  -5.779  32.377  0.00  0.00    +0.085 C 
ENDROOT
BRANCH   5   9
ATOM      1  O   UNL     1      15.616  -7.178  28.911  0.00  0.00    -0.439 OA
ATOM      3  N   UNL     1      15.174  -9.336  29.442  0.00  0.00    -0.213 NA
ATOM      9  C   UNL     1      15.313  -8.100  29.867  0.00  0.00    +0.201 A 
ATOM     12  C   UNL     1      15.403  -9.233  28.091  0.00  0.00    +0.110 A 
ATOM     13  C   UNL     1      15.675  -7.913  27.762  0.00  0.00    +0.155 A 
ATOM     15  C   UNL     1      15.403 -10.199  27.073  0.00  0.00    +0.035 A 
ATOM     16  C   UNL     1      15.952  -7.457  26.480  0.00  0.00    +0.049 A 
ATOM     17  C   UNL     1      15.679  -9.776  25.765  0.00  0.00    -0.048 A 
ATOM     18  C   UNL     1      15.948  -8.432  25.477  0.00  0.00    +0.007 A 
ATOM     21  C   UNL     1      15.686 -10.780  24.659  0.00  0.00    +0.044 C 
ENDBRANCH   5   9
BRANCH   2  10
ATOM     10  C   UNL     1      14.575  -4.186  32.579  0.00  0.00    +0.139 C 
BRANCH  10  11
ATOM      4  N   UNL     1      15.750  -3.529  30.552  0.00  0.00    -0.259 NA
ATOM     11  C   UNL     1      15.575  -3.307  31.874  0.00  0.00    +0.055 A 
ATOM     14  C   UNL     1      16.251  -2.335  32.594  0.00  0.00    +0.024 A 
ATOM     19  C   UNL     1      17.165  -1.539  31.914  0.00  0.00    +0.003 A 
ATOM     20  C   UNL     1      16.647  -2.735  29.924  0.00  0.00    +0.111 A 
ATOM     22  C   UNL     1      17.373  -1.737  30.554  0.00  0.00    +0.020 A 
ENDBRANCH  10  11
ENDBRANCH   2  10
TORSDOF 3
ENDMDL
MODEL 3
REMARK VINA RESULT:      -2.6      2.266      7.337
REMARK  Name = 45784196
REMARK  4 active torsions:
REMARK  status: ('A' for Active; 'I' for Inactive)
REMARK    1  A    between atoms: N_2  and  C_10
REMARK    2  A    between atoms: C_5  and  C_9
REMARK    3  A    between atoms: C_10  and  C_11
REMARK    4  A    between atoms: C_17  and  C_21
REMARK                            x       y       z     vdW  Elec       q    Type
REMARK                         _______ _______ _______ _____ _____    ______ ____
ROOT
ATOM      2  N   UNL     1      -3.949   1.945  25.090  0.00  0.00    -0.296 NA
ATOM      5  C   UNL     1      -1.710   2.516  24.690  0.00  0.00    +0.090 C 
ATOM      6  C   UNL     1      -2.605   3.169  23.623  0.00  0.00    +0.029 C 
ATOM      7  C   UNL     1      -2.596   1.444  25.339  0.00  0.00    +0.097 C 
ATOM      8  C   UNL     1      -3.927   2.417  23.706  0.00  0.00    +0.085 C 
ENDROOT
BRANCH   5   9
ATOM      1  O   UNL     1      -0.496   0.875  23.358  0.00  0.00    -0.439 OA
ATOM      3  N   UNL     1       0.817   2.396  24.405  0.00  0.00    -0.213 NA
ATOM      9  C   UNL     1      -0.401   1.964  24.171  0.00  0.00    +0.201 A 
ATOM     12  C   UNL     1       1.604   1.527  23.688  0.00  0.00    +0.110 A 
ATOM     13  C   UNL     1       0.803   0.593  23.046  0.00  0.00    +0.155 A 
ATOM     15  C   UNL     1       2.995   1.453  23.525  0.00  0.00    +0.035 A 
ATOM     16  C   UNL     1       1.275  -0.432  22.237  0.00  0.00    +0.049 A 
ATOM     17  C   UNL     1       3.509   0.431  22.715  0.00  0.00    -0.048 A 
ATOM     18  C   UNL     1       2.665  -0.491  22.084  0.00  0.00    +0.007 A 
ATOM     21  C   UNL     1       4.987   0.326  22.521  0.00  0.00    +0.044 C 
ENDBRANCH   5   9
BRANCH   2  10
ATOM     10  C   UNL     1      -4.967   0.930  25.314  0.00  0.00    +0.139 C 
BRANCH  10  11
ATOM      4  N   UNL     1      -3.768  -1.044  26.081  0.00  0.00    -0.259 NA
ATOM     11  C   UNL     1      -4.438  -0.459  25.064  0.00  0.00    +0.055 A 
ATOM     14  C   UNL     1      -4.660  -1.058  23.835  0.00  0.00    +0.024 A 
ATOM     19  C   UNL     1      -4.161  -2.340  23.636  0.00  0.00    +0.003 A 
ATOM     20  C   UNL     1      -3.298  -2.290  25.852  0.00  0.00    +0.111 A 
ATOM     22  C   UNL     1      -3.466  -2.975  24.659  0.00  0.00    +0.020 A 
ENDBRANCH  10  11
ENDBRANCH   2  10
TORSDOF 3
ENDMDL
MODEL 4
REMARK VINA RESULT:      -0.9      1.756      7.481
REMARK  Name = 45784196
REMARK  4 active torsions:
REMARK  status: ('A' for Active; 'I' for Inactive)
REMARK    1  A    between atoms: N_2  and  C_10
REMARK    2  A    between atoms: C_5  and  C_9
REMARK    3  A    between atoms: C_10  and  C_11
REMARK    4  A    between atoms: C_17  and  C_21
REMARK                            x       y       z     vdW  Elec       q    Type
REMARK                         _______ _______ _______ _____ _____    ______ ____
ROOT
ATOM      2  N   UNL     1      -4.674  -0.307  24.791  0.00  0.00    -0.296 NA
ATOM      5  C   UNL     1      -2.556  -1.099  24.171  0.00  0.00    +0.090 C 
ATOM      6  C   UNL     1      -2.825  -1.451  25.643  0.00  0.00    +0.029 C 
ATOM      7  C   UNL     1      -3.607  -0.035  23.827  0.00  0.00    +0.097 C 
ATOM      8  C   UNL     1      -3.984  -0.553  26.057  0.00  0.00    +0.085 C 
ENDROOT
BRANCH   5   9
ATOM      1  O   UNL     1      -0.896   0.681  24.028  0.00  0.00    -0.439 OA
ATOM      3  N   UNL     1      -0.122  -1.377  23.478  0.00  0.00    -0.213 NA
ATOM      9  C   UNL     1      -1.144  -0.650  23.872  0.00  0.00    +0.201 A 
ATOM     12  C   UNL     1       0.893  -0.458  23.362  0.00  0.00    +0.110 A 
ATOM     13  C   UNL     1       0.423   0.803  23.698  0.00  0.00    +0.155 A 
ATOM     15  C   UNL     1       2.236  -0.601  22.982  0.00  0.00    +0.035 A 
ATOM     16  C   UNL     1       1.188   1.962  23.689  0.00  0.00    +0.049 A 
ATOM     17  C   UNL     1       3.040   0.547  22.960  0.00  0.00    -0.048 A 
ATOM     18  C   UNL     1       2.525   1.802  23.308  0.00  0.00    +0.007 A 
ATOM     21  C   UNL     1       4.474   0.427  22.560  0.00  0.00    +0.044 C 
ENDBRANCH   5   9
BRANCH   2  10
ATOM     10  C   UNL     1      -5.630   0.787  24.885  0.00  0.00    +0.139 C 
BRANCH  10  11
ATOM      4  N   UNL     1      -5.068   2.834  26.074  0.00  0.00    -0.259 NA
ATOM     11  C   UNL     1      -4.945   2.128  24.928  0.00  0.00    +0.055 A 
ATOM     14  C   UNL     1      -4.237   2.564  23.820  0.00  0.00    +0.024 A 
ATOM     19  C   UNL     1      -3.615   3.805  23.893  0.00  0.00    +0.003 A 
ATOM     20  C   UNL     1      -4.449   4.035  26.108  0.00  0.00    +0.111 A 
ATOM     22  C   UNL     1      -3.718   4.561  25.055  0.00  0.00    +0.020 A 
ENDBRANCH  10  11
ENDBRANCH   2  10
TORSDOF 3
ENDMDL
MODEL 5
REMARK VINA RESULT:      -0.8      1.758      7.522
REMARK  Name = 45784196
REMARK  4 active torsions:
REMARK  status: ('A' for Active; 'I' for Inactive)
REMARK    1  A    between atoms: N_2  and  C_10
REMARK    2  A    between atoms: C_5  and  C_9
REMARK    3  A    between atoms: C_10  and  C_11
REMARK    4  A    between atoms: C_17  and  C_21
REMARK                            x       y       z     vdW  Elec       q    Type
REMARK                         _______ _______ _______ _____ _____    ______ ____
ROOT
ATOM      2  N   UNL     1      -3.168   0.188  24.382  0.00  0.00    -0.296 NA
ATOM      5  C   UNL     1      -1.140  -0.914  23.966  0.00  0.00    +0.090 C 
ATOM      6  C   UNL     1      -1.569  -1.159  25.422  0.00  0.00    +0.029 C 
ATOM      7  C   UNL     1      -2.002   0.267  23.500  0.00  0.00    +0.097 C 
ATOM      8  C   UNL     1      -2.619  -0.094  25.708  0.00  0.00    +0.085 C 
ENDROOT
BRANCH   5   9
ATOM      1  O   UNL     1       0.685   0.536  23.253  0.00  0.00    -0.439 OA
ATOM      3  N   UNL     1       1.339  -1.489  24.031  0.00  0.00    -0.213 NA
ATOM      9  C   UNL     1       0.340  -0.676  23.770  0.00  0.00    +0.201 A 
ATOM     12  C   UNL     1       2.444  -0.761  23.660  0.00  0.00    +0.110 A 
ATOM     13  C   UNL     1       2.047   0.480  23.183  0.00  0.00    +0.155 A 
ATOM     15  C   UNL     1       3.812  -1.069  23.693  0.00  0.00    +0.035 A 
ATOM     16  C   UNL     1       2.912   1.465  22.724  0.00  0.00    +0.049 A 
ATOM     17  C   UNL     1       4.716  -0.099  23.236  0.00  0.00    -0.048 A 
ATOM     18  C   UNL     1       4.273   1.142  22.763  0.00  0.00    +0.007 A 
ATOM     21  C   UNL     1       6.180  -0.397  23.258  0.00  0.00    +0.044 C 
ENDBRANCH   5   9
BRANCH   2  10
ATOM     10  C   UNL     1      -3.966   1.405  24.358  0.00  0.00    +0.139 C 
BRANCH  10  11
ATOM      4  N   UNL     1      -1.980   2.786  24.100  0.00  0.00    -0.259 NA
ATOM     11  C   UNL     1      -3.155   2.614  24.744  0.00  0.00    +0.055 A 
ATOM     14  C   UNL     1      -3.640   3.474  25.716  0.00  0.00    +0.024 A 
ATOM     19  C   UNL     1      -2.869   4.582  26.048  0.00  0.00    +0.003 A 
ATOM     20  C   UNL     1      -1.257   3.874  24.449  0.00  0.00    +0.111 A 
ATOM     22  C   UNL     1      -1.653   4.793  25.407  0.00  0.00    +0.020 A 
ENDBRANCH  10  11
ENDBRANCH   2  10
TORSDOF 3
ENDMDL
