MODEL 1
REMARK VINA RESULT:       0.3      0.000      0.000
REMARK  Name = 51138129
REMARK  8 active torsions:
REMARK  status: ('A' for Active; 'I' for Inactive)
REMARK    1  A    between atoms: N_4  and  C_26
REMARK    2  A    between atoms: N_5  and  C_27
REMARK    3  A    between atoms: C_6  and  C_12
REMARK    4  A    between atoms: C_7  and  C_14
REMARK    5  A    between atoms: C_12  and  C_15
REMARK    6  A    between atoms: C_15  and  C_24
REMARK    7  A    between atoms: C_15  and  C_25
REMARK    8  A    between atoms: C_26  and  C_28
REMARK                            x       y       z     vdW  Elec       q    Type
REMARK                         _______ _______ _______ _____ _____    ______ ____
ROOT
ATOM      2  N   UNL     1      12.626  -8.027  31.848  0.00  0.00    -0.299 NA
ATOM      4  N   UNL     1      15.476  -6.670  27.907  0.00  0.00    -0.343 N 
ATOM      6  C   UNL     1      14.012  -8.296  32.249  0.00  0.00    +0.085 C 
ATOM      7  C   UNL     1      12.365  -6.654  31.439  0.00  0.00    +0.145 C 
ATOM      8  C   UNL     1      12.419  -6.501  29.920  0.00  0.00    +0.065 C 
ATOM      9  C   UNL     1      15.069  -8.138  31.151  0.00  0.00    -0.021 A 
ATOM     10  C   UNL     1      14.876  -7.448  29.920  0.00  0.00    +0.008 A 
ATOM     11  C   UNL     1      13.773  -6.732  29.337  0.00  0.00    -0.020 A 
ATOM     13  C   UNL     1      15.931  -7.364  29.003  0.00  0.00    +0.050 A 
ATOM     16  C   UNL     1      14.184  -6.280  28.099  0.00  0.00    +0.090 A 
ATOM     19  C   UNL     1      16.373  -8.642  31.387  0.00  0.00    +0.006 A 
ATOM     22  C   UNL     1      17.195  -7.908  29.234  0.00  0.00    +0.026 A 
ATOM     23  C   UNL     1      17.403  -8.539  30.454  0.00  0.00    +0.002 A 
ATOM     30  H   UNL     1      12.318  -8.688  31.136  0.00  0.00    +0.123 HD
ENDROOT
BRANCH   7  14
ATOM      1  O   UNL     1      10.623  -5.187  32.060  0.00  0.00    -0.274 OA
ATOM      3  N   UNL     1      10.154  -7.460  32.159  0.00  0.00    -0.298 N 
ATOM      5  N   UNL     1       8.158  -9.506  31.969  0.00  0.00    -0.302 NA
ATOM     14  C   UNL     1      10.975  -6.360  31.914  0.00  0.00    +0.233 C 
ATOM     17  C   UNL     1      10.545  -8.864  31.993  0.00  0.00    +0.123 C 
ATOM     18  C   UNL     1       8.832  -7.265  32.751  0.00  0.00    +0.123 C 
ATOM     20  C   UNL     1       9.449  -9.661  31.284  0.00  0.00    +0.103 C 
ATOM     21  C   UNL     1       7.771  -8.088  32.023  0.00  0.00    +0.103 C 
ATOM     27  C   UNL     1       7.124 -10.296  31.303  0.00  0.00    +0.105 C 
ENDBRANCH   7  14
BRANCH   6  12
ATOM     12  C   UNL     1      13.980  -9.718  32.836  0.00  0.00    +0.026 C 
BRANCH  12  15
ATOM     15  C   UNL     1      13.580 -10.781  31.809  0.00  0.00    -0.015 C 
ATOM     24  C   UNL     1      14.590 -10.776  30.658  0.00  0.00    +0.007 C 
ATOM     25  C   UNL     1      12.169 -10.569  31.258  0.00  0.00    +0.007 C 
ENDBRANCH  12  15
ENDBRANCH   6  12
BRANCH   4  26
ATOM     26  C   UNL     1      16.249  -6.367  26.722  0.00  0.00    +0.148 C 
BRANCH  26  28
ATOM     28  C   UNL     1      16.790  -7.601  26.061  0.00  0.00    -0.013 C 
ATOM     29  C   UNL     1      16.672  -7.860  24.753  0.00  0.00    +0.005 C 
ENDBRANCH  26  28
ENDBRANCH   4  26
TORSDOF 5
ENDMDL
MODEL 2
REMARK VINA RESULT:       0.9     14.919     18.751
REMARK  Name = 51138129
REMARK  8 active torsions:
REMARK  status: ('A' for Active; 'I' for Inactive)
REMARK    1  A    between atoms: N_4  and  C_26
REMARK    2  A    between atoms: N_5  and  C_27
REMARK    3  A    between atoms: C_6  and  C_12
REMARK    4  A    between atoms: C_7  and  C_14
REMARK    5  A    between atoms: C_12  and  C_15
REMARK    6  A    between atoms: C_15  and  C_24
REMARK    7  A    between atoms: C_15  and  C_25
REMARK    8  A    between atoms: C_26  and  C_28
REMARK                            x       y       z     vdW  Elec       q    Type
REMARK                         _______ _______ _______ _____ _____    ______ ____
ROOT
ATOM      2  N   UNL     1      -0.534   2.245  23.567  0.00  0.00    -0.299 NA
ATOM      4  N   UNL     1      -2.618  -2.242  24.582  0.00  0.00    -0.343 N 
ATOM      6  C   UNL     1      -1.636   2.520  24.498  0.00  0.00    +0.085 C 
ATOM      7  C   UNL     1       0.450   1.289  24.053  0.00  0.00    +0.145 C 
ATOM      8  C   UNL     1       0.175  -0.117  23.524  0.00  0.00    +0.065 C 
ATOM      9  C   UNL     1      -2.551   1.334  24.821  0.00  0.00    -0.021 A 
ATOM     10  C   UNL     1      -2.236  -0.034  24.579  0.00  0.00    +0.008 A 
ATOM     11  C   UNL     1      -1.095  -0.717  24.031  0.00  0.00    -0.020 A 
ATOM     13  C   UNL     1      -3.157  -1.027  24.935  0.00  0.00    +0.050 A 
ATOM     16  C   UNL     1      -1.377  -2.067  24.043  0.00  0.00    +0.090 A 
ATOM     19  C   UNL     1      -3.779   1.585  25.483  0.00  0.00    +0.006 A 
ATOM     22  C   UNL     1      -4.383  -0.756  25.544  0.00  0.00    +0.026 A 
ATOM     23  C   UNL     1      -4.674   0.573  25.825  0.00  0.00    +0.002 A 
ATOM     30  H   UNL     1      -0.891   1.973  22.651  0.00  0.00    +0.123 HD
ENDROOT
BRANCH   7  14
ATOM      1  O   UNL     1       1.950   2.978  23.366  0.00  0.00    -0.274 OA
ATOM      3  N   UNL     1       2.708   0.788  23.212  0.00  0.00    -0.298 N 
ATOM      5  N   UNL     1       4.963  -0.978  23.273  0.00  0.00    -0.302 NA
ATOM     14  C   UNL     1       1.763   1.768  23.514  0.00  0.00    +0.233 C 
ATOM     17  C   UNL     1       2.514  -0.656  23.378  0.00  0.00    +0.123 C 
ATOM     18  C   UNL     1       3.961   1.160  22.558  0.00  0.00    +0.123 C 
ATOM     20  C   UNL     1       3.741  -1.307  24.020  0.00  0.00    +0.103 C 
ATOM     21  C   UNL     1       5.157   0.479  23.219  0.00  0.00    +0.103 C 
ATOM     27  C   UNL     1       6.125  -1.629  23.876  0.00  0.00    +0.105 C 
ENDBRANCH   7  14
BRANCH   6  12
ATOM     12  C   UNL     1      -2.398   3.697  23.864  0.00  0.00    +0.026 C 
BRANCH  12  15
ATOM     15  C   UNL     1      -2.401   4.951  24.743  0.00  0.00    -0.015 C 
ATOM     24  C   UNL     1      -0.965   5.453  24.911  0.00  0.00    +0.007 C 
ATOM     25  C   UNL     1      -3.026   4.706  26.118  0.00  0.00    +0.007 C 
ENDBRANCH  12  15
ENDBRANCH   6  12
BRANCH   4  26
ATOM     26  C   UNL     1      -3.250  -3.530  24.766  0.00  0.00    +0.148 C 
BRANCH  26  28
ATOM     28  C   UNL     1      -4.281  -3.818  23.714  0.00  0.00    -0.013 C 
ATOM     29  C   UNL     1      -4.925  -2.871  23.021  0.00  0.00    +0.005 C 
ENDBRANCH  26  28
ENDBRANCH   4  26
TORSDOF 5
ENDMDL
MODEL 3
REMARK VINA RESULT:       1.7     15.780     19.487
REMARK  Name = 51138129
REMARK  8 active torsions:
REMARK  status: ('A' for Active; 'I' for Inactive)
REMARK    1  A    between atoms: N_4  and  C_26
REMARK    2  A    between atoms: N_5  and  C_27
REMARK    3  A    between atoms: C_6  and  C_12
REMARK    4  A    between atoms: C_7  and  C_14
REMARK    5  A    between atoms: C_12  and  C_15
REMARK    6  A    between atoms: C_15  and  C_24
REMARK    7  A    between atoms: C_15  and  C_25
REMARK    8  A    between atoms: C_26  and  C_28
REMARK                            x       y       z     vdW  Elec       q    Type
REMARK                         _______ _______ _______ _____ _____    ______ ____
ROOT
ATOM      2  N   UNL     1      -2.390  -0.781  24.703  0.00  0.00    -0.299 NA
ATOM      4  N   UNL     1      -2.823   4.151  25.698  0.00  0.00    -0.343 N 
ATOM      6  C   UNL     1      -3.772  -0.425  24.358  0.00  0.00    +0.085 C 
ATOM      7  C   UNL     1      -1.371   0.000  24.018  0.00  0.00    +0.145 C 
ATOM      8  C   UNL     1      -0.873   1.156  24.884  0.00  0.00    +0.065 C 
ATOM      9  C   UNL     1      -4.216   0.989  24.743  0.00  0.00    -0.021 A 
ATOM     10  C   UNL     1      -3.338   2.060  25.079  0.00  0.00    +0.008 A 
ATOM     11  C   UNL     1      -1.909   2.196  25.158  0.00  0.00    -0.020 A 
ATOM     13  C   UNL     1      -3.873   3.314  25.401  0.00  0.00    +0.050 A 
ATOM     16  C   UNL     1      -1.638   3.491  25.550  0.00  0.00    +0.090 A 
ATOM     19  C   UNL     1      -5.597   1.305  24.694  0.00  0.00    +0.006 A 
ATOM     22  C   UNL     1      -5.240   3.593  25.392  0.00  0.00    +0.026 A 
ATOM     23  C   UNL     1      -6.096   2.565  25.018  0.00  0.00    +0.002 A 
ATOM     30  H   UNL     1      -2.251  -0.763  25.713  0.00  0.00    +0.123 HD
ENDROOT
BRANCH   7  14
ATOM      1  O   UNL     1      -0.489  -2.142  23.565  0.00  0.00    -0.274 OA
ATOM      3  N   UNL     1       1.045  -0.414  23.801  0.00  0.00    -0.298 N 
ATOM      5  N   UNL     1       3.612   0.628  23.072  0.00  0.00    -0.302 NA
ATOM     14  C   UNL     1      -0.241  -0.953  23.775  0.00  0.00    +0.233 C 
ATOM     17  C   UNL     1       1.370   0.994  24.048  0.00  0.00    +0.123 C 
ATOM     18  C   UNL     1       2.207  -1.297  23.709  0.00  0.00    +0.123 C 
ATOM     20  C   UNL     1       2.426   1.497  23.062  0.00  0.00    +0.103 C 
ATOM     21  C   UNL     1       3.241  -0.752  22.727  0.00  0.00    +0.103 C 
ATOM     27  C   UNL     1       4.628   1.134  22.150  0.00  0.00    +0.105 C 
ENDBRANCH   7  14
BRANCH   6  12
ATOM     12  C   UNL     1      -4.633  -1.515  25.023  0.00  0.00    +0.026 C 
BRANCH  12  15
ATOM     15  C   UNL     1      -4.185  -2.934  24.662  0.00  0.00    -0.015 C 
ATOM     24  C   UNL     1      -2.894  -3.264  25.415  0.00  0.00    +0.007 C 
ATOM     25  C   UNL     1      -3.968  -3.120  23.159  0.00  0.00    +0.007 C 
ENDBRANCH  12  15
ENDBRANCH   6  12
BRANCH   4  26
ATOM     26  C   UNL     1      -2.936   5.539  26.092  0.00  0.00    +0.148 C 
BRANCH  26  28
ATOM     28  C   UNL     1      -2.032   6.435  25.298  0.00  0.00    -0.013 C 
ATOM     29  C   UNL     1      -0.957   6.005  24.626  0.00  0.00    +0.005 C 
ENDBRANCH  26  28
ENDBRANCH   4  26
TORSDOF 5
ENDMDL
MODEL 4
REMARK VINA RESULT:       1.8     15.042     18.852
REMARK  Name = 51138129
REMARK  8 active torsions:
REMARK  status: ('A' for Active; 'I' for Inactive)
REMARK    1  A    between atoms: N_4  and  C_26
REMARK    2  A    between atoms: N_5  and  C_27
REMARK    3  A    between atoms: C_6  and  C_12
REMARK    4  A    between atoms: C_7  and  C_14
REMARK    5  A    between atoms: C_12  and  C_15
REMARK    6  A    between atoms: C_15  and  C_24
REMARK    7  A    between atoms: C_15  and  C_25
REMARK    8  A    between atoms: C_26  and  C_28
REMARK                            x       y       z     vdW  Elec       q    Type
REMARK                         _______ _______ _______ _____ _____    ______ ____
ROOT
ATOM      2  N   UNL     1       0.097   0.184  24.231  0.00  0.00    -0.299 NA
ATOM      4  N   UNL     1      -4.491   2.247  24.674  0.00  0.00    -0.343 N 
ATOM      6  C   UNL     1      -0.847  -0.843  23.772  0.00  0.00    +0.085 C 
ATOM      7  C   UNL     1       0.004   1.454  23.525  0.00  0.00    +0.145 C 
ATOM      8  C   UNL     1      -0.852   2.460  24.292  0.00  0.00    +0.065 C 
ATOM      9  C   UNL     1      -2.332  -0.529  23.980  0.00  0.00    -0.021 A 
ATOM     10  C   UNL     1      -2.866   0.764  24.251  0.00  0.00    +0.008 A 
ATOM     11  C   UNL     1      -2.291   2.074  24.396  0.00  0.00    -0.020 A 
ATOM     13  C   UNL     1      -4.249   0.920  24.407  0.00  0.00    +0.050 A 
ATOM     16  C   UNL     1      -3.323   2.950  24.663  0.00  0.00    +0.090 A 
ATOM     19  C   UNL     1      -3.277  -1.574  23.820  0.00  0.00    +0.006 A 
ATOM     22  C   UNL     1      -5.159  -0.131  24.292  0.00  0.00    +0.026 A 
ATOM     23  C   UNL     1      -4.648  -1.385  23.980  0.00  0.00    +0.002 A 
ATOM     30  H   UNL     1       0.029   0.317  25.239  0.00  0.00    +0.123 HD
ENDROOT
BRANCH   7  14
ATOM      1  O   UNL     1       1.635   3.153  23.689  0.00  0.00    -0.274 OA
ATOM      3  N   UNL     1       2.393   1.036  23.107  0.00  0.00    -0.298 N 
ATOM      5  N   UNL     1       4.559  -0.838  23.179  0.00  0.00    -0.302 NA
ATOM     14  C   UNL     1       1.411   1.965  23.449  0.00  0.00    +0.233 C 
ATOM     17  C   UNL     1       2.156  -0.382  22.817  0.00  0.00    +0.123 C 
ATOM     18  C   UNL     1       3.767   1.479  22.880  0.00  0.00    +0.123 C 
ATOM     20  C   UNL     1       3.193  -1.267  23.511  0.00  0.00    +0.103 C 
ATOM     21  C   UNL     1       4.770   0.562  23.577  0.00  0.00    +0.103 C 
ATOM     27  C   UNL     1       5.541  -1.709  23.821  0.00  0.00    +0.105 C 
ENDBRANCH   7  14
BRANCH   6  12
ATOM     12  C   UNL     1      -0.409  -2.128  24.498  0.00  0.00    +0.026 C 
BRANCH  12  15
ATOM     15  C   UNL     1      -0.910  -2.199  25.944  0.00  0.00    -0.015 C 
ATOM     24  C   UNL     1      -2.286  -2.872  25.968  0.00  0.00    +0.007 C 
ATOM     25  C   UNL     1      -0.996  -0.823  26.607  0.00  0.00    +0.007 C 
ENDBRANCH  12  15
ENDBRANCH   6  12
BRANCH   4  26
ATOM     26  C   UNL     1      -5.792   2.835  24.912  0.00  0.00    +0.148 C 
BRANCH  26  28
ATOM     28  C   UNL     1      -6.212   2.732  26.349  0.00  0.00    -0.013 C 
ATOM     29  C   UNL     1      -6.615   1.596  26.930  0.00  0.00    +0.005 C 
ENDBRANCH  26  28
ENDBRANCH   4  26
TORSDOF 5
ENDMDL
MODEL 5
REMARK VINA RESULT:       2.0     16.023     19.362
REMARK  Name = 51138129
REMARK  8 active torsions:
REMARK  status: ('A' for Active; 'I' for Inactive)
REMARK    1  A    between atoms: N_4  and  C_26
REMARK    2  A    between atoms: N_5  and  C_27
REMARK    3  A    between atoms: C_6  and  C_12
REMARK    4  A    between atoms: C_7  and  C_14
REMARK    5  A    between atoms: C_12  and  C_15
REMARK    6  A    between atoms: C_15  and  C_24
REMARK    7  A    between atoms: C_15  and  C_25
REMARK    8  A    between atoms: C_26  and  C_28
REMARK                            x       y       z     vdW  Elec       q    Type
REMARK                         _______ _______ _______ _____ _____    ______ ____
ROOT
ATOM      2  N   UNL     1      -0.336   0.586  24.181  0.00  0.00    -0.299 NA
ATOM      4  N   UNL     1      -3.810   4.107  25.201  0.00  0.00    -0.343 N 
ATOM      6  C   UNL     1       0.416   1.805  24.505  0.00  0.00    +0.085 C 
ATOM      7  C   UNL     1      -1.262   0.149  25.216  0.00  0.00    +0.145 C 
ATOM      8  C   UNL     1      -2.685   0.629  24.935  0.00  0.00    +0.065 C 
ATOM      9  C   UNL     1      -0.416   3.080  24.676  0.00  0.00    -0.021 A 
ATOM     10  C   UNL     1      -1.826   3.118  24.881  0.00  0.00    +0.008 A 
ATOM     11  C   UNL     1      -2.847   2.112  25.001  0.00  0.00    -0.020 A 
ATOM     13  C   UNL     1      -2.467   4.352  25.037  0.00  0.00    +0.050 A 
ATOM     16  C   UNL     1      -4.048   2.764  25.186  0.00  0.00    +0.090 A 
ATOM     19  C   UNL     1       0.254   4.329  24.714  0.00  0.00    +0.006 A 
ATOM     22  C   UNL     1      -1.795   5.575  25.025  0.00  0.00    +0.026 A 
ATOM     23  C   UNL     1      -0.414   5.541  24.873  0.00  0.00    +0.002 A 
ATOM     30  H   UNL     1      -0.806   0.677  23.281  0.00  0.00    +0.123 HD
ENDROOT
BRANCH   7  14
ATOM      1  O   UNL     1      -0.397  -1.957  25.839  0.00  0.00    -0.274 OA
ATOM      3  N   UNL     1      -2.172  -1.963  24.341  0.00  0.00    -0.298 N 
ATOM      5  N   UNL     1      -4.458  -3.370  23.339  0.00  0.00    -0.302 NA
ATOM     14  C   UNL     1      -1.230  -1.348  25.165  0.00  0.00    +0.233 C 
ATOM     17  C   UNL     1      -3.174  -1.265  23.529  0.00  0.00    +0.123 C 
ATOM     18  C   UNL     1      -2.121  -3.409  24.130  0.00  0.00    +0.123 C 
ATOM     20  C   UNL     1      -4.544  -1.935  23.649  0.00  0.00    +0.103 C 
ATOM     21  C   UNL     1      -3.509  -4.035  24.244  0.00  0.00    +0.103 C 
ATOM     27  C   UNL     1      -5.777  -3.994  23.426  0.00  0.00    +0.105 C 
ENDBRANCH   7  14
BRANCH   6  12
ATOM     12  C   UNL     1       1.461   1.929  23.381  0.00  0.00    +0.026 C 
BRANCH  12  15
ATOM     15  C   UNL     1       2.234   0.630  23.137  0.00  0.00    -0.015 C 
ATOM     24  C   UNL     1       3.694   0.963  22.821  0.00  0.00    +0.007 C 
ATOM     25  C   UNL     1       1.638  -0.207  22.003  0.00  0.00    +0.007 C 
ENDBRANCH  12  15
ENDBRANCH   6  12
BRANCH   4  26
ATOM     26  C   UNL     1      -4.834   5.112  25.385  0.00  0.00    +0.148 C 
BRANCH  26  28
ATOM     28  C   UNL     1      -6.166   4.515  25.733  0.00  0.00    -0.013 C 
ATOM     29  C   UNL     1      -6.411   3.200  25.758  0.00  0.00    +0.005 C 
ENDBRANCH  26  28
ENDBRANCH   4  26
TORSDOF 5
ENDMDL
MODEL 6
REMARK VINA RESULT:       2.1     15.375     19.102
REMARK  Name = 51138129
REMARK  8 active torsions:
REMARK  status: ('A' for Active; 'I' for Inactive)
REMARK    1  A    between atoms: N_4  and  C_26
REMARK    2  A    between atoms: N_5  and  C_27
REMARK    3  A    between atoms: C_6  and  C_12
REMARK    4  A    between atoms: C_7  and  C_14
REMARK    5  A    between atoms: C_12  and  C_15
REMARK    6  A    between atoms: C_15  and  C_24
REMARK    7  A    between atoms: C_15  and  C_25
REMARK    8  A    between atoms: C_26  and  C_28
REMARK                            x       y       z     vdW  Elec       q    Type
REMARK                         _______ _______ _______ _____ _____    ______ ____
ROOT
ATOM      2  N   UNL     1      -0.220   0.417  24.174  0.00  0.00    -0.299 NA
ATOM      4  N   UNL     1      -4.593   2.668  25.318  0.00  0.00    -0.343 N 
ATOM      6  C   UNL     1      -1.271  -0.483  23.683  0.00  0.00    +0.085 C 
ATOM      7  C   UNL     1      -0.284   1.772  23.648  0.00  0.00    +0.145 C 
ATOM      8  C   UNL     1      -0.996   2.716  24.615  0.00  0.00    +0.065 C 
ATOM      9  C   UNL     1      -2.706  -0.113  24.072  0.00  0.00    -0.021 A 
ATOM     10  C   UNL     1      -3.121   1.162  24.555  0.00  0.00    +0.008 A 
ATOM     11  C   UNL     1      -2.444   2.405  24.808  0.00  0.00    -0.020 A 
ATOM     13  C   UNL     1      -4.470   1.376  24.863  0.00  0.00    +0.050 A 
ATOM     16  C   UNL     1      -3.383   3.297  25.284  0.00  0.00    +0.090 A 
ATOM     19  C   UNL     1      -3.733  -1.070  23.872  0.00  0.00    +0.006 A 
ATOM     22  C   UNL     1      -5.459   0.405  24.704  0.00  0.00    +0.026 A 
ATOM     23  C   UNL     1      -5.067  -0.823  24.188  0.00  0.00    +0.002 A 
ATOM     30  H   UNL     1      -0.189   0.418  25.193  0.00  0.00    +0.123 HD
ENDROOT
BRANCH   7  14
ATOM      1  O   UNL     1       1.442   3.381  23.718  0.00  0.00    -0.274 OA
ATOM      3  N   UNL     1       2.056   1.222  23.123  0.00  0.00    -0.298 N 
ATOM      5  N   UNL     1       4.119  -0.767  23.114  0.00  0.00    -0.302 NA
ATOM     14  C   UNL     1       1.143   2.205  23.501  0.00  0.00    +0.233 C 
ATOM     17  C   UNL     1       1.729  -0.183  22.860  0.00  0.00    +0.123 C 
ATOM     18  C   UNL     1       3.440   1.588  22.828  0.00  0.00    +0.123 C 
ATOM     20  C   UNL     1       2.749  -1.118  23.514  0.00  0.00    +0.103 C 
ATOM     21  C   UNL     1       4.423   0.623  23.487  0.00  0.00    +0.103 C 
ATOM     27  C   UNL     1       5.082  -1.685  23.719  0.00  0.00    +0.105 C 
ENDBRANCH   7  14
BRANCH   6  12
ATOM     12  C   UNL     1      -0.863  -1.877  24.194  0.00  0.00    +0.026 C 
BRANCH  12  15
ATOM     15  C   UNL     1      -0.218  -1.839  25.583  0.00  0.00    -0.015 C 
ATOM     24  C   UNL     1       0.347  -3.223  25.914  0.00  0.00    +0.007 C 
ATOM     25  C   UNL     1      -1.197  -1.406  26.675  0.00  0.00    +0.007 C 
ENDBRANCH  12  15
ENDBRANCH   6  12
BRANCH   4  26
ATOM     26  C   UNL     1      -5.822   3.295  25.754  0.00  0.00    +0.148 C 
BRANCH  26  28
ATOM     28  C   UNL     1      -5.713   4.790  25.814  0.00  0.00    -0.013 C 
ATOM     29  C   UNL     1      -6.505   5.625  25.130  0.00  0.00    +0.005 C 
ENDBRANCH  26  28
ENDBRANCH   4  26
TORSDOF 5
ENDMDL
MODEL 7
REMARK VINA RESULT:       2.3     15.373     18.093
REMARK  Name = 51138129
REMARK  8 active torsions:
REMARK  status: ('A' for Active; 'I' for Inactive)
REMARK    1  A    between atoms: N_4  and  C_26
REMARK    2  A    between atoms: N_5  and  C_27
REMARK    3  A    between atoms: C_6  and  C_12
REMARK    4  A    between atoms: C_7  and  C_14
REMARK    5  A    between atoms: C_12  and  C_15
REMARK    6  A    between atoms: C_15  and  C_24
REMARK    7  A    between atoms: C_15  and  C_25
REMARK    8  A    between atoms: C_26  and  C_28
REMARK                            x       y       z     vdW  Elec       q    Type
REMARK                         _______ _______ _______ _____ _____    ______ ____
ROOT
ATOM      2  N   UNL     1      -2.242   1.055  25.204  0.00  0.00    -0.299 NA
ATOM      4  N   UNL     1       2.261   0.373  23.023  0.00  0.00    -0.343 N 
ATOM      6  C   UNL     1      -1.699  -0.178  25.789  0.00  0.00    +0.085 C 
ATOM      7  C   UNL     1      -1.389   2.225  25.349  0.00  0.00    +0.145 C 
ATOM      8  C   UNL     1      -0.550   2.466  24.095  0.00  0.00    +0.065 C 
ATOM      9  C   UNL     1      -0.409  -0.708  25.156  0.00  0.00    -0.021 A 
ATOM     10  C   UNL     1       0.460   0.045  24.315  0.00  0.00    +0.008 A 
ATOM     11  C   UNL     1       0.456   1.397  23.826  0.00  0.00    -0.020 A 
ATOM     13  C   UNL     1       1.620  -0.555  23.809  0.00  0.00    +0.050 A 
ATOM     16  C   UNL     1       1.574   1.551  23.031  0.00  0.00    +0.090 A 
ATOM     19  C   UNL     1       0.017  -2.021  25.480  0.00  0.00    +0.006 A 
ATOM     22  C   UNL     1       1.998  -1.866  24.102  0.00  0.00    +0.026 A 
ATOM     23  C   UNL     1       1.179  -2.588  24.961  0.00  0.00    +0.002 A 
ATOM     30  H   UNL     1      -2.506   0.909  24.231  0.00  0.00    +0.123 HD
ENDROOT
BRANCH   7  14
ATOM      1  O   UNL     1      -1.882   4.525  25.546  0.00  0.00    -0.274 OA
ATOM      3  N   UNL     1      -3.677   3.060  25.698  0.00  0.00    -0.298 N 
ATOM      5  N   UNL     1      -6.481   2.651  25.272  0.00  0.00    -0.302 NA
ATOM     14  C   UNL     1      -2.329   3.376  25.540  0.00  0.00    +0.233 C 
ATOM     17  C   UNL     1      -4.236   1.704  25.694  0.00  0.00    +0.123 C 
ATOM     18  C   UNL     1      -4.639   4.111  26.023  0.00  0.00    +0.123 C 
ATOM     20  C   UNL     1      -5.508   1.634  24.847  0.00  0.00    +0.103 C 
ATOM     21  C   UNL     1      -5.898   3.997  25.165  0.00  0.00    +0.103 C 
ATOM     27  C   UNL     1      -7.704   2.556  24.477  0.00  0.00    +0.105 C 
ENDBRANCH   7  14
BRANCH   6  12
ATOM     12  C   UNL     1      -2.855  -1.191  25.708  0.00  0.00    +0.026 C 
BRANCH  12  15
ATOM     15  C   UNL     1      -2.985  -1.841  24.328  0.00  0.00    -0.015 C 
ATOM     24  C   UNL     1      -4.235  -1.298  23.629  0.00  0.00    +0.007 C 
ATOM     25  C   UNL     1      -3.056  -3.367  24.399  0.00  0.00    +0.007 C 
ENDBRANCH  12  15
ENDBRANCH   6  12
BRANCH   4  26
ATOM     26  C   UNL     1       3.497   0.158  22.302  0.00  0.00    +0.148 C 
BRANCH  26  28
ATOM     28  C   UNL     1       4.695   0.652  23.059  0.00  0.00    -0.013 C 
ATOM     29  C   UNL     1       5.480  -0.131  23.809  0.00  0.00    +0.005 C 
ENDBRANCH  26  28
ENDBRANCH   4  26
TORSDOF 5
ENDMDL
