MODEL 1
REMARK VINA RESULT:       3.8      0.000      0.000
REMARK  Name = 51137229
REMARK  4 active torsions:
REMARK  status: ('A' for Active; 'I' for Inactive)
REMARK    1  A    between atoms: N_3  and  C_7
REMARK    2  A    between atoms: C_9  and  C_16
REMARK    3  A    between atoms: C_17  and  C_18
REMARK    4  A    between atoms: C_19  and  C_20
REMARK                            x       y       z     vdW  Elec       q    Type
REMARK                         _______ _______ _______ _____ _____    ______ ____
ROOT
ATOM      3  N   UNL     1      -2.595   0.192  24.784  0.00  0.00    -0.299 NA
ATOM      8  C   UNL     1      -1.827   0.340  23.545  0.00  0.00    +0.097 C 
ATOM      9  C   UNL     1      -0.982  -0.940  23.512  0.00  0.00    +0.092 C 
ATOM     10  C   UNL     1      -1.634  -0.310  25.765  0.00  0.00    +0.085 C 
ATOM     11  C   UNL     1      -0.874  -1.375  24.985  0.00  0.00    +0.029 C 
ENDROOT
BRANCH   3   7
ATOM      2  O   UNL     1      -4.053   6.014  23.447  0.00  0.00    -0.276 OA
ATOM      4  N   UNL     1      -3.541   4.308  24.939  0.00  0.00    -0.302 N 
ATOM      7  C   UNL     1      -3.220   1.443  25.205  0.00  0.00    +0.060 C 
ATOM     12  C   UNL     1      -4.001   2.060  24.037  0.00  0.00    +0.038 C 
ATOM     13  C   UNL     1      -2.154   2.421  25.712  0.00  0.00    +0.038 C 
ATOM     14  C   UNL     1      -4.584   3.417  24.428  0.00  0.00    +0.109 C 
ATOM     15  C   UNL     1      -2.773   3.772  26.070  0.00  0.00    +0.109 C 
ATOM     17  C   UNL     1      -3.370   5.572  24.375  0.00  0.00    +0.212 C 
ATOM     18  C   UNL     1      -2.273   6.427  24.955  0.00  0.00    +0.109 C 
ENDBRANCH   3   7
BRANCH   9  16
ATOM      1  O   UNL     1       1.448  -0.650  23.593  0.00  0.00    -0.420 OA
ATOM      5  N   UNL     1       0.601  -0.675  21.523  0.00  0.00    -0.112 NA
ATOM      6  N   UNL     1       1.970  -0.507  21.422  0.00  0.00    -0.107 NA
ATOM     16  C   UNL     1       0.342  -0.755  22.807  0.00  0.00    +0.222 A 
ATOM     19  C   UNL     1       2.422  -0.498  22.654  0.00  0.00    +0.248 A 
BRANCH  19  20
ATOM     20  C   UNL     1       3.759  -0.356  23.154  0.00  0.00    +0.038 A 
ATOM     21  C   UNL     1       4.386  -1.430  23.784  0.00  0.00    +0.013 A 
ATOM     22  C   UNL     1       4.430   0.858  23.010  0.00  0.00    +0.013 A 
ATOM     23  C   UNL     1       5.686  -1.291  24.270  0.00  0.00    +0.001 A 
ATOM     24  C   UNL     1       5.731   0.998  23.497  0.00  0.00    +0.001 A 
ATOM     25  C   UNL     1       6.358  -0.077  24.127  0.00  0.00    +0.000 A 
ENDBRANCH  19  20
ENDBRANCH   9  16
TORSDOF 3
ENDMDL
MODEL 2
REMARK VINA RESULT:       4.1      1.168      1.309
REMARK  Name = 51137229
REMARK  4 active torsions:
REMARK  status: ('A' for Active; 'I' for Inactive)
REMARK    1  A    between atoms: N_3  and  C_7
REMARK    2  A    between atoms: C_9  and  C_16
REMARK    3  A    between atoms: C_17  and  C_18
REMARK    4  A    between atoms: C_19  and  C_20
REMARK                            x       y       z     vdW  Elec       q    Type
REMARK                         _______ _______ _______ _____ _____    ______ ____
ROOT
ATOM      3  N   UNL     1      -2.655  -0.426  24.857  0.00  0.00    -0.299 NA
ATOM      8  C   UNL     1      -1.897   0.076  23.709  0.00  0.00    +0.097 C 
ATOM      9  C   UNL     1      -1.077  -1.147  23.280  0.00  0.00    +0.092 C 
ATOM     10  C   UNL     1      -1.694  -1.214  25.628  0.00  0.00    +0.085 C 
ATOM     11  C   UNL     1      -0.962  -2.006  24.552  0.00  0.00    +0.029 C 
ENDROOT
BRANCH   3   7
ATOM      2  O   UNL     1      -6.614   4.271  25.128  0.00  0.00    -0.276 OA
ATOM      4  N   UNL     1      -4.681   3.163  25.789  0.00  0.00    -0.302 N 
ATOM      7  C   UNL     1      -3.253   0.649  25.644  0.00  0.00    +0.060 C 
ATOM     12  C   UNL     1      -4.758   0.737  25.357  0.00  0.00    +0.038 C 
ATOM     13  C   UNL     1      -2.567   1.983  25.321  0.00  0.00    +0.038 C 
ATOM     14  C   UNL     1      -5.385   1.917  26.098  0.00  0.00    +0.109 C 
ATOM     15  C   UNL     1      -3.238   3.139  26.062  0.00  0.00    +0.109 C 
ATOM     17  C   UNL     1      -5.394   4.264  25.315  0.00  0.00    +0.212 C 
ATOM     18  C   UNL     1      -4.596   5.509  25.019  0.00  0.00    +0.109 C 
ENDBRANCH   3   7
BRANCH   9  16
ATOM      1  O   UNL     1       1.334  -0.757  23.456  0.00  0.00    -0.420 OA
ATOM      5  N   UNL     1       0.511  -0.465  21.396  0.00  0.00    -0.112 NA
ATOM      6  N   UNL     1       1.870  -0.215  21.352  0.00  0.00    -0.107 NA
ATOM     16  C   UNL     1       0.243  -0.778  22.643  0.00  0.00    +0.222 A 
ATOM     19  C   UNL     1       2.309  -0.397  22.576  0.00  0.00    +0.248 A 
BRANCH  19  20
ATOM     20  C   UNL     1       3.631  -0.278  23.118  0.00  0.00    +0.038 A 
ATOM     21  C   UNL     1       4.221  -1.363  23.764  0.00  0.00    +0.013 A 
ATOM     22  C   UNL     1       4.326   0.926  23.001  0.00  0.00    +0.013 A 
ATOM     23  C   UNL     1       5.507  -1.247  24.292  0.00  0.00    +0.001 A 
ATOM     24  C   UNL     1       5.613   1.043  23.529  0.00  0.00    +0.001 A 
ATOM     25  C   UNL     1       6.202  -0.044  24.175  0.00  0.00    +0.000 A 
ENDBRANCH  19  20
ENDBRANCH   9  16
TORSDOF 3
ENDMDL
MODEL 3
REMARK VINA RESULT:       4.4      1.843      2.164
REMARK  Name = 51137229
REMARK  4 active torsions:
REMARK  status: ('A' for Active; 'I' for Inactive)
REMARK    1  A    between atoms: N_3  and  C_7
REMARK    2  A    between atoms: C_9  and  C_16
REMARK    3  A    between atoms: C_17  and  C_18
REMARK    4  A    between atoms: C_19  and  C_20
REMARK                            x       y       z     vdW  Elec       q    Type
REMARK                         _______ _______ _______ _____ _____    ______ ____
ROOT
ATOM      3  N   UNL     1      -3.958  -0.304  24.207  0.00  0.00    -0.299 NA
ATOM      8  C   UNL     1      -2.577  -0.431  23.736  0.00  0.00    +0.097 C 
ATOM      9  C   UNL     1      -2.195  -1.849  24.177  0.00  0.00    +0.092 C 
ATOM     10  C   UNL     1      -3.954  -0.887  25.548  0.00  0.00    +0.085 C 
ATOM     11  C   UNL     1      -3.124  -2.152  25.366  0.00  0.00    +0.029 C 
ENDROOT
BRANCH   3   7
ATOM      2  O   UNL     1      -2.583   5.672  24.667  0.00  0.00    -0.276 OA
ATOM      4  N   UNL     1      -4.031   3.867  24.884  0.00  0.00    -0.302 N 
ATOM      7  C   UNL     1      -4.423   1.081  24.203  0.00  0.00    +0.060 C 
ATOM     12  C   UNL     1      -3.435   1.966  23.432  0.00  0.00    +0.038 C 
ATOM     13  C   UNL     1      -4.585   1.586  25.642  0.00  0.00    +0.038 C 
ATOM     14  C   UNL     1      -3.854   3.434  23.497  0.00  0.00    +0.109 C 
ATOM     15  C   UNL     1      -4.981   3.063  25.664  0.00  0.00    +0.109 C 
ATOM     17  C   UNL     1      -3.350   4.990  25.353  0.00  0.00    +0.212 C 
ATOM     18  C   UNL     1      -3.584   5.369  26.794  0.00  0.00    +0.109 C 
ENDBRANCH   3   7
BRANCH   9  16
ATOM      1  O   UNL     1       0.128  -1.174  23.796  0.00  0.00    -0.420 OA
ATOM      5  N   UNL     1      -0.109  -2.818  25.295  0.00  0.00    -0.112 NA
ATOM      6  N   UNL     1       1.240  -2.538  25.178  0.00  0.00    -0.107 NA
ATOM     16  C   UNL     1      -0.720  -1.998  24.471  0.00  0.00    +0.222 A 
ATOM     19  C   UNL     1       1.331  -1.573  24.293  0.00  0.00    +0.248 A 
BRANCH  19  20
ATOM     20  C   UNL     1       2.481  -0.888  23.778  0.00  0.00    +0.038 A 
ATOM     21  C   UNL     1       3.756  -1.412  23.984  0.00  0.00    +0.013 A 
ATOM     22  C   UNL     1       2.323   0.305  23.073  0.00  0.00    +0.013 A 
ATOM     23  C   UNL     1       4.874  -0.746  23.484  0.00  0.00    +0.001 A 
ATOM     24  C   UNL     1       3.442   0.973  22.572  0.00  0.00    +0.001 A 
ATOM     25  C   UNL     1       4.717   0.447  22.779  0.00  0.00    +0.000 A 
ENDBRANCH  19  20
ENDBRANCH   9  16
TORSDOF 3
ENDMDL
MODEL 4
REMARK VINA RESULT:       5.0      1.494      1.953
REMARK  Name = 51137229
REMARK  4 active torsions:
REMARK  status: ('A' for Active; 'I' for Inactive)
REMARK    1  A    between atoms: N_3  and  C_7
REMARK    2  A    between atoms: C_9  and  C_16
REMARK    3  A    between atoms: C_17  and  C_18
REMARK    4  A    between atoms: C_19  and  C_20
REMARK                            x       y       z     vdW  Elec       q    Type
REMARK                         _______ _______ _______ _____ _____    ______ ____
ROOT
ATOM      3  N   UNL     1      -2.966  -0.555  24.547  0.00  0.00    -0.299 NA
ATOM      8  C   UNL     1      -2.110  -0.637  23.361  0.00  0.00    +0.097 C 
ATOM      9  C   UNL     1      -0.834  -1.292  23.905  0.00  0.00    +0.092 C 
ATOM     10  C   UNL     1      -2.080  -0.107  25.621  0.00  0.00    +0.085 C 
ATOM     11  C   UNL     1      -0.830  -0.952  25.406  0.00  0.00    +0.029 C 
ENDROOT
BRANCH   3   7
ATOM      2  O   UNL     1      -5.186   5.177  24.682  0.00  0.00    -0.276 OA
ATOM      4  N   UNL     1      -5.422   2.871  24.838  0.00  0.00    -0.302 N 
ATOM      7  C   UNL     1      -4.103   0.340  24.353  0.00  0.00    +0.060 C 
ATOM     12  C   UNL     1      -3.645   1.631  23.663  0.00  0.00    +0.038 C 
ATOM     13  C   UNL     1      -4.760   0.657  25.701  0.00  0.00    +0.038 C 
ATOM     14  C   UNL     1      -4.801   2.621  23.536  0.00  0.00    +0.109 C 
ATOM     15  C   UNL     1      -5.896   1.668  25.535  0.00  0.00    +0.109 C 
ATOM     17  C   UNL     1      -5.560   4.178  25.303  0.00  0.00    +0.212 C 
ATOM     18  C   UNL     1      -6.207   4.350  26.654  0.00  0.00    +0.109 C 
ENDBRANCH   3   7
BRANCH   9  16
ATOM      1  O   UNL     1       1.581  -0.888  23.851  0.00  0.00    -0.420 OA
ATOM      5  N   UNL     1       0.545  -0.480  21.911  0.00  0.00    -0.112 NA
ATOM      6  N   UNL     1       1.891  -0.214  21.740  0.00  0.00    -0.107 NA
ATOM     16  C   UNL     1       0.410  -0.871  23.157  0.00  0.00    +0.222 A 
ATOM     19  C   UNL     1       2.456  -0.466  22.898  0.00  0.00    +0.248 A 
BRANCH  19  20
ATOM     20  C   UNL     1       3.828  -0.366  23.305  0.00  0.00    +0.038 A 
ATOM     21  C   UNL     1       4.512   0.839  23.161  0.00  0.00    +0.013 A 
ATOM     22  C   UNL     1       4.477  -1.478  23.844  0.00  0.00    +0.013 A 
ATOM     23  C   UNL     1       5.846   0.936  23.557  0.00  0.00    +0.001 A 
ATOM     24  C   UNL     1       5.812  -1.381  24.239  0.00  0.00    +0.001 A 
ATOM     25  C   UNL     1       6.496  -0.174  24.096  0.00  0.00    +0.000 A 
ENDBRANCH  19  20
ENDBRANCH   9  16
TORSDOF 3
ENDMDL
MODEL 5
REMARK VINA RESULT:       5.7      2.379      3.474
REMARK  Name = 51137229
REMARK  4 active torsions:
REMARK  status: ('A' for Active; 'I' for Inactive)
REMARK    1  A    between atoms: N_3  and  C_7
REMARK    2  A    between atoms: C_9  and  C_16
REMARK    3  A    between atoms: C_17  and  C_18
REMARK    4  A    between atoms: C_19  and  C_20
REMARK                            x       y       z     vdW  Elec       q    Type
REMARK                         _______ _______ _______ _____ _____    ______ ____
ROOT
ATOM      3  N   UNL     1      -1.664   4.228  25.064  0.00  0.00    -0.299 NA
ATOM      8  C   UNL     1      -1.130   2.865  25.125  0.00  0.00    +0.097 C 
ATOM      9  C   UNL     1       0.324   3.048  24.672  0.00  0.00    +0.092 C 
ATOM     10  C   UNL     1      -1.145   4.780  23.813  0.00  0.00    +0.085 C 
ATOM     11  C   UNL     1       0.310   4.329  23.819  0.00  0.00    +0.029 C 
ENDROOT
BRANCH   3   7
ATOM      2  O   UNL     1      -6.880   1.474  26.800  0.00  0.00    -0.276 OA
ATOM      4  N   UNL     1      -5.656   2.888  25.422  0.00  0.00    -0.302 N 
ATOM      7  C   UNL     1      -3.123   4.258  25.123  0.00  0.00    +0.060 C 
ATOM     12  C   UNL     1      -3.605   3.745  26.487  0.00  0.00    +0.038 C 
ATOM     13  C   UNL     1      -3.715   3.408  23.992  0.00  0.00    +0.038 C 
ATOM     14  C   UNL     1      -5.130   3.678  26.536  0.00  0.00    +0.109 C 
ATOM     15  C   UNL     1      -5.239   3.347  24.090  0.00  0.00    +0.109 C 
ATOM     17  C   UNL     1      -6.515   1.818  25.673  0.00  0.00    +0.212 C 
ATOM     18  C   UNL     1      -7.011   1.053  24.472  0.00  0.00    +0.109 C 
ENDBRANCH   3   7
BRANCH   9  16
ATOM      1  O   UNL     1       2.201   1.556  24.177  0.00  0.00    -0.420 OA
ATOM      5  N   UNL     1       0.284   0.968  23.186  0.00  0.00    -0.112 NA
ATOM      6  N   UNL     1       1.250   0.048  22.825  0.00  0.00    -0.107 NA
ATOM     16  C   UNL     1       0.883   1.829  23.976  0.00  0.00    +0.222 A 
ATOM     19  C   UNL     1       2.353   0.431  23.426  0.00  0.00    +0.248 A 
BRANCH  19  20
ATOM     20  C   UNL     1       3.667  -0.143  23.413  0.00  0.00    +0.038 A 
ATOM     21  C   UNL     1       3.850  -1.475  23.777  0.00  0.00    +0.013 A 
ATOM     22  C   UNL     1       4.763   0.634  23.035  0.00  0.00    +0.013 A 
ATOM     23  C   UNL     1       5.129  -2.034  23.765  0.00  0.00    +0.001 A 
ATOM     24  C   UNL     1       6.042   0.077  23.023  0.00  0.00    +0.001 A 
ATOM     25  C   UNL     1       6.224  -1.257  23.388  0.00  0.00    +0.000 A 
ENDBRANCH  19  20
ENDBRANCH   9  16
TORSDOF 3
ENDMDL
MODEL 6
REMARK VINA RESULT:       6.3      2.010      7.579
REMARK  Name = 51137229
REMARK  4 active torsions:
REMARK  status: ('A' for Active; 'I' for Inactive)
REMARK    1  A    between atoms: N_3  and  C_7
REMARK    2  A    between atoms: C_9  and  C_16
REMARK    3  A    between atoms: C_17  and  C_18
REMARK    4  A    between atoms: C_19  and  C_20
REMARK                            x       y       z     vdW  Elec       q    Type
REMARK                         _______ _______ _______ _____ _____    ______ ____
ROOT
ATOM      3  N   UNL     1      -0.336  -1.869  24.545  0.00  0.00    -0.299 NA
ATOM      8  C   UNL     1      -0.775  -0.561  25.036  0.00  0.00    +0.097 C 
ATOM      9  C   UNL     1      -2.209  -0.835  25.505  0.00  0.00    +0.092 C 
ATOM     10  C   UNL     1      -1.475  -2.388  23.788  0.00  0.00    +0.085 C 
ATOM     11  C   UNL     1      -2.660  -2.059  24.688  0.00  0.00    +0.029 C 
ENDROOT
BRANCH   3   7
ATOM      2  O   UNL     1       5.417   0.222  23.961  0.00  0.00    -0.276 OA
ATOM      4  N   UNL     1       3.380  -0.480  23.090  0.00  0.00    -0.302 N 
ATOM      7  C   UNL     1       0.877  -1.782  23.736  0.00  0.00    +0.060 C 
ATOM     12  C   UNL     1       2.116  -1.933  24.628  0.00  0.00    +0.038 C 
ATOM     13  C   UNL     1       0.916  -0.445  22.986  0.00  0.00    +0.038 C 
ATOM     14  C   UNL     1       3.397  -1.750  23.816  0.00  0.00    +0.109 C 
ATOM     15  C   UNL     1       2.223  -0.291  22.206  0.00  0.00    +0.109 C 
ATOM     17  C   UNL     1       4.435   0.420  23.239  0.00  0.00    +0.212 C 
ATOM     18  C   UNL     1       4.342   1.706  22.459  0.00  0.00    +0.109 C 
ENDBRANCH   3   7
BRANCH   9  16
ATOM      1  O   UNL     1      -2.514   1.557  25.078  0.00  0.00    -0.420 OA
ATOM      5  N   UNL     1      -4.410   0.465  25.543  0.00  0.00    -0.112 NA
ATOM      6  N   UNL     1      -4.725   1.793  25.324  0.00  0.00    -0.107 NA
ATOM     16  C   UNL     1      -3.110   0.373  25.388  0.00  0.00    +0.222 A 
ATOM     19  C   UNL     1      -3.588   2.392  25.056  0.00  0.00    +0.248 A 
BRANCH  19  20
ATOM     20  C   UNL     1      -3.309   3.765  24.751  0.00  0.00    +0.038 A 
ATOM     21  C   UNL     1      -4.116   4.458  23.851  0.00  0.00    +0.013 A 
ATOM     22  C   UNL     1      -2.227   4.407  25.355  0.00  0.00    +0.013 A 
ATOM     23  C   UNL     1      -3.845   5.794  23.554  0.00  0.00    +0.001 A 
ATOM     24  C   UNL     1      -1.954   5.743  25.057  0.00  0.00    +0.001 A 
ATOM     25  C   UNL     1      -2.764   6.436  24.157  0.00  0.00    +0.000 A 
ENDBRANCH  19  20
ENDBRANCH   9  16
TORSDOF 3
ENDMDL
