MODEL 1
REMARK VINA RESULT:       7.7      0.000      0.000
REMARK  Name = 26743320
REMARK  9 active torsions:
REMARK  status: ('A' for Active; 'I' for Inactive)
REMARK    1  A    between atoms: C_6  and  C_10
REMARK    2  A    between atoms: C_7  and  C_12
REMARK    3  A    between atoms: C_10  and  C_13
REMARK    4  A    between atoms: C_12  and  C_14
REMARK    5  A    between atoms: C_21  and  C_24
REMARK    6  A    between atoms: C_25  and  C_28
REMARK    7  A    between atoms: C_25  and  C_33
REMARK    8  A    between atoms: C_25  and  C_34
REMARK    9  A    between atoms: C_25  and  C_35
REMARK                            x       y       z     vdW  Elec       q    Type
REMARK                         _______ _______ _______ _____ _____    ______ ____
ROOT
ATOM      3  N   UNL     1      -2.449   5.560  25.742  0.00  0.00    -0.316 NA
ATOM      6  C   UNL     1      -3.810   2.942  25.662  0.00  0.00    +0.004 C 
ATOM      7  C   UNL     1      -2.646   3.309  24.711  0.00  0.00    +0.012 C 
ATOM      8  C   UNL     1      -3.706   3.800  26.935  0.00  0.00    +0.019 C 
ATOM      9  C   UNL     1      -2.557   4.827  24.479  0.00  0.00    +0.085 C 
ATOM     11  C   UNL     1      -3.581   5.292  26.626  0.00  0.00    +0.081 C 
ATOM     36  H   UNL     1      -2.401   6.560  25.549  0.00  0.00    +0.122 HD
ENDROOT
BRANCH   6  10
ATOM     10  C   UNL     1      -5.200   3.074  25.028  0.00  0.00    +0.100 C 
BRANCH  10  13
ATOM      1  O   UNL     1      -6.804   1.618  24.061  0.00  0.00    -0.276 OA
ATOM      4  N   UNL     1      -4.893   0.625  24.942  0.00  0.00    -0.297 N 
ATOM     13  C   UNL     1      -5.714   1.712  24.632  0.00  0.00    +0.216 C 
ATOM     15  C   UNL     1      -5.389  -0.736  24.740  0.00  0.00    +0.113 C 
ATOM     16  C   UNL     1      -3.594   0.744  25.621  0.00  0.00    +0.143 C 
ATOM     17  C   UNL     1      -4.383  -1.562  23.950  0.00  0.00    +0.054 C 
ATOM     18  C   UNL     1      -2.643  -0.399  25.363  0.00  0.00    -0.027 A 
ATOM     20  C   UNL     1      -3.017  -1.505  24.581  0.00  0.00    -0.041 A 
ATOM     22  C   UNL     1      -1.359  -0.358  25.924  0.00  0.00    +0.005 A 
ATOM     23  C   UNL     1      -2.095  -2.536  24.348  0.00  0.00    +0.004 A 
ATOM     26  C   UNL     1      -0.452  -1.394  25.699  0.00  0.00    +0.000 A 
ATOM     27  C   UNL     1      -0.820  -2.481  24.909  0.00  0.00    +0.000 A 
ENDBRANCH  10  13
ENDBRANCH   6  10
BRANCH   7  12
ATOM     12  C   UNL     1      -2.706   2.565  23.376  0.00  0.00    +0.064 C 
BRANCH  12  14
ATOM      2  O   UNL     1      -0.204   0.182  22.367  0.00  0.00    -0.354 OA
ATOM      5  N   UNL     1      -1.505   0.668  22.378  0.00  0.00    -0.083 NA
ATOM     14  C   UNL     1      -1.458   1.765  23.138  0.00  0.00    +0.085 A 
ATOM     19  C   UNL     1      -0.167   2.017  23.631  0.00  0.00    +0.076 A 
ATOM     21  C   UNL     1       0.584   0.993  23.117  0.00  0.00    +0.167 A 
BRANCH  21  24
ATOM     24  C   UNL     1       1.965   0.615  23.202  0.00  0.00    +0.020 A 
ATOM     28  C   UNL     1       4.650  -0.122  23.367  0.00  0.00    -0.042 A 
ATOM     29  C   UNL     1       2.963   1.563  22.977  0.00  0.00    +0.012 A 
ATOM     30  C   UNL     1       2.309  -0.702  23.508  0.00  0.00    +0.012 A 
ATOM     31  C   UNL     1       4.306   1.195  23.060  0.00  0.00    +0.005 A 
ATOM     32  C   UNL     1       3.652  -1.069  23.591  0.00  0.00    +0.005 A 
BRANCH  28  25
ATOM     25  C   UNL     1       6.086  -0.515  23.454  0.00  0.00    -0.013 C 
ATOM     33  C   UNL     1       6.314  -1.584  24.566  0.00  0.00    +0.015 C 
ATOM     34  C   UNL     1       6.989   0.713  23.789  0.00  0.00    +0.015 C 
ATOM     35  C   UNL     1       6.692  -1.135  22.151  0.00  0.00    +0.015 C 
ENDBRANCH  28  25
ENDBRANCH  21  24
ENDBRANCH  12  14
ENDBRANCH   7  12
TORSDOF 6
ENDMDL
MODEL 2
REMARK VINA RESULT:      10.3      1.537      4.499
REMARK  Name = 26743320
REMARK  9 active torsions:
REMARK  status: ('A' for Active; 'I' for Inactive)
REMARK    1  A    between atoms: C_6  and  C_10
REMARK    2  A    between atoms: C_7  and  C_12
REMARK    3  A    between atoms: C_10  and  C_13
REMARK    4  A    between atoms: C_12  and  C_14
REMARK    5  A    between atoms: C_21  and  C_24
REMARK    6  A    between atoms: C_25  and  C_28
REMARK    7  A    between atoms: C_25  and  C_33
REMARK    8  A    between atoms: C_25  and  C_34
REMARK    9  A    between atoms: C_25  and  C_35
REMARK                            x       y       z     vdW  Elec       q    Type
REMARK                         _______ _______ _______ _____ _____    ______ ____
ROOT
ATOM      3  N   UNL     1      -2.525  -3.489  24.154  0.00  0.00    -0.316 NA
ATOM      6  C   UNL     1      -4.043  -0.959  24.065  0.00  0.00    +0.004 C 
ATOM      7  C   UNL     1      -2.577  -1.073  23.583  0.00  0.00    +0.012 C 
ATOM      8  C   UNL     1      -4.707  -2.344  23.979  0.00  0.00    +0.019 C 
ATOM      9  C   UNL     1      -1.829  -2.210  24.299  0.00  0.00    +0.085 C 
ATOM     11  C   UNL     1      -3.889  -3.429  24.678  0.00  0.00    +0.081 C 
ATOM     36  H   UNL     1      -2.006  -4.214  24.647  0.00  0.00    +0.122 HD
ENDROOT
BRANCH   6  10
ATOM     10  C   UNL     1      -4.193  -0.368  25.472  0.00  0.00    +0.100 C 
BRANCH  10  13
ATOM      1  O   UNL     1      -6.176   0.908  25.729  0.00  0.00    -0.276 OA
ATOM      4  N   UNL     1      -4.290   2.050  24.985  0.00  0.00    -0.297 N 
ATOM     13  C   UNL     1      -4.985   0.915  25.408  0.00  0.00    +0.216 C 
ATOM     15  C   UNL     1      -5.021   3.294  24.741  0.00  0.00    +0.113 C 
ATOM     16  C   UNL     1      -2.870   2.051  24.605  0.00  0.00    +0.143 C 
ATOM     17  C   UNL     1      -4.356   4.458  25.463  0.00  0.00    +0.054 C 
ATOM     18  C   UNL     1      -2.187   3.392  24.731  0.00  0.00    -0.027 A 
ATOM     20  C   UNL     1      -2.891   4.542  25.125  0.00  0.00    -0.041 A 
ATOM     22  C   UNL     1      -0.819   3.490  24.440  0.00  0.00    +0.005 A 
ATOM     23  C   UNL     1      -2.213   5.763  25.250  0.00  0.00    +0.004 A 
ATOM     26  C   UNL     1      -0.155   4.711  24.554  0.00  0.00    +0.000 A 
ATOM     27  C   UNL     1      -0.852   5.846  24.962  0.00  0.00    +0.000 A 
ENDBRANCH  10  13
ENDBRANCH   6  10
BRANCH   7  12
ATOM     12  C   UNL     1      -1.802   0.240  23.706  0.00  0.00    +0.064 C 
BRANCH  12  14
ATOM      2  O   UNL     1       1.291  -0.266  21.934  0.00  0.00    -0.354 OA
ATOM      5  N   UNL     1      -0.095  -0.176  21.988  0.00  0.00    -0.083 NA
ATOM     14  C   UNL     1      -0.375   0.077  23.270  0.00  0.00    +0.085 A 
ATOM     19  C   UNL     1       0.782   0.154  24.063  0.00  0.00    +0.076 A 
ATOM     21  C   UNL     1       1.801  -0.068  23.175  0.00  0.00    +0.167 A 
BRANCH  21  24
ATOM     24  C   UNL     1       3.231  -0.134  23.277  0.00  0.00    +0.020 A 
ATOM     28  C   UNL     1       6.010  -0.260  23.476  0.00  0.00    -0.042 A 
ATOM     29  C   UNL     1       3.841  -1.277  23.791  0.00  0.00    +0.012 A 
ATOM     30  C   UNL     1       4.009   0.947  22.863  0.00  0.00    +0.012 A 
ATOM     31  C   UNL     1       5.232  -1.342  23.891  0.00  0.00    +0.005 A 
ATOM     32  C   UNL     1       5.399   0.883  22.962  0.00  0.00    +0.005 A 
BRANCH  28  25
ATOM     25  C   UNL     1       7.496  -0.330  23.582  0.00  0.00    -0.013 C 
ATOM     33  C   UNL     1       8.112  -1.133  22.396  0.00  0.00    +0.015 C 
ATOM     34  C   UNL     1       7.937  -1.030  24.905  0.00  0.00    +0.015 C 
ATOM     35  C   UNL     1       8.233   1.051  23.577  0.00  0.00    +0.015 C 
ENDBRANCH  28  25
ENDBRANCH  21  24
ENDBRANCH  12  14
ENDBRANCH   7  12
TORSDOF 6
ENDMDL
MODEL 3
REMARK VINA RESULT:      10.6      1.798      3.334
REMARK  Name = 26743320
REMARK  9 active torsions:
REMARK  status: ('A' for Active; 'I' for Inactive)
REMARK    1  A    between atoms: C_6  and  C_10
REMARK    2  A    between atoms: C_7  and  C_12
REMARK    3  A    between atoms: C_10  and  C_13
REMARK    4  A    between atoms: C_12  and  C_14
REMARK    5  A    between atoms: C_21  and  C_24
REMARK    6  A    between atoms: C_25  and  C_28
REMARK    7  A    between atoms: C_25  and  C_33
REMARK    8  A    between atoms: C_25  and  C_34
REMARK    9  A    between atoms: C_25  and  C_35
REMARK                            x       y       z     vdW  Elec       q    Type
REMARK                         _______ _______ _______ _____ _____    ______ ____
ROOT
ATOM      3  N   UNL     1      -6.977   2.836  26.497  0.00  0.00    -0.316 NA
ATOM      6  C   UNL     1      -4.389   2.499  25.119  0.00  0.00    +0.004 C 
ATOM      7  C   UNL     1      -4.582   3.465  26.311  0.00  0.00    +0.012 C 
ATOM      8  C   UNL     1      -5.455   1.393  25.193  0.00  0.00    +0.019 C 
ATOM      9  C   UNL     1      -6.036   3.954  26.419  0.00  0.00    +0.085 C 
ATOM     11  C   UNL     1      -6.869   1.953  25.337  0.00  0.00    +0.081 C 
ATOM     36  H   UNL     1      -7.928   3.198  26.558  0.00  0.00    +0.122 HD
ENDROOT
BRANCH   6  10
ATOM     10  C   UNL     1      -4.411   3.188  23.748  0.00  0.00    +0.100 C 
BRANCH  10  13
ATOM      1  O   UNL     1      -2.698   3.385  22.120  0.00  0.00    -0.276 OA
ATOM      4  N   UNL     1      -3.065   1.260  22.995  0.00  0.00    -0.297 N 
ATOM     13  C   UNL     1      -3.315   2.629  22.875  0.00  0.00    +0.216 C 
ATOM     15  C   UNL     1      -2.133   0.614  22.071  0.00  0.00    +0.113 C 
ATOM     16  C   UNL     1      -3.803   0.366  23.898  0.00  0.00    +0.143 C 
ATOM     17  C   UNL     1      -1.107  -0.212  22.834  0.00  0.00    +0.054 C 
ATOM     18  C   UNL     1      -3.053  -0.882  24.298  0.00  0.00    -0.027 A 
ATOM     20  C   UNL     1      -1.776  -1.170  23.784  0.00  0.00    -0.041 A 
ATOM     22  C   UNL     1      -3.648  -1.777  25.197  0.00  0.00    +0.005 A 
ATOM     23  C   UNL     1      -1.105  -2.329  24.198  0.00  0.00    +0.004 A 
ATOM     26  C   UNL     1      -2.980  -2.936  25.593  0.00  0.00    +0.000 A 
ATOM     27  C   UNL     1      -1.707  -3.209  25.096  0.00  0.00    +0.000 A 
ENDBRANCH  10  13
ENDBRANCH   6  10
BRANCH   7  12
ATOM     12  C   UNL     1      -3.617   4.652  26.284  0.00  0.00    +0.064 C 
BRANCH  12  14
ATOM      2  O   UNL     1      -0.532   4.582  24.428  0.00  0.00    -0.354 OA
ATOM      5  N   UNL     1      -1.646   5.239  24.938  0.00  0.00    -0.083 NA
ATOM     14  C   UNL     1      -2.332   4.297  25.593  0.00  0.00    +0.085 A 
ATOM     19  C   UNL     1      -1.707   3.041  25.530  0.00  0.00    +0.076 A 
ATOM     21  C   UNL     1      -0.580   3.274  24.787  0.00  0.00    +0.167 A 
BRANCH  21  24
ATOM     24  C   UNL     1       0.511   2.464  24.328  0.00  0.00    +0.020 A 
ATOM     28  C   UNL     1       2.632   0.888  23.436  0.00  0.00    -0.042 A 
ATOM     29  C   UNL     1       0.593   1.125  24.709  0.00  0.00    +0.012 A 
ATOM     30  C   UNL     1       1.490   3.016  23.502  0.00  0.00    +0.012 A 
ATOM     31  C   UNL     1       1.654   0.336  24.263  0.00  0.00    +0.005 A 
ATOM     32  C   UNL     1       2.550   2.227  23.056  0.00  0.00    +0.005 A 
BRANCH  28  25
ATOM     25  C   UNL     1       3.767   0.045  22.959  0.00  0.00    -0.013 C 
ATOM     33  C   UNL     1       3.862   0.050  21.402  0.00  0.00    +0.015 C 
ATOM     34  C   UNL     1       3.600  -1.438  23.415  0.00  0.00    +0.015 C 
ATOM     35  C   UNL     1       5.183   0.478  23.464  0.00  0.00    +0.015 C 
ENDBRANCH  28  25
ENDBRANCH  21  24
ENDBRANCH  12  14
ENDBRANCH   7  12
TORSDOF 6
ENDMDL
MODEL 4
REMARK VINA RESULT:      10.8      1.570      2.421
REMARK  Name = 26743320
REMARK  9 active torsions:
REMARK  status: ('A' for Active; 'I' for Inactive)
REMARK    1  A    between atoms: C_6  and  C_10
REMARK    2  A    between atoms: C_7  and  C_12
REMARK    3  A    between atoms: C_10  and  C_13
REMARK    4  A    between atoms: C_12  and  C_14
REMARK    5  A    between atoms: C_21  and  C_24
REMARK    6  A    between atoms: C_25  and  C_28
REMARK    7  A    between atoms: C_25  and  C_33
REMARK    8  A    between atoms: C_25  and  C_34
REMARK    9  A    between atoms: C_25  and  C_35
REMARK                            x       y       z     vdW  Elec       q    Type
REMARK                         _______ _______ _______ _____ _____    ______ ____
ROOT
ATOM      3  N   UNL     1      -6.599   3.219  26.915  0.00  0.00    -0.316 NA
ATOM      6  C   UNL     1      -4.694   1.605  25.342  0.00  0.00    +0.004 C 
ATOM      7  C   UNL     1      -4.606   3.146  25.437  0.00  0.00    +0.012 C 
ATOM      8  C   UNL     1      -5.431   1.068  26.581  0.00  0.00    +0.019 C 
ATOM      9  C   UNL     1      -5.979   3.779  25.714  0.00  0.00    +0.085 C 
ATOM     11  C   UNL     1      -6.768   1.770  26.815  0.00  0.00    +0.081 C 
ATOM     36  H   UNL     1      -7.509   3.655  27.062  0.00  0.00    +0.122 HD
ENDROOT
BRANCH   6  10
ATOM     10  C   UNL     1      -5.351   1.095  24.053  0.00  0.00    +0.100 C 
BRANCH  10  13
ATOM      1  O   UNL     1      -6.366  -0.993  23.568  0.00  0.00    -0.276 OA
ATOM      4  N   UNL     1      -4.298  -1.061  24.633  0.00  0.00    -0.297 N 
ATOM     13  C   UNL     1      -5.395  -0.413  24.060  0.00  0.00    +0.216 C 
ATOM     15  C   UNL     1      -4.336  -2.511  24.825  0.00  0.00    +0.113 C 
ATOM     16  C   UNL     1      -3.143  -0.363  25.217  0.00  0.00    +0.143 C 
ATOM     17  C   UNL     1      -3.079  -3.160  24.263  0.00  0.00    +0.054 C 
ATOM     18  C   UNL     1      -1.871  -1.176  25.254  0.00  0.00    -0.027 A 
ATOM     20  C   UNL     1      -1.837  -2.511  24.816  0.00  0.00    -0.041 A 
ATOM     22  C   UNL     1      -0.699  -0.585  25.746  0.00  0.00    +0.005 A 
ATOM     23  C   UNL     1      -0.630  -3.223  24.848  0.00  0.00    +0.004 A 
ATOM     26  C   UNL     1       0.495  -1.305  25.788  0.00  0.00    +0.000 A 
ATOM     27  C   UNL     1       0.530  -2.622  25.336  0.00  0.00    +0.000 A 
ENDBRANCH  10  13
ENDBRANCH   6  10
BRANCH   7  12
ATOM     12  C   UNL     1      -3.958   3.786  24.208  0.00  0.00    +0.064 C 
BRANCH  12  14
ATOM      2  O   UNL     1      -1.718   1.603  22.423  0.00  0.00    -0.354 OA
ATOM      5  N   UNL     1      -2.950   2.222  22.602  0.00  0.00    -0.083 NA
ATOM     14  C   UNL     1      -2.807   2.964  23.705  0.00  0.00    +0.085 A 
ATOM     19  C   UNL     1      -1.521   2.853  24.259  0.00  0.00    +0.076 A 
ATOM     21  C   UNL     1      -0.876   1.987  23.416  0.00  0.00    +0.167 A 
BRANCH  21  24
ATOM     24  C   UNL     1       0.443   1.424  23.365  0.00  0.00    +0.020 A 
ATOM     28  C   UNL     1       3.006   0.330  23.266  0.00  0.00    -0.042 A 
ATOM     29  C   UNL     1       0.640   0.162  22.805  0.00  0.00    +0.012 A 
ATOM     30  C   UNL     1       1.526   2.139  23.876  0.00  0.00    +0.012 A 
ATOM     31  C   UNL     1       1.923  -0.386  22.755  0.00  0.00    +0.005 A 
ATOM     32  C   UNL     1       2.807   1.591  23.826  0.00  0.00    +0.005 A 
BRANCH  28  25
ATOM     25  C   UNL     1       4.377  -0.257  23.212  0.00  0.00    -0.013 C 
ATOM     33  C   UNL     1       5.367   0.534  24.121  0.00  0.00    +0.015 C 
ATOM     34  C   UNL     1       4.947  -0.231  21.760  0.00  0.00    +0.015 C 
ATOM     35  C   UNL     1       4.486  -1.748  23.676  0.00  0.00    +0.015 C 
ENDBRANCH  28  25
ENDBRANCH  21  24
ENDBRANCH  12  14
ENDBRANCH   7  12
TORSDOF 6
ENDMDL
MODEL 5
REMARK VINA RESULT:      11.3      2.755      4.357
REMARK  Name = 26743320
REMARK  9 active torsions:
REMARK  status: ('A' for Active; 'I' for Inactive)
REMARK    1  A    between atoms: C_6  and  C_10
REMARK    2  A    between atoms: C_7  and  C_12
REMARK    3  A    between atoms: C_10  and  C_13
REMARK    4  A    between atoms: C_12  and  C_14
REMARK    5  A    between atoms: C_21  and  C_24
REMARK    6  A    between atoms: C_25  and  C_28
REMARK    7  A    between atoms: C_25  and  C_33
REMARK    8  A    between atoms: C_25  and  C_34
REMARK    9  A    between atoms: C_25  and  C_35
REMARK                            x       y       z     vdW  Elec       q    Type
REMARK                         _______ _______ _______ _____ _____    ______ ____
ROOT
ATOM      3  N   UNL     1      -7.011   3.208  26.054  0.00  0.00    -0.316 NA
ATOM      6  C   UNL     1      -4.352   2.982  24.794  0.00  0.00    +0.004 C 
ATOM      7  C   UNL     1      -5.338   1.794  24.885  0.00  0.00    +0.012 C 
ATOM      8  C   UNL     1      -5.146   4.298  24.856  0.00  0.00    +0.019 C 
ATOM      9  C   UNL     1      -6.290   1.935  26.084  0.00  0.00    +0.085 C 
ATOM     11  C   UNL     1      -6.098   4.350  26.050  0.00  0.00    +0.081 C 
ATOM     36  H   UNL     1      -7.624   3.269  26.866  0.00  0.00    +0.122 HD
ENDROOT
BRANCH   6  10
ATOM     10  C   UNL     1      -3.248   2.960  25.859  0.00  0.00    +0.100 C 
BRANCH  10  13
ATOM      1  O   UNL     1      -1.969   4.126  24.237  0.00  0.00    -0.276 OA
ATOM      4  N   UNL     1      -0.783   3.065  25.934  0.00  0.00    -0.297 N 
ATOM     13  C   UNL     1      -1.948   3.439  25.261  0.00  0.00    +0.216 C 
ATOM     15  C   UNL     1       0.520   3.349  25.333  0.00  0.00    +0.113 C 
ATOM     16  C   UNL     1      -0.765   2.246  27.155  0.00  0.00    +0.143 C 
ATOM     17  C   UNL     1       1.433   4.043  26.335  0.00  0.00    +0.054 C 
ATOM     18  C   UNL     1       0.464   2.425  28.013  0.00  0.00    -0.027 A 
ATOM     20  C   UNL     1       1.519   3.267  27.622  0.00  0.00    -0.041 A 
ATOM     22  C   UNL     1       0.557   1.727  29.226  0.00  0.00    +0.005 A 
ATOM     23  C   UNL     1       2.633   3.420  28.459  0.00  0.00    +0.004 A 
ATOM     26  C   UNL     1       1.675   1.875  30.046  0.00  0.00    +0.000 A 
ATOM     27  C   UNL     1       2.711   2.724  29.664  0.00  0.00    +0.000 A 
ENDBRANCH  10  13
ENDBRANCH   6  10
BRANCH   7  12
ATOM     12  C   UNL     1      -4.637   0.434  24.913  0.00  0.00    +0.064 C 
BRANCH  12  14
ATOM      2  O   UNL     1      -1.779   0.939  22.783  0.00  0.00    -0.354 OA
ATOM      5  N   UNL     1      -3.139   1.025  23.057  0.00  0.00    -0.083 NA
ATOM     14  C   UNL     1      -3.277   0.506  24.280  0.00  0.00    +0.085 A 
ATOM     19  C   UNL     1      -2.053   0.078  24.821  0.00  0.00    +0.076 A 
ATOM     21  C   UNL     1      -1.143   0.373  23.840  0.00  0.00    +0.167 A 
BRANCH  21  24
ATOM     24  C   UNL     1       0.276   0.216  23.701  0.00  0.00    +0.020 A 
ATOM     28  C   UNL     1       3.035  -0.088  23.432  0.00  0.00    -0.042 A 
ATOM     29  C   UNL     1       0.859  -1.037  23.882  0.00  0.00    +0.012 A 
ATOM     30  C   UNL     1       1.071   1.318  23.387  0.00  0.00    +0.012 A 
ATOM     31  C   UNL     1       2.240  -1.191  23.747  0.00  0.00    +0.005 A 
ATOM     32  C   UNL     1       2.451   1.165  23.252  0.00  0.00    +0.005 A 
BRANCH  28  25
ATOM     25  C   UNL     1       4.511  -0.253  23.288  0.00  0.00    -0.013 C 
ATOM     33  C   UNL     1       4.968   0.002  21.819  0.00  0.00    +0.015 C 
ATOM     34  C   UNL     1       4.960  -1.695  23.678  0.00  0.00    +0.015 C 
ATOM     35  C   UNL     1       5.381   0.707  24.167  0.00  0.00    +0.015 C 
ENDBRANCH  28  25
ENDBRANCH  21  24
ENDBRANCH  12  14
ENDBRANCH   7  12
TORSDOF 6
ENDMDL
