MODEL 1
REMARK VINA RESULT:      -5.3      0.000      0.000
REMARK  Name = 51137452
REMARK  7 active torsions:
REMARK  status: ('A' for Active; 'I' for Inactive)
REMARK    1  A    between atoms: O_2  and  C_21
REMARK    2  A    between atoms: O_2  and  C_27
REMARK    3  A    between atoms: N_3  and  C_11
REMARK    4  A    between atoms: C_7  and  C_12
REMARK    5  A    between atoms: C_11  and  C_13
REMARK    6  A    between atoms: C_14  and  C_17
REMARK    7  A    between atoms: C_18  and  C_25
REMARK                            x       y       z     vdW  Elec       q    Type
REMARK                         _______ _______ _______ _____ _____    ______ ____
ROOT
ATOM      3  N   UNL     1      -2.244 -10.777  14.588  0.00  0.00    -0.297 NA
ATOM      7  C   UNL     1      -2.783 -10.780  12.306  0.00  0.00    +0.092 C 
ATOM      8  C   UNL     1      -1.379 -10.183  12.501  0.00  0.00    +0.029 C 
ATOM      9  C   UNL     1      -3.412 -10.762  13.706  0.00  0.00    +0.097 C 
ATOM     10  C   UNL     1      -1.303  -9.836  13.983  0.00  0.00    +0.085 C 
ENDROOT
BRANCH   7  12
ATOM      1  O   UNL     1      -4.941 -10.445  11.199  0.00  0.00    -0.420 OA
ATOM      4  N   UNL     1      -3.297  -9.157  10.400  0.00  0.00    -0.112 NA
ATOM      5  N   UNL     1      -4.447  -8.867   9.692  0.00  0.00    -0.107 NA
ATOM     12  C   UNL     1      -3.632 -10.082  11.269  0.00  0.00    +0.222 A 
ATOM     14  C   UNL     1      -5.382  -9.642  10.192  0.00  0.00    +0.252 A 
BRANCH  14  17
ATOM     17  C   UNL     1      -6.768  -9.770   9.848  0.00  0.00    +0.080 A 
ATOM     21  C   UNL     1      -7.766  -9.517  10.789  0.00  0.00    +0.132 A 
ATOM     22  C   UNL     1      -7.113 -10.153   8.552  0.00  0.00    +0.017 A 
ATOM     23  C   UNL     1      -9.108  -9.646  10.434  0.00  0.00    +0.046 A 
ATOM     24  C   UNL     1      -8.456 -10.282   8.196  0.00  0.00    +0.001 A 
ATOM     26  C   UNL     1      -9.454 -10.029   9.138  0.00  0.00    +0.004 A 
BRANCH  21   2
ATOM      2  O   UNL     1      -7.457  -9.141  12.063  0.00  0.00    -0.494 OA
ATOM     27  C   UNL     1      -8.337  -9.579  13.097  0.00  0.00    +0.277 C 
ENDBRANCH  21   2
ENDBRANCH  14  17
ENDBRANCH   7  12
BRANCH   3  11
ATOM     11  C   UNL     1      -2.579 -10.422  15.959  0.00  0.00    +0.119 C 
BRANCH  11  13
ATOM     13  C   UNL     1      -4.057 -10.530  16.222  0.00  0.00    -0.032 A 
ATOM     15  C   UNL     1      -4.531 -10.585  17.533  0.00  0.00    +0.023 A 
ATOM     16  C   UNL     1      -4.953 -10.576  15.154  0.00  0.00    +0.005 A 
ATOM     18  C   UNL     1      -5.901 -10.684  17.775  0.00  0.00    +0.052 A 
ATOM     19  C   UNL     1      -6.323 -10.676  15.397  0.00  0.00    +0.002 A 
ATOM     20  C   UNL     1      -6.797 -10.730  16.707  0.00  0.00    +0.019 A 
BRANCH  18  25
ATOM      6  N   UNL     1      -6.785 -10.781  20.207  0.00  0.00    -0.191 NA
ATOM     25  C   UNL     1      -6.388 -10.739  19.118  0.00  0.00    +0.099 C 
ENDBRANCH  18  25
ENDBRANCH  11  13
ENDBRANCH   3  11
TORSDOF 6
ENDMDL
MODEL 2
REMARK VINA RESULT:      -4.8      1.835      2.628
REMARK  Name = 51137452
REMARK  7 active torsions:
REMARK  status: ('A' for Active; 'I' for Inactive)
REMARK    1  A    between atoms: O_2  and  C_21
REMARK    2  A    between atoms: O_2  and  C_27
REMARK    3  A    between atoms: N_3  and  C_11
REMARK    4  A    between atoms: C_7  and  C_12
REMARK    5  A    between atoms: C_11  and  C_13
REMARK    6  A    between atoms: C_14  and  C_17
REMARK    7  A    between atoms: C_18  and  C_25
REMARK                            x       y       z     vdW  Elec       q    Type
REMARK                         _______ _______ _______ _____ _____    ______ ____
ROOT
ATOM      3  N   UNL     1      -2.464 -10.778  13.448  0.00  0.00    -0.297 NA
ATOM      7  C   UNL     1      -3.547 -10.571  11.378  0.00  0.00    +0.092 C 
ATOM      8  C   UNL     1      -2.101 -10.059  11.256  0.00  0.00    +0.029 C 
ATOM      9  C   UNL     1      -3.810 -10.636  12.889  0.00  0.00    +0.097 C 
ATOM     10  C   UNL     1      -1.640  -9.836  12.691  0.00  0.00    +0.085 C 
ENDROOT
BRANCH   7  12
ATOM      1  O   UNL     1      -5.875 -10.139  10.756  0.00  0.00    -0.420 OA
ATOM      4  N   UNL     1      -4.412  -8.699   9.870  0.00  0.00    -0.112 NA
ATOM      5  N   UNL     1      -5.675  -8.341   9.440  0.00  0.00    -0.107 NA
ATOM     12  C   UNL     1      -4.576  -9.752  10.635  0.00  0.00    +0.222 A 
ATOM     14  C   UNL     1      -6.499  -9.209   9.982  0.00  0.00    +0.252 A 
BRANCH  14  17
ATOM     17  C   UNL     1      -7.924  -9.326   9.887  0.00  0.00    +0.080 A 
ATOM     21  C   UNL     1      -8.658  -8.479   9.055  0.00  0.00    +0.132 A 
ATOM     22  C   UNL     1      -8.577 -10.302  10.638  0.00  0.00    +0.017 A 
ATOM     23  C   UNL     1     -10.044  -8.609   8.975  0.00  0.00    +0.046 A 
ATOM     24  C   UNL     1      -9.964 -10.433  10.558  0.00  0.00    +0.001 A 
ATOM     26  C   UNL     1     -10.698  -9.586   9.727  0.00  0.00    +0.004 A 
BRANCH  21   2
ATOM      2  O   UNL     1      -8.045  -7.515   8.310  0.00  0.00    -0.494 OA
ATOM     27  C   UNL     1      -8.504  -6.176   8.482  0.00  0.00    +0.277 C 
ENDBRANCH  21   2
ENDBRANCH  14  17
ENDBRANCH   7  12
BRANCH   3  11
ATOM     11  C   UNL     1      -2.427 -10.519  14.880  0.00  0.00    +0.119 C 
BRANCH  11  13
ATOM     13  C   UNL     1      -3.806 -10.514  15.485  0.00  0.00    -0.032 A 
ATOM     15  C   UNL     1      -4.918 -10.249  14.685  0.00  0.00    +0.023 A 
ATOM     16  C   UNL     1      -3.971 -10.774  16.845  0.00  0.00    +0.005 A 
ATOM     18  C   UNL     1      -6.195 -10.244  15.247  0.00  0.00    +0.052 A 
ATOM     19  C   UNL     1      -5.248 -10.770  17.406  0.00  0.00    +0.002 A 
ATOM     20  C   UNL     1      -6.360 -10.505  16.608  0.00  0.00    +0.019 A 
BRANCH  18  25
ATOM      6  N   UNL     1      -8.262  -9.755  13.767  0.00  0.00    -0.191 NA
ATOM     25  C   UNL     1      -7.336  -9.975  14.430  0.00  0.00    +0.099 C 
ENDBRANCH  18  25
ENDBRANCH  11  13
ENDBRANCH   3  11
TORSDOF 6
ENDMDL
MODEL 3
REMARK VINA RESULT:      -3.6      1.946      3.608
REMARK  Name = 51137452
REMARK  7 active torsions:
REMARK  status: ('A' for Active; 'I' for Inactive)
REMARK    1  A    between atoms: O_2  and  C_21
REMARK    2  A    between atoms: O_2  and  C_27
REMARK    3  A    between atoms: N_3  and  C_11
REMARK    4  A    between atoms: C_7  and  C_12
REMARK    5  A    between atoms: C_11  and  C_13
REMARK    6  A    between atoms: C_14  and  C_17
REMARK    7  A    between atoms: C_18  and  C_25
REMARK                            x       y       z     vdW  Elec       q    Type
REMARK                         _______ _______ _______ _____ _____    ______ ____
ROOT
ATOM      3  N   UNL     1      -1.934 -10.251  11.877  0.00  0.00    -0.297 NA
ATOM      7  C   UNL     1      -3.989 -10.775  10.876  0.00  0.00    +0.092 C 
ATOM      8  C   UNL     1      -3.068 -10.106   9.841  0.00  0.00    +0.029 C 
ATOM      9  C   UNL     1      -3.338 -10.467  12.232  0.00  0.00    +0.097 C 
ATOM     10  C   UNL     1      -1.974  -9.438  10.662  0.00  0.00    +0.085 C 
ENDROOT
BRANCH   7  12
ATOM      1  O   UNL     1      -6.144 -10.381  11.969  0.00  0.00    -0.420 OA
ATOM      4  N   UNL     1      -6.141  -9.946   9.776  0.00  0.00    -0.112 NA
ATOM      5  N   UNL     1      -7.408  -9.682  10.260  0.00  0.00    -0.107 NA
ATOM     12  C   UNL     1      -5.438 -10.350  10.807  0.00  0.00    +0.222 A 
ATOM     14  C   UNL     1      -7.364  -9.950  11.545  0.00  0.00    +0.252 A 
BRANCH  14  17
ATOM     17  C   UNL     1      -8.382  -9.861  12.551  0.00  0.00    +0.080 A 
ATOM     21  C   UNL     1      -9.732  -9.816  12.201  0.00  0.00    +0.132 A 
ATOM     22  C   UNL     1      -8.008  -9.819  13.894  0.00  0.00    +0.017 A 
ATOM     23  C   UNL     1     -10.707  -9.731  13.194  0.00  0.00    +0.046 A 
ATOM     24  C   UNL     1      -8.983  -9.733  14.888  0.00  0.00    +0.001 A 
ATOM     26  C   UNL     1     -10.333  -9.689  14.538  0.00  0.00    +0.004 A 
BRANCH  21   2
ATOM      2  O   UNL     1     -10.126  -9.855  10.896  0.00  0.00    -0.494 OA
ATOM     27  C   UNL     1     -10.705  -8.667  10.360  0.00  0.00    +0.277 C 
ENDBRANCH  21   2
ENDBRANCH  14  17
ENDBRANCH   7  12
BRANCH   3  11
ATOM     11  C   UNL     1      -1.184  -9.612  12.948  0.00  0.00    +0.119 C 
BRANCH  11  13
ATOM     13  C   UNL     1      -1.687 -10.020  14.307  0.00  0.00    -0.032 A 
ATOM     15  C   UNL     1      -3.058 -10.129  14.540  0.00  0.00    +0.023 A 
ATOM     16  C   UNL     1      -0.782 -10.289  15.333  0.00  0.00    +0.005 A 
ATOM     18  C   UNL     1      -3.523 -10.507  15.799  0.00  0.00    +0.052 A 
ATOM     19  C   UNL     1      -1.247 -10.668  16.592  0.00  0.00    +0.002 A 
ATOM     20  C   UNL     1      -2.617 -10.777  16.826  0.00  0.00    +0.019 A 
BRANCH  18  25
ATOM      6  N   UNL     1      -6.068 -10.712  16.233  0.00  0.00    -0.191 NA
ATOM     25  C   UNL     1      -4.927 -10.620  16.040  0.00  0.00    +0.099 C 
ENDBRANCH  18  25
ENDBRANCH  11  13
ENDBRANCH   3  11
TORSDOF 6
ENDMDL
MODEL 4
REMARK VINA RESULT:      -2.1     14.472     17.495
REMARK  Name = 51137452
REMARK  7 active torsions:
REMARK  status: ('A' for Active; 'I' for Inactive)
REMARK    1  A    between atoms: O_2  and  C_21
REMARK    2  A    between atoms: O_2  and  C_27
REMARK    3  A    between atoms: N_3  and  C_11
REMARK    4  A    between atoms: C_7  and  C_12
REMARK    5  A    between atoms: C_11  and  C_13
REMARK    6  A    between atoms: C_14  and  C_17
REMARK    7  A    between atoms: C_18  and  C_25
REMARK                            x       y       z     vdW  Elec       q    Type
REMARK                         _______ _______ _______ _____ _____    ______ ____
ROOT
ATOM      3  N   UNL     1      -2.780   4.973  24.888  0.00  0.00    -0.297 NA
ATOM      7  C   UNL     1      -4.673   3.600  24.713  0.00  0.00    +0.092 C 
ATOM      8  C   UNL     1      -4.621   4.227  26.117  0.00  0.00    +0.029 C 
ATOM      9  C   UNL     1      -3.265   3.812  24.139  0.00  0.00    +0.097 C 
ATOM     10  C   UNL     1      -3.191   4.728  26.270  0.00  0.00    +0.085 C 
ENDROOT
BRANCH   7  12
ATOM      1  O   UNL     1      -4.141   1.220  24.494  0.00  0.00    -0.420 OA
ATOM      4  N   UNL     1      -6.315   1.643  24.801  0.00  0.00    -0.112 NA
ATOM      5  N   UNL     1      -6.158   0.274  24.695  0.00  0.00    -0.107 NA
ATOM     12  C   UNL     1      -5.112   2.154  24.679  0.00  0.00    +0.222 A 
ATOM     14  C   UNL     1      -4.873   0.072  24.516  0.00  0.00    +0.252 A 
BRANCH  14  17
ATOM     17  C   UNL     1      -4.136  -1.145  24.344  0.00  0.00    +0.080 A 
ATOM     21  C   UNL     1      -2.840  -1.274  24.843  0.00  0.00    +0.132 A 
ATOM     22  C   UNL     1      -4.732  -2.210  23.669  0.00  0.00    +0.017 A 
ATOM     23  C   UNL     1      -2.140  -2.468  24.667  0.00  0.00    +0.046 A 
ATOM     24  C   UNL     1      -4.033  -3.404  23.493  0.00  0.00    +0.001 A 
ATOM     26  C   UNL     1      -2.737  -3.533  23.992  0.00  0.00    +0.004 A 
BRANCH  21   2
ATOM      2  O   UNL     1      -2.232  -0.250  25.507  0.00  0.00    -0.494 OA
ATOM     27  C   UNL     1      -1.316  -0.604  26.542  0.00  0.00    +0.277 C 
ENDBRANCH  21   2
ENDBRANCH  14  17
ENDBRANCH   7  12
BRANCH   3  11
ATOM     11  C   UNL     1      -1.342   5.155  24.760  0.00  0.00    +0.119 C 
BRANCH  11  13
ATOM     13  C   UNL     1      -0.587   3.892  25.076  0.00  0.00    -0.032 A 
ATOM     15  C   UNL     1      -0.297   2.979  24.062  0.00  0.00    +0.023 A 
ATOM     16  C   UNL     1      -0.175   3.635  26.384  0.00  0.00    +0.005 A 
ATOM     18  C   UNL     1       0.404   1.809  24.356  0.00  0.00    +0.052 A 
ATOM     19  C   UNL     1       0.526   2.465  26.677  0.00  0.00    +0.002 A 
ATOM     20  C   UNL     1       0.816   1.553  25.664  0.00  0.00    +0.019 A 
BRANCH  18  25
ATOM      6  N   UNL     1       0.945   0.112  22.476  0.00  0.00    -0.191 NA
ATOM     25  C   UNL     1       0.702   0.873  23.318  0.00  0.00    +0.099 C 
ENDBRANCH  18  25
ENDBRANCH  11  13
ENDBRANCH   3  11
TORSDOF 6
ENDMDL
MODEL 5
REMARK VINA RESULT:      -1.9     14.324     17.353
REMARK  Name = 51137452
REMARK  7 active torsions:
REMARK  status: ('A' for Active; 'I' for Inactive)
REMARK    1  A    between atoms: O_2  and  C_21
REMARK    2  A    between atoms: O_2  and  C_27
REMARK    3  A    between atoms: N_3  and  C_11
REMARK    4  A    between atoms: C_7  and  C_12
REMARK    5  A    between atoms: C_11  and  C_13
REMARK    6  A    between atoms: C_14  and  C_17
REMARK    7  A    between atoms: C_18  and  C_25
REMARK                            x       y       z     vdW  Elec       q    Type
REMARK                         _______ _______ _______ _____ _____    ______ ____
ROOT
ATOM      3  N   UNL     1      -2.498  -2.507  24.814  0.00  0.00    -0.297 NA
ATOM      7  C   UNL     1      -4.316  -1.112  25.314  0.00  0.00    +0.092 C 
ATOM      8  C   UNL     1      -4.555  -1.804  23.961  0.00  0.00    +0.029 C 
ATOM      9  C   UNL     1      -2.819  -1.309  25.592  0.00  0.00    +0.097 C 
ATOM     10  C   UNL     1      -3.187  -2.323  23.538  0.00  0.00    +0.085 C 
ENDROOT
BRANCH   7  12
ATOM      1  O   UNL     1      -3.763   1.271  25.225  0.00  0.00    -0.420 OA
ATOM      4  N   UNL     1      -5.936   0.851  25.545  0.00  0.00    -0.112 NA
ATOM      5  N   UNL     1      -5.768   2.222  25.515  0.00  0.00    -0.107 NA
ATOM     12  C   UNL     1      -4.741   0.337  25.371  0.00  0.00    +0.222 A 
ATOM     14  C   UNL     1      -4.483   2.422  25.327  0.00  0.00    +0.252 A 
BRANCH  14  17
ATOM     17  C   UNL     1      -3.738   3.641  25.213  0.00  0.00    +0.080 A 
ATOM     21  C   UNL     1      -3.295   4.096  23.971  0.00  0.00    +0.132 A 
ATOM     22  C   UNL     1      -3.457   4.376  26.365  0.00  0.00    +0.017 A 
ATOM     23  C   UNL     1      -2.572   5.286  23.881  0.00  0.00    +0.046 A 
ATOM     24  C   UNL     1      -2.735   5.565  26.276  0.00  0.00    +0.001 A 
ATOM     26  C   UNL     1      -2.291   6.020  25.034  0.00  0.00    +0.004 A 
BRANCH  21   2
ATOM      2  O   UNL     1      -3.555   3.398  22.828  0.00  0.00    -0.494 OA
ATOM     27  C   UNL     1      -2.613   2.393  22.457  0.00  0.00    +0.277 C 
ENDBRANCH  21   2
ENDBRANCH  14  17
ENDBRANCH   7  12
BRANCH   3  11
ATOM     11  C   UNL     1      -1.065  -2.694  24.649  0.00  0.00    +0.119 C 
BRANCH  11  13
ATOM     13  C   UNL     1      -0.371  -1.413  24.270  0.00  0.00    -0.032 A 
ATOM     15  C   UNL     1      -0.559  -0.264  25.039  0.00  0.00    +0.023 A 
ATOM     16  C   UNL     1       0.459  -1.374  23.150  0.00  0.00    +0.005 A 
ATOM     18  C   UNL     1       0.085   0.923  24.687  0.00  0.00    +0.052 A 
ATOM     19  C   UNL     1       1.103  -0.188  22.799  0.00  0.00    +0.002 A 
ATOM     20  C   UNL     1       0.916   0.961  23.567  0.00  0.00    +0.019 A 
BRANCH  18  25
ATOM      6  N   UNL     1      -0.257   3.057  26.113  0.00  0.00    -0.191 NA
ATOM     25  C   UNL     1      -0.105   2.101  25.474  0.00  0.00    +0.099 C 
ENDBRANCH  18  25
ENDBRANCH  11  13
ENDBRANCH   3  11
TORSDOF 6
ENDMDL
MODEL 6
REMARK VINA RESULT:      -1.8     15.157     17.677
REMARK  Name = 51137452
REMARK  7 active torsions:
REMARK  status: ('A' for Active; 'I' for Inactive)
REMARK    1  A    between atoms: O_2  and  C_21
REMARK    2  A    between atoms: O_2  and  C_27
REMARK    3  A    between atoms: N_3  and  C_11
REMARK    4  A    between atoms: C_7  and  C_12
REMARK    5  A    between atoms: C_11  and  C_13
REMARK    6  A    between atoms: C_14  and  C_17
REMARK    7  A    between atoms: C_18  and  C_25
REMARK                            x       y       z     vdW  Elec       q    Type
REMARK                         _______ _______ _______ _____ _____    ______ ____
ROOT
ATOM      3  N   UNL     1      -4.848   0.596  24.312  0.00  0.00    -0.297 NA
ATOM      7  C   UNL     1      -3.237  -1.106  24.408  0.00  0.00    +0.092 C 
ATOM      8  C   UNL     1      -3.962  -1.007  25.761  0.00  0.00    +0.029 C 
ATOM      9  C   UNL     1      -3.584   0.202  23.684  0.00  0.00    +0.097 C 
ATOM     10  C   UNL     1      -4.651   0.351  25.740  0.00  0.00    +0.085 C 
ENDROOT
BRANCH   7  12
ATOM      1  O   UNL     1      -0.936  -0.448  23.887  0.00  0.00    -0.420 OA
ATOM      4  N   UNL     1      -1.097  -2.321  25.098  0.00  0.00    -0.112 NA
ATOM      5  N   UNL     1       0.244  -2.069  24.879  0.00  0.00    -0.107 NA
ATOM     12  C   UNL     1      -1.748  -1.350  24.502  0.00  0.00    +0.222 A 
ATOM     14  C   UNL     1       0.291  -0.966  24.168  0.00  0.00    +0.252 A 
BRANCH  14  17
ATOM     17  C   UNL     1       1.412  -0.238  23.652  0.00  0.00    +0.080 A 
ATOM     21  C   UNL     1       1.423   1.157  23.655  0.00  0.00    +0.132 A 
ATOM     22  C   UNL     1       2.503  -0.942  23.143  0.00  0.00    +0.017 A 
ATOM     23  C   UNL     1       2.524   1.848  23.150  0.00  0.00    +0.046 A 
ATOM     24  C   UNL     1       3.606  -0.252  22.638  0.00  0.00    +0.001 A 
ATOM     26  C   UNL     1       3.616   1.143  22.641  0.00  0.00    +0.004 A 
BRANCH  21   2
ATOM      2  O   UNL     1       0.370   1.871  24.146  0.00  0.00    -0.494 OA
ATOM     27  C   UNL     1       0.317   2.054  25.560  0.00  0.00    +0.277 C 
ENDBRANCH  21   2
ENDBRANCH  14  17
ENDBRANCH   7  12
BRANCH   3  11
ATOM     11  C   UNL     1      -5.200   1.979  24.030  0.00  0.00    +0.119 C 
BRANCH  11  13
ATOM     13  C   UNL     1      -4.423   2.943  24.886  0.00  0.00    -0.032 A 
ATOM     15  C   UNL     1      -3.213   3.465  24.427  0.00  0.00    +0.023 A 
ATOM     16  C   UNL     1      -4.913   3.314  26.138  0.00  0.00    +0.005 A 
ATOM     18  C   UNL     1      -2.494   4.359  25.221  0.00  0.00    +0.052 A 
ATOM     19  C   UNL     1      -4.193   4.208  26.931  0.00  0.00    +0.002 A 
ATOM     20  C   UNL     1      -2.985   4.730  26.473  0.00  0.00    +0.019 A 
BRANCH  18  25
ATOM      6  N   UNL     1      -0.250   5.331  24.372  0.00  0.00    -0.191 NA
ATOM     25  C   UNL     1      -1.256   4.896  24.752  0.00  0.00    +0.099 C 
ENDBRANCH  18  25
ENDBRANCH  11  13
ENDBRANCH   3  11
TORSDOF 6
ENDMDL
