MODEL 1
REMARK VINA RESULT:      14.7      0.000      0.000
REMARK  Name = 7673684
REMARK  7 active torsions:
REMARK  status: ('A' for Active; 'I' for Inactive)
REMARK    1  A    between atoms: O_4  and  C_29
REMARK    2  A    between atoms: O_4  and  C_35
REMARK    3  A    between atoms: O_5  and  C_31
REMARK    4  A    between atoms: O_5  and  C_37
REMARK    5  A    between atoms: N_8  and  C_23
REMARK    6  A    between atoms: N_9  and  C_21
REMARK    7  A    between atoms: N_10  and  C_30
REMARK                            x       y       z     vdW  Elec       q    Type
REMARK                         _______ _______ _______ _____ _____    ______ ____
ROOT
ATOM      1  O   UNL     1       0.179   2.693  26.106  0.00  0.00    -0.266 OA
ATOM      2  O   UNL     1      -5.104   1.895  23.561  0.00  0.00    -0.252 OA
ATOM      6  N   UNL     1      -4.823   3.011  25.568  0.00  0.00    -0.284 N 
ATOM      7  N   UNL     1      -1.759   3.956  25.774  0.00  0.00    -0.310 N 
ATOM      8  N   UNL     1      -4.813   0.654  25.498  0.00  0.00    -0.269 N 
ATOM     11  C   UNL     1      -3.640   4.088  27.503  0.00  0.00    +0.027 C 
ATOM     12  C   UNL     1      -3.853   5.301  25.378  0.00  0.00    +0.054 C 
ATOM     13  C   UNL     1      -3.922   5.455  26.895  0.00  0.00    +0.018 C 
ATOM     14  C   UNL     1      -4.674   3.047  27.033  0.00  0.00    +0.114 C 
ATOM     15  C   UNL     1      -2.207   3.675  27.144  0.00  0.00    +0.130 C 
ATOM     16  C   UNL     1      -4.947   4.322  24.919  0.00  0.00    +0.119 C 
ATOM     17  C   UNL     1      -2.492   4.800  24.933  0.00  0.00    +0.027 A 
ATOM     18  C   UNL     1      -2.006   5.139  23.728  0.00  0.00    +0.024 A 
ATOM     19  C   UNL     1      -0.511   3.424  25.393  0.00  0.00    +0.273 A 
ATOM     20  C   UNL     1      -4.919   1.844  24.779  0.00  0.00    +0.306 C 
ATOM     21  C   UNL     1      -0.017   3.806  24.032  0.00  0.00    +0.100 A 
ATOM     22  C   UNL     1      -0.744   4.629  23.270  0.00  0.00    +0.030 A 
ATOM     38  H   UNL     1      -5.119   0.648  26.465  0.00  0.00    +0.156 HD
ENDROOT
BRANCH  21   9
ATOM      3  O   UNL     1       0.975   1.196  24.576  0.00  0.00    -0.252 OA
ATOM      9  N   UNL     1       1.180   3.298  23.619  0.00  0.00    -0.265 N 
ATOM     10  N   UNL     1       2.887   1.788  23.350  0.00  0.00    -0.266 N 
ATOM     24  C   UNL     1       1.624   2.003  23.915  0.00  0.00    +0.308 C 
ATOM     39  H   UNL     1       1.877   3.966  23.299  0.00  0.00    +0.157 HD
ATOM     40  H   UNL     1       3.288   2.558  22.822  0.00  0.00    +0.156 HD
BRANCH  10  30
ATOM     30  C   UNL     1       3.680   0.618  23.416  0.00  0.00    +0.077 A 
ATOM     31  C   UNL     1       3.121  -0.634  23.157  0.00  0.00    +0.141 A 
ATOM     32  C   UNL     1       5.030   0.724  23.744  0.00  0.00    +0.027 A 
ATOM     33  C   UNL     1       3.915  -1.779  23.225  0.00  0.00    +0.047 A 
ATOM     34  C   UNL     1       5.824  -0.421  23.811  0.00  0.00    +0.002 A 
ATOM     36  C   UNL     1       5.267  -1.672  23.553  0.00  0.00    +0.004 A 
BRANCH  31   5
ATOM      5  O   UNL     1       1.802  -0.760  22.837  0.00  0.00    -0.493 OA
ATOM     37  C   UNL     1       1.453  -0.614  21.462  0.00  0.00    +0.277 C 
ENDBRANCH  31   5
ENDBRANCH  10  30
ENDBRANCH  21   9
BRANCH   8  23
ATOM     23  C   UNL     1      -4.295  -0.583  25.039  0.00  0.00    +0.035 A 
ATOM     25  C   UNL     1      -4.845  -1.194  23.912  0.00  0.00    +0.027 A 
ATOM     26  C   UNL     1      -3.232  -1.186  25.711  0.00  0.00    +0.027 A 
ATOM     27  C   UNL     1      -4.333  -2.410  23.459  0.00  0.00    +0.047 A 
ATOM     28  C   UNL     1      -2.720  -2.402  25.257  0.00  0.00    +0.047 A 
ATOM     29  C   UNL     1      -3.271  -3.014  24.132  0.00  0.00    +0.120 A 
BRANCH  29   4
ATOM      4  O   UNL     1      -2.770  -4.199  23.688  0.00  0.00    -0.495 OA
ATOM     35  C   UNL     1      -1.499  -4.166  23.041  0.00  0.00    +0.277 C 
ENDBRANCH  29   4
ENDBRANCH   8  23
TORSDOF 5
ENDMDL
MODEL 2
REMARK VINA RESULT:      18.0      0.864      1.540
REMARK  Name = 7673684
REMARK  7 active torsions:
REMARK  status: ('A' for Active; 'I' for Inactive)
REMARK    1  A    between atoms: O_4  and  C_29
REMARK    2  A    between atoms: O_4  and  C_35
REMARK    3  A    between atoms: O_5  and  C_31
REMARK    4  A    between atoms: O_5  and  C_37
REMARK    5  A    between atoms: N_8  and  C_23
REMARK    6  A    between atoms: N_9  and  C_21
REMARK    7  A    between atoms: N_10  and  C_30
REMARK                            x       y       z     vdW  Elec       q    Type
REMARK                         _______ _______ _______ _____ _____    ______ ____
ROOT
ATOM      1  O   UNL     1       0.141   2.576  26.194  0.00  0.00    -0.266 OA
ATOM      2  O   UNL     1      -5.069   1.919  23.466  0.00  0.00    -0.252 OA
ATOM      6  N   UNL     1      -4.819   3.078  25.453  0.00  0.00    -0.284 N 
ATOM      7  N   UNL     1      -1.730   3.905  25.754  0.00  0.00    -0.310 N 
ATOM      8  N   UNL     1      -4.903   0.721  25.445  0.00  0.00    -0.269 N 
ATOM     11  C   UNL     1      -3.668   4.160  27.404  0.00  0.00    +0.027 C 
ATOM     12  C   UNL     1      -3.750   5.321  25.242  0.00  0.00    +0.054 C 
ATOM     13  C   UNL     1      -3.871   5.520  26.750  0.00  0.00    +0.018 C 
ATOM     14  C   UNL     1      -4.725   3.148  26.921  0.00  0.00    +0.114 C 
ATOM     15  C   UNL     1      -2.241   3.680  27.112  0.00  0.00    +0.130 C 
ATOM     16  C   UNL     1      -4.865   4.375  24.766  0.00  0.00    +0.119 C 
ATOM     17  C   UNL     1      -2.394   4.754  24.863  0.00  0.00    +0.027 A 
ATOM     18  C   UNL     1      -1.850   5.040  23.669  0.00  0.00    +0.024 A 
ATOM     19  C   UNL     1      -0.490   3.314  25.436  0.00  0.00    +0.273 A 
ATOM     20  C   UNL     1      -4.932   1.894  24.691  0.00  0.00    +0.306 C 
ATOM     21  C   UNL     1       0.070   3.638  24.086  0.00  0.00    +0.100 A 
ATOM     22  C   UNL     1      -0.593   4.468  23.275  0.00  0.00    +0.030 A 
ATOM     38  H   UNL     1      -5.246   0.754  26.398  0.00  0.00    +0.156 HD
ENDROOT
BRANCH  21   9
ATOM      3  O   UNL     1       0.807   0.916  24.456  0.00  0.00    -0.252 OA
ATOM      9  N   UNL     1       1.261   3.072  23.734  0.00  0.00    -0.265 N 
ATOM     10  N   UNL     1       2.867   1.455  23.471  0.00  0.00    -0.266 N 
ATOM     24  C   UNL     1       1.576   1.722  23.939  0.00  0.00    +0.308 C 
ATOM     39  H   UNL     1       2.033   3.705  23.545  0.00  0.00    +0.157 HD
ATOM     40  H   UNL     1       3.375   2.234  23.060  0.00  0.00    +0.156 HD
BRANCH  10  30
ATOM     30  C   UNL     1       3.561   0.222  23.492  0.00  0.00    +0.077 A 
ATOM     31  C   UNL     1       4.935   0.183  23.726  0.00  0.00    +0.141 A 
ATOM     32  C   UNL     1       2.857  -0.962  23.275  0.00  0.00    +0.027 A 
ATOM     33  C   UNL     1       5.605  -1.040  23.743  0.00  0.00    +0.047 A 
ATOM     34  C   UNL     1       3.528  -2.185  23.292  0.00  0.00    +0.002 A 
ATOM     36  C   UNL     1       4.901  -2.225  23.527  0.00  0.00    +0.004 A 
BRANCH  31   5
ATOM      5  O   UNL     1       5.642   1.329  23.939  0.00  0.00    -0.493 OA
ATOM     37  C   UNL     1       7.062   1.212  24.000  0.00  0.00    +0.277 C 
ENDBRANCH  31   5
ENDBRANCH  10  30
ENDBRANCH  21   9
BRANCH   8  23
ATOM     23  C   UNL     1      -4.419  -0.548  25.038  0.00  0.00    +0.035 A 
ATOM     25  C   UNL     1      -4.868  -1.117  23.847  0.00  0.00    +0.027 A 
ATOM     26  C   UNL     1      -3.490  -1.225  25.828  0.00  0.00    +0.027 A 
ATOM     27  C   UNL     1      -4.389  -2.364  23.446  0.00  0.00    +0.047 A 
ATOM     28  C   UNL     1      -3.011  -2.472  25.427  0.00  0.00    +0.047 A 
ATOM     29  C   UNL     1      -3.461  -3.042  24.236  0.00  0.00    +0.120 A 
BRANCH  29   4
ATOM      4  O   UNL     1      -2.993  -4.258  23.844  0.00  0.00    -0.495 OA
ATOM     35  C   UNL     1      -1.785  -4.275  23.084  0.00  0.00    +0.277 C 
ENDBRANCH  29   4
ENDBRANCH   8  23
TORSDOF 5
ENDMDL
