MODEL 1
REMARK VINA RESULT:       1.1      0.000      0.000
REMARK  Name = 11879690
REMARK  10 active torsions:
REMARK  status: ('A' for Active; 'I' for Inactive)
REMARK    1  A    between atoms: S_1  and  C_23
REMARK    2  A    between atoms: S_1  and  C_34
REMARK    3  A    between atoms: O_4  and  C_21
REMARK    4  A    between atoms: O_4  and  C_24
REMARK    5  A    between atoms: O_7  and  C_35
REMARK    6  A    between atoms: N_9  and  C_17
REMARK    7  A    between atoms: N_10  and  C_18
REMARK    8  A    between atoms: N_14  and  C_25
REMARK    9  A    between atoms: C_22  and  C_23
REMARK   10  A    between atoms: C_34  and  C_35
REMARK                            x       y       z     vdW  Elec       q    Type
REMARK                         _______ _______ _______ _____ _____    ______ ____
ROOT
ATOM      2  O   UNL     1      -2.324   3.670  27.165  0.00  0.00    -0.370 OA
ATOM      3  O   UNL     1      -2.504   5.284  24.472  0.00  0.00    -0.370 OA
ATOM     15  C   UNL     1      -3.032   4.021  24.916  0.00  0.00    +0.176 C 
ATOM     16  C   UNL     1      -1.980   3.382  25.801  0.00  0.00    +0.171 C 
ATOM     17  C   UNL     1      -4.218   4.252  25.833  0.00  0.00    +0.171 C 
ATOM     18  C   UNL     1      -0.696   4.087  25.423  0.00  0.00    +0.130 C 
ATOM     19  C   UNL     1      -3.569   4.378  27.206  0.00  0.00    +0.190 C 
ATOM     20  C   UNL     1      -1.191   5.463  25.018  0.00  0.00    +0.185 C 
ENDROOT
BRANCH  17   9
ATOM      9  N   UNL     1      -5.230   3.198  25.720  0.00  0.00    -0.187 N 
ATOM     11  N   UNL     1      -6.011   2.883  26.757  0.00  0.00    -0.041 NA
ATOM     12  N   UNL     1      -6.504   1.609  24.995  0.00  0.00    -0.071 NA
ATOM     13  N   UNL     1      -6.792   1.908  26.307  0.00  0.00    -0.020 NA
ATOM     21  C   UNL     1      -5.532   2.422  24.652  0.00  0.00    +0.342 A 
BRANCH  21   4
ATOM      4  O   UNL     1      -4.936   2.489  23.476  0.00  0.00    -0.423 OA
BRANCH   4  24
ATOM     24  C   UNL     1      -3.776   1.782  23.185  0.00  0.00    +0.134 A 
ATOM     25  C   UNL     1      -2.275  -0.014  23.678  0.00  0.00    +0.033 A 
ATOM     26  C   UNL     1      -3.439   0.695  23.970  0.00  0.00    +0.069 A 
ATOM     29  C   UNL     1      -2.995   2.184  22.120  0.00  0.00    +0.046 A 
ATOM     32  C   UNL     1      -1.471   0.375  22.607  0.00  0.00    +0.023 A 
ATOM     33  C   UNL     1      -1.830   1.474  21.828  0.00  0.00    +0.005 A 
BRANCH  25  14
ATOM      6  O   UNL     1      -3.126  -3.044  26.077  0.00  0.00    -0.377 OA
ATOM     14  N   UNL     1      -1.916  -1.108  24.455  0.00  0.00    -0.325 N 
ATOM     27  C   UNL     1      -1.783  -1.035  25.912  0.00  0.00    +0.133 C 
ATOM     28  C   UNL     1      -2.085  -2.475  23.950  0.00  0.00    +0.133 C 
ATOM     30  C   UNL     1      -3.003  -1.695  26.544  0.00  0.00    +0.178 C 
ATOM     31  C   UNL     1      -3.291  -3.097  24.656  0.00  0.00    +0.178 C 
ENDBRANCH  25  14
ENDBRANCH   4  24
ENDBRANCH  21   4
ENDBRANCH  17   9
BRANCH  18  10
ATOM      5  O   UNL     1       0.717   1.562  25.493  0.00  0.00    -0.275 OA
ATOM     10  N   UNL     1      -0.039   3.423  24.324  0.00  0.00    -0.307 N 
ATOM     22  C   UNL     1       0.617   2.207  24.452  0.00  0.00    +0.223 C 
ATOM     36  H   UNL     1      -0.004   3.904  23.429  0.00  0.00    +0.149 HD
BRANCH  22  23
ATOM     23  C   UNL     1       1.239   1.732  23.160  0.00  0.00    +0.165 C 
BRANCH  23   1
ATOM      1  S   UNL     1       1.892   0.063  23.400  0.00  0.00    -0.140 S 
BRANCH   1  34
ATOM     34  C   UNL     1       3.509   0.291  22.625  0.00  0.00    +0.189 C 
BRANCH  34  35
ATOM      8  O   UNL     1       5.421   0.711  24.031  0.00  0.00    -0.250 OA
ATOM     35  C   UNL     1       4.588  -0.078  23.602  0.00  0.00    +0.315 C 
BRANCH  35   7
ATOM      7  O   UNL     1       4.533  -1.381  23.976  0.00  0.00    -0.480 OA
ATOM     37  H   UNL     1       4.502  -1.481  24.951  0.00  0.00    +0.295 HD
ENDBRANCH  35   7
ENDBRANCH  34  35
ENDBRANCH   1  34
ENDBRANCH  23   1
ENDBRANCH  22  23
ENDBRANCH  18  10
TORSDOF 10
ENDMDL
MODEL 2
REMARK VINA RESULT:       1.7      2.041      4.210
REMARK  Name = 11879690
REMARK  10 active torsions:
REMARK  status: ('A' for Active; 'I' for Inactive)
REMARK    1  A    between atoms: S_1  and  C_23
REMARK    2  A    between atoms: S_1  and  C_34
REMARK    3  A    between atoms: O_4  and  C_21
REMARK    4  A    between atoms: O_4  and  C_24
REMARK    5  A    between atoms: O_7  and  C_35
REMARK    6  A    between atoms: N_9  and  C_17
REMARK    7  A    between atoms: N_10  and  C_18
REMARK    8  A    between atoms: N_14  and  C_25
REMARK    9  A    between atoms: C_22  and  C_23
REMARK   10  A    between atoms: C_34  and  C_35
REMARK                            x       y       z     vdW  Elec       q    Type
REMARK                         _______ _______ _______ _____ _____    ______ ____
ROOT
ATOM      2  O   UNL     1      -1.302   1.359  22.638  0.00  0.00    -0.370 OA
ATOM      3  O   UNL     1       0.049   0.339  25.288  0.00  0.00    -0.370 OA
ATOM     15  C   UNL     1      -0.047   1.623  24.647  0.00  0.00    +0.176 C 
ATOM     16  C   UNL     1       0.038   1.386  23.152  0.00  0.00    +0.171 C 
ATOM     17  C   UNL     1      -1.429   2.208  24.866  0.00  0.00    +0.171 C 
ATOM     18  C   UNL     1       0.675   0.020  23.027  0.00  0.00    +0.130 C 
ATOM     19  C   UNL     1      -2.227   1.647  23.695  0.00  0.00    +0.190 C 
ATOM     20  C   UNL     1       0.195  -0.677  24.286  0.00  0.00    +0.185 C 
ENDROOT
BRANCH  17   9
ATOM      9  N   UNL     1      -1.413   3.670  24.963  0.00  0.00    -0.187 N 
ATOM     11  N   UNL     1      -0.473   4.387  24.340  0.00  0.00    -0.041 NA
ATOM     12  N   UNL     1      -1.870   5.726  25.448  0.00  0.00    -0.071 NA
ATOM     13  N   UNL     1      -0.758   5.649  24.640  0.00  0.00    -0.020 NA
ATOM     21  C   UNL     1      -2.259   4.486  25.635  0.00  0.00    +0.342 A 
BRANCH  21   4
ATOM      4  O   UNL     1      -3.291   4.081  26.351  0.00  0.00    -0.423 OA
BRANCH   4  24
ATOM     24  C   UNL     1      -4.240   3.194  25.859  0.00  0.00    +0.134 A 
ATOM     25  C   UNL     1      -4.897   0.953  25.339  0.00  0.00    +0.033 A 
ATOM     26  C   UNL     1      -3.945   1.844  25.834  0.00  0.00    +0.069 A 
ATOM     29  C   UNL     1      -5.449   3.687  25.409  0.00  0.00    +0.046 A 
ATOM     32  C   UNL     1      -6.125   1.429  24.880  0.00  0.00    +0.023 A 
ATOM     33  C   UNL     1      -6.402   2.795  24.914  0.00  0.00    +0.005 A 
BRANCH  25  14
ATOM      6  O   UNL     1      -2.506  -2.125  24.659  0.00  0.00    -0.377 OA
ATOM     14  N   UNL     1      -4.622  -0.407  25.303  0.00  0.00    -0.325 N 
ATOM     27  C   UNL     1      -4.660  -1.190  24.066  0.00  0.00    +0.133 C 
ATOM     28  C   UNL     1      -3.853  -1.046  26.377  0.00  0.00    +0.133 C 
ATOM     30  C   UNL     1      -3.228  -1.458  23.617  0.00  0.00    +0.178 C 
ATOM     31  C   UNL     1      -2.446  -1.333  25.850  0.00  0.00    +0.178 C 
ENDBRANCH  25  14
ENDBRANCH   4  24
ENDBRANCH  21   4
ENDBRANCH  17   9
BRANCH  18  10
ATOM      5  O   UNL     1       2.395  -0.150  20.705  0.00  0.00    -0.275 OA
ATOM     10  N   UNL     1       2.115   0.114  22.997  0.00  0.00    -0.307 N 
ATOM     22  C   UNL     1       2.859   0.022  21.831  0.00  0.00    +0.223 C 
ATOM     36  H   UNL     1       2.605   0.190  23.885  0.00  0.00    +0.149 HD
BRANCH  22  23
ATOM     23  C   UNL     1       4.347   0.134  22.069  0.00  0.00    +0.165 C 
BRANCH  23   1
ATOM      1  S   UNL     1       4.631   1.108  23.566  0.00  0.00    -0.140 S 
BRANCH   1  34
ATOM     34  C   UNL     1       5.532  -0.131  24.527  0.00  0.00    +0.189 C 
BRANCH  34  35
ATOM      8  O   UNL     1       6.023  -2.215  23.422  0.00  0.00    -0.250 OA
ATOM     35  C   UNL     1       5.214  -1.500  24.000  0.00  0.00    +0.315 C 
BRANCH  35   7
ATOM      7  O   UNL     1       3.933  -1.872  24.247  0.00  0.00    -0.480 OA
ATOM     37  H   UNL     1       3.347  -1.697  23.480  0.00  0.00    +0.295 HD
ENDBRANCH  35   7
ENDBRANCH  34  35
ENDBRANCH   1  34
ENDBRANCH  23   1
ENDBRANCH  22  23
ENDBRANCH  18  10
TORSDOF 10
ENDMDL
MODEL 3
REMARK VINA RESULT:       1.9      2.184      4.614
REMARK  Name = 11879690
REMARK  10 active torsions:
REMARK  status: ('A' for Active; 'I' for Inactive)
REMARK    1  A    between atoms: S_1  and  C_23
REMARK    2  A    between atoms: S_1  and  C_34
REMARK    3  A    between atoms: O_4  and  C_21
REMARK    4  A    between atoms: O_4  and  C_24
REMARK    5  A    between atoms: O_7  and  C_35
REMARK    6  A    between atoms: N_9  and  C_17
REMARK    7  A    between atoms: N_10  and  C_18
REMARK    8  A    between atoms: N_14  and  C_25
REMARK    9  A    between atoms: C_22  and  C_23
REMARK   10  A    between atoms: C_34  and  C_35
REMARK                            x       y       z     vdW  Elec       q    Type
REMARK                         _______ _______ _______ _____ _____    ______ ____
ROOT
ATOM      2  O   UNL     1      -3.643  -0.971  23.332  0.00  0.00    -0.370 OA
ATOM      3  O   UNL     1      -2.257  -1.375  26.126  0.00  0.00    -0.370 OA
ATOM     15  C   UNL     1      -2.764  -0.228  25.420  0.00  0.00    +0.176 C 
ATOM     16  C   UNL     1      -2.462  -0.437  23.949  0.00  0.00    +0.171 C 
ATOM     17  C   UNL     1      -4.279  -0.201  25.501  0.00  0.00    +0.171 C 
ATOM     18  C   UNL     1      -1.354  -1.467  23.939  0.00  0.00    +0.130 C 
ATOM     19  C   UNL     1      -4.701  -1.035  24.298  0.00  0.00    +0.190 C 
ATOM     20  C   UNL     1      -1.653  -2.275  25.187  0.00  0.00    +0.185 C 
ENDROOT
BRANCH  17   9
ATOM      9  N   UNL     1      -4.815   1.162  25.531  0.00  0.00    -0.187 N 
ATOM     11  N   UNL     1      -5.987   1.425  26.118  0.00  0.00    -0.041 NA
ATOM     12  N   UNL     1      -5.101   3.290  25.274  0.00  0.00    -0.071 NA
ATOM     13  N   UNL     1      -6.157   2.732  25.959  0.00  0.00    -0.020 NA
ATOM     21  C   UNL     1      -4.281   2.296  25.020  0.00  0.00    +0.342 A 
BRANCH  21   4
ATOM      4  O   UNL     1      -3.130   2.367  24.377  0.00  0.00    -0.423 OA
BRANCH   4  24
ATOM     24  C   UNL     1      -2.026   3.032  24.893  0.00  0.00    +0.134 A 
ATOM     25  C   UNL     1      -0.098   3.041  26.310  0.00  0.00    +0.033 A 
ATOM     26  C   UNL     1      -1.207   2.374  25.791  0.00  0.00    +0.069 A 
ATOM     29  C   UNL     1      -1.779   4.331  24.496  0.00  0.00    +0.046 A 
ATOM     32  C   UNL     1       0.171   4.354  25.922  0.00  0.00    +0.023 A 
ATOM     33  C   UNL     1      -0.670   4.999  25.015  0.00  0.00    +0.005 A 
BRANCH  25  14
ATOM      6  O   UNL     1       1.969   2.893  29.681  0.00  0.00    -0.377 OA
ATOM     14  N   UNL     1       0.738   2.399  27.214  0.00  0.00    -0.325 N 
ATOM     27  C   UNL     1       2.178   2.655  27.280  0.00  0.00    +0.133 C 
ATOM     28  C   UNL     1       0.196   1.785  28.432  0.00  0.00    +0.133 C 
ATOM     30  C   UNL     1       2.462   3.529  28.496  0.00  0.00    +0.178 C 
ATOM     31  C   UNL     1       0.554   2.682  29.618  0.00  0.00    +0.178 C 
ENDBRANCH  25  14
ENDBRANCH   4  24
ENDBRANCH  21   4
ENDBRANCH  17   9
BRANCH  18  10
ATOM      5  O   UNL     1      -0.541   1.039  22.741  0.00  0.00    -0.275 OA
ATOM     10  N   UNL     1      -0.056  -0.841  24.019  0.00  0.00    -0.307 N 
ATOM     22  C   UNL     1       0.243   0.368  23.410  0.00  0.00    +0.223 C 
ATOM     36  H   UNL     1       0.687  -1.346  24.494  0.00  0.00    +0.149 HD
BRANCH  22  23
ATOM     23  C   UNL     1       1.674   0.801  23.627  0.00  0.00    +0.165 C 
BRANCH  23   1
ATOM      1  S   UNL     1       2.714   0.059  22.347  0.00  0.00    -0.140 S 
BRANCH   1  34
ATOM     34  C   UNL     1       4.295   0.794  22.823  0.00  0.00    +0.189 C 
BRANCH  34  35
ATOM      8  O   UNL     1       6.243  -0.021  23.983  0.00  0.00    -0.250 OA
ATOM     35  C   UNL     1       5.084  -0.196  23.630  0.00  0.00    +0.315 C 
BRANCH  35   7
ATOM      7  O   UNL     1       4.368  -1.305  23.944  0.00  0.00    -0.480 OA
ATOM     37  H   UNL     1       3.449  -1.085  24.205  0.00  0.00    +0.295 HD
ENDBRANCH  35   7
ENDBRANCH  34  35
ENDBRANCH   1  34
ENDBRANCH  23   1
ENDBRANCH  22  23
ENDBRANCH  18  10
TORSDOF 10
ENDMDL
MODEL 4
REMARK VINA RESULT:       2.1      2.178      5.447
REMARK  Name = 11879690
REMARK  10 active torsions:
REMARK  status: ('A' for Active; 'I' for Inactive)
REMARK    1  A    between atoms: S_1  and  C_23
REMARK    2  A    between atoms: S_1  and  C_34
REMARK    3  A    between atoms: O_4  and  C_21
REMARK    4  A    between atoms: O_4  and  C_24
REMARK    5  A    between atoms: O_7  and  C_35
REMARK    6  A    between atoms: N_9  and  C_17
REMARK    7  A    between atoms: N_10  and  C_18
REMARK    8  A    between atoms: N_14  and  C_25
REMARK    9  A    between atoms: C_22  and  C_23
REMARK   10  A    between atoms: C_34  and  C_35
REMARK                            x       y       z     vdW  Elec       q    Type
REMARK                         _______ _______ _______ _____ _____    ______ ____
ROOT
ATOM      2  O   UNL     1      -4.798   3.903  24.271  0.00  0.00    -0.370 OA
ATOM      3  O   UNL     1      -3.934   1.771  26.415  0.00  0.00    -0.370 OA
ATOM     15  C   UNL     1      -3.237   2.479  25.374  0.00  0.00    +0.176 C 
ATOM     16  C   UNL     1      -4.190   2.605  24.202  0.00  0.00    +0.171 C 
ATOM     17  C   UNL     1      -2.973   3.908  25.810  0.00  0.00    +0.171 C 
ATOM     18  C   UNL     1      -5.224   1.528  24.444  0.00  0.00    +0.130 C 
ATOM     19  C   UNL     1      -4.232   4.641  25.362  0.00  0.00    +0.190 C 
ATOM     20  C   UNL     1      -5.254   1.444  25.958  0.00  0.00    +0.185 C 
ENDROOT
BRANCH  17   9
ATOM      9  N   UNL     1      -1.719   4.439  25.267  0.00  0.00    -0.187 N 
ATOM     11  N   UNL     1      -1.612   5.725  24.922  0.00  0.00    -0.041 NA
ATOM     12  N   UNL     1       0.306   4.653  24.542  0.00  0.00    -0.071 NA
ATOM     13  N   UNL     1      -0.367   5.852  24.479  0.00  0.00    -0.020 NA
ATOM     21  C   UNL     1      -0.554   3.791  25.034  0.00  0.00    +0.342 A 
BRANCH  21   4
ATOM      4  O   UNL     1      -0.340   2.510  25.269  0.00  0.00    -0.423 OA
BRANCH   4  24
ATOM     24  C   UNL     1      -0.035   1.606  24.260  0.00  0.00    +0.134 A 
ATOM     25  C   UNL     1       1.598   0.436  22.960  0.00  0.00    +0.033 A 
ATOM     26  C   UNL     1       1.291   1.343  23.974  0.00  0.00    +0.069 A 
ATOM     29  C   UNL     1      -1.065   0.996  23.572  0.00  0.00    +0.046 A 
ATOM     32  C   UNL     1       0.573  -0.191  22.252  0.00  0.00    +0.023 A 
ATOM     33  C   UNL     1      -0.759   0.089  22.557  0.00  0.00    +0.005 A 
BRANCH  25  14
ATOM      6  O   UNL     1       5.326  -0.421  23.974  0.00  0.00    -0.377 OA
ATOM     14  N   UNL     1       2.924   0.159  22.655  0.00  0.00    -0.325 N 
ATOM     27  C   UNL     1       3.982   1.168  22.734  0.00  0.00    +0.133 C 
ATOM     28  C   UNL     1       3.426  -1.220  22.676  0.00  0.00    +0.133 C 
ATOM     30  C   UNL     1       4.803   0.913  23.993  0.00  0.00    +0.178 C 
ATOM     31  C   UNL     1       4.279  -1.397  23.933  0.00  0.00    +0.178 C 
ENDBRANCH  25  14
ENDBRANCH   4  24
ENDBRANCH  21   4
ENDBRANCH  17   9
BRANCH  18  10
ATOM      5  O   UNL     1      -4.265  -0.824  25.831  0.00  0.00    -0.275 OA
ATOM     10  N   UNL     1      -4.819   0.273  23.858  0.00  0.00    -0.307 N 
ATOM     22  C   UNL     1      -4.371  -0.806  24.606  0.00  0.00    +0.223 C 
ATOM     36  H   UNL     1      -4.805   0.203  22.844  0.00  0.00    +0.149 HD
BRANCH  22  23
ATOM     23  C   UNL     1      -3.991  -1.996  23.757  0.00  0.00    +0.165 C 
BRANCH  23   1
ATOM      1  S   UNL     1      -3.012  -3.142  24.757  0.00  0.00    -0.140 S 
BRANCH   1  34
ATOM     34  C   UNL     1      -1.364  -2.536  24.326  0.00  0.00    +0.189 C 
BRANCH  34  35
ATOM      8  O   UNL     1      -1.383  -1.027  26.204  0.00  0.00    -0.250 OA
ATOM     35  C   UNL     1      -0.769  -1.824  25.507  0.00  0.00    +0.315 C 
BRANCH  35   7
ATOM      7  O   UNL     1       0.523  -2.170  25.732  0.00  0.00    -0.480 OA
ATOM     37  H   UNL     1       1.143  -1.453  25.481  0.00  0.00    +0.295 HD
ENDBRANCH  35   7
ENDBRANCH  34  35
ENDBRANCH   1  34
ENDBRANCH  23   1
ENDBRANCH  22  23
ENDBRANCH  18  10
TORSDOF 10
ENDMDL
MODEL 5
REMARK VINA RESULT:       2.3      2.060      4.663
REMARK  Name = 11879690
REMARK  10 active torsions:
REMARK  status: ('A' for Active; 'I' for Inactive)
REMARK    1  A    between atoms: S_1  and  C_23
REMARK    2  A    between atoms: S_1  and  C_34
REMARK    3  A    between atoms: O_4  and  C_21
REMARK    4  A    between atoms: O_4  and  C_24
REMARK    5  A    between atoms: O_7  and  C_35
REMARK    6  A    between atoms: N_9  and  C_17
REMARK    7  A    between atoms: N_10  and  C_18
REMARK    8  A    between atoms: N_14  and  C_25
REMARK    9  A    between atoms: C_22  and  C_23
REMARK   10  A    between atoms: C_34  and  C_35
REMARK                            x       y       z     vdW  Elec       q    Type
REMARK                         _______ _______ _______ _____ _____    ______ ____
ROOT
ATOM      2  O   UNL     1      -0.537   0.661  26.095  0.00  0.00    -0.370 OA
ATOM      3  O   UNL     1      -1.004   2.187  23.385  0.00  0.00    -0.370 OA
ATOM     15  C   UNL     1      -1.105   0.808  23.785  0.00  0.00    +0.176 C 
ATOM     16  C   UNL     1       0.013   0.545  24.774  0.00  0.00    +0.171 C 
ATOM     17  C   UNL     1      -2.380   0.593  24.579  0.00  0.00    +0.171 C 
ATOM     18  C   UNL     1       1.006   1.656  24.520  0.00  0.00    +0.130 C 
ATOM     19  C   UNL     1      -1.948   0.898  26.008  0.00  0.00    +0.190 C 
ATOM     20  C   UNL     1       0.110   2.790  24.058  0.00  0.00    +0.185 C 
ENDROOT
BRANCH  17   9
ATOM      9  N   UNL     1      -2.952  -0.740  24.374  0.00  0.00    -0.187 N 
ATOM     11  N   UNL     1      -2.193  -1.834  24.474  0.00  0.00    -0.041 NA
ATOM     12  N   UNL     1      -4.296  -2.387  23.980  0.00  0.00    -0.071 NA
ATOM     13  N   UNL     1      -3.021  -2.843  24.232  0.00  0.00    -0.020 NA
ATOM     21  C   UNL     1      -4.228  -1.079  24.075  0.00  0.00    +0.342 A 
BRANCH  21   4
ATOM      4  O   UNL     1      -5.219  -0.223  23.908  0.00  0.00    -0.423 OA
BRANCH   4  24
ATOM     24  C   UNL     1      -5.466   0.817  24.795  0.00  0.00    +0.134 A 
ATOM     25  C   UNL     1      -5.018   3.046  25.537  0.00  0.00    +0.033 A 
ATOM     26  C   UNL     1      -4.772   2.002  24.646  0.00  0.00    +0.069 A 
ATOM     29  C   UNL     1      -6.397   0.636  25.799  0.00  0.00    +0.046 A 
ATOM     32  C   UNL     1      -5.954   2.886  26.558  0.00  0.00    +0.023 A 
ATOM     33  C   UNL     1      -6.643   1.680  26.690  0.00  0.00    +0.005 A 
BRANCH  25  14
ATOM      6  O   UNL     1      -1.796   5.165  24.648  0.00  0.00    -0.377 OA
ATOM     14  N   UNL     1      -4.331   4.246  25.407  0.00  0.00    -0.325 N 
ATOM     27  C   UNL     1      -3.391   4.733  26.420  0.00  0.00    +0.133 C 
ATOM     28  C   UNL     1      -4.149   4.868  24.091  0.00  0.00    +0.133 C 
ATOM     30  C   UNL     1      -1.971   4.511  25.911  0.00  0.00    +0.178 C 
ATOM     31  C   UNL     1      -2.697   4.653  23.660  0.00  0.00    +0.178 C 
ENDBRANCH  25  14
ENDBRANCH   4  24
ENDBRANCH  21   4
ENDBRANCH  17   9
BRANCH  18  10
ATOM      5  O   UNL     1       0.972  -0.726  22.877  0.00  0.00    -0.275 OA
ATOM     10  N   UNL     1       1.953   1.288  23.495  0.00  0.00    -0.307 N 
ATOM     22  C   UNL     1       1.856   0.120  22.754  0.00  0.00    +0.223 C 
ATOM     36  H   UNL     1       2.763   1.887  23.359  0.00  0.00    +0.149 HD
BRANCH  22  23
ATOM     23  C   UNL     1       2.980  -0.044  21.758  0.00  0.00    +0.165 C 
BRANCH  23   1
ATOM      1  S   UNL     1       4.308   1.111  22.176  0.00  0.00    -0.140 S 
BRANCH   1  34
ATOM     34  C   UNL     1       5.541  -0.086  22.737  0.00  0.00    +0.189 C 
BRANCH  34  35
ATOM      8  O   UNL     1       5.417   0.298  25.112  0.00  0.00    -0.250 OA
ATOM     35  C   UNL     1       5.261  -0.460  24.164  0.00  0.00    +0.315 C 
BRANCH  35   7
ATOM      7  O   UNL     1       4.798  -1.729  24.292  0.00  0.00    -0.480 OA
ATOM     37  H   UNL     1       5.515  -2.391  24.192  0.00  0.00    +0.295 HD
ENDBRANCH  35   7
ENDBRANCH  34  35
ENDBRANCH   1  34
ENDBRANCH  23   1
ENDBRANCH  22  23
ENDBRANCH  18  10
TORSDOF 10
ENDMDL
MODEL 6
REMARK VINA RESULT:       3.3      2.332      5.755
REMARK  Name = 11879690
REMARK  10 active torsions:
REMARK  status: ('A' for Active; 'I' for Inactive)
REMARK    1  A    between atoms: S_1  and  C_23
REMARK    2  A    between atoms: S_1  and  C_34
REMARK    3  A    between atoms: O_4  and  C_21
REMARK    4  A    between atoms: O_4  and  C_24
REMARK    5  A    between atoms: O_7  and  C_35
REMARK    6  A    between atoms: N_9  and  C_17
REMARK    7  A    between atoms: N_10  and  C_18
REMARK    8  A    between atoms: N_14  and  C_25
REMARK    9  A    between atoms: C_22  and  C_23
REMARK   10  A    between atoms: C_34  and  C_35
REMARK                            x       y       z     vdW  Elec       q    Type
REMARK                         _______ _______ _______ _____ _____    ______ ____
ROOT
ATOM      2  O   UNL     1      -4.964   0.873  25.154  0.00  0.00    -0.370 OA
ATOM      3  O   UNL     1      -3.479   1.640  22.491  0.00  0.00    -0.370 OA
ATOM     15  C   UNL     1      -3.077   0.976  23.702  0.00  0.00    +0.176 C 
ATOM     16  C   UNL     1      -3.801   1.656  24.847  0.00  0.00    +0.171 C 
ATOM     17  C   UNL     1      -3.599  -0.448  23.708  0.00  0.00    +0.171 C 
ATOM     18  C   UNL     1      -4.207   3.001  24.286  0.00  0.00    +0.130 C 
ATOM     19  C   UNL     1      -4.981  -0.303  24.335  0.00  0.00    +0.190 C 
ATOM     20  C   UNL     1      -4.399   2.692  22.814  0.00  0.00    +0.185 C 
ENDROOT
BRANCH  17   9
ATOM      9  N   UNL     1      -2.698  -1.374  24.400  0.00  0.00    -0.187 N 
ATOM     11  N   UNL     1      -3.137  -2.557  24.840  0.00  0.00    -0.041 NA
ATOM     12  N   UNL     1      -0.975  -2.299  25.321  0.00  0.00    -0.071 NA
ATOM     13  N   UNL     1      -2.076  -3.121  25.404  0.00  0.00    -0.020 NA
ATOM     21  C   UNL     1      -1.385  -1.221  24.693  0.00  0.00    +0.342 A 
BRANCH  21   4
ATOM      4  O   UNL     1      -0.661  -0.160  24.391  0.00  0.00    -0.423 OA
BRANCH   4  24
ATOM     24  C   UNL     1       0.350  -0.191  23.440  0.00  0.00    +0.134 A 
ATOM     25  C   UNL     1       2.634   0.194  22.843  0.00  0.00    +0.033 A 
ATOM     26  C   UNL     1       1.619   0.224  23.798  0.00  0.00    +0.069 A 
ATOM     29  C   UNL     1       0.058  -0.635  22.166  0.00  0.00    +0.046 A 
ATOM     32  C   UNL     1       2.362  -0.252  21.549  0.00  0.00    +0.023 A 
ATOM     33  C   UNL     1       1.074  -0.665  21.210  0.00  0.00    +0.005 A 
BRANCH  25  14
ATOM      6  O   UNL     1       6.484  -0.473  23.473  0.00  0.00    -0.377 OA
ATOM     14  N   UNL     1       3.916   0.607  23.180  0.00  0.00    -0.325 N 
ATOM     27  C   UNL     1       4.485   0.413  24.515  0.00  0.00    +0.133 C 
ATOM     28  C   UNL     1       4.926   0.843  22.141  0.00  0.00    +0.133 C 
ATOM     30  C   UNL     1       5.478  -0.742  24.457  0.00  0.00    +0.178 C 
ATOM     31  C   UNL     1       5.916  -0.322  22.166  0.00  0.00    +0.178 C 
ENDBRANCH  25  14
ENDBRANCH   4  24
ENDBRANCH  21   4
ENDBRANCH  17   9
BRANCH  18  10
ATOM      5  O   UNL     1      -3.039   3.837  26.799  0.00  0.00    -0.275 OA
ATOM     10  N   UNL     1      -3.170   3.985  24.483  0.00  0.00    -0.307 N 
ATOM     22  C   UNL     1      -2.668   4.322  25.732  0.00  0.00    +0.223 C 
ATOM     36  H   UNL     1      -2.838   4.496  23.669  0.00  0.00    +0.149 HD
BRANCH  22  23
ATOM     23  C   UNL     1      -1.603   5.391  25.672  0.00  0.00    +0.165 C 
BRANCH  23   1
ATOM      1  S   UNL     1      -0.307   4.865  24.524  0.00  0.00    -0.140 S 
BRANCH   1  34
ATOM     34  C   UNL     1      -0.514   3.076  24.685  0.00  0.00    +0.189 C 
BRANCH  34  35
ATOM      8  O   UNL     1       1.022   3.136  26.540  0.00  0.00    -0.250 OA
ATOM     35  C   UNL     1       0.049   2.624  26.002  0.00  0.00    +0.315 C 
BRANCH  35   7
ATOM      7  O   UNL     1      -0.648   1.594  26.544  0.00  0.00    -0.480 OA
ATOM     37  H   UNL     1      -1.584   1.833  26.710  0.00  0.00    +0.295 HD
ENDBRANCH  35   7
ENDBRANCH  34  35
ENDBRANCH   1  34
ENDBRANCH  23   1
ENDBRANCH  22  23
ENDBRANCH  18  10
TORSDOF 10
ENDMDL
MODEL 7
REMARK VINA RESULT:       3.5      1.711      2.382
REMARK  Name = 11879690
REMARK  10 active torsions:
REMARK  status: ('A' for Active; 'I' for Inactive)
REMARK    1  A    between atoms: S_1  and  C_23
REMARK    2  A    between atoms: S_1  and  C_34
REMARK    3  A    between atoms: O_4  and  C_21
REMARK    4  A    between atoms: O_4  and  C_24
REMARK    5  A    between atoms: O_7  and  C_35
REMARK    6  A    between atoms: N_9  and  C_17
REMARK    7  A    between atoms: N_10  and  C_18
REMARK    8  A    between atoms: N_14  and  C_25
REMARK    9  A    between atoms: C_22  and  C_23
REMARK   10  A    between atoms: C_34  and  C_35
REMARK                            x       y       z     vdW  Elec       q    Type
REMARK                         _______ _______ _______ _____ _____    ______ ____
ROOT
ATOM      2  O   UNL     1      -1.705   3.306  26.594  0.00  0.00    -0.370 OA
ATOM      3  O   UNL     1      -1.893   3.625  23.471  0.00  0.00    -0.370 OA
ATOM     15  C   UNL     1      -2.609   2.837  24.439  0.00  0.00    +0.176 C 
ATOM     16  C   UNL     1      -1.607   2.397  25.488  0.00  0.00    +0.171 C 
ATOM     17  C   UNL     1      -3.594   3.712  25.191  0.00  0.00    +0.171 C 
ATOM     18  C   UNL     1      -0.265   2.542  24.806  0.00  0.00    +0.130 C 
ATOM     19  C   UNL     1      -2.761   4.245  26.351  0.00  0.00    +0.190 C 
ATOM     20  C   UNL     1      -0.512   3.693  23.850  0.00  0.00    +0.185 C 
ENDROOT
BRANCH  17   9
ATOM      9  N   UNL     1      -4.808   2.989  25.578  0.00  0.00    -0.187 N 
ATOM     11  N   UNL     1      -5.566   3.416  26.592  0.00  0.00    -0.041 NA
ATOM     12  N   UNL     1      -6.429   1.565  25.698  0.00  0.00    -0.071 NA
ATOM     13  N   UNL     1      -6.561   2.540  26.661  0.00  0.00    -0.020 NA
ATOM     21  C   UNL     1      -5.335   1.865  25.038  0.00  0.00    +0.342 A 
BRANCH  21   4
ATOM      4  O   UNL     1      -4.818   1.199  24.022  0.00  0.00    -0.423 OA
BRANCH   4  24
ATOM     24  C   UNL     1      -4.487  -0.147  24.102  0.00  0.00    +0.134 A 
ATOM     25  C   UNL     1      -3.092  -1.882  24.976  0.00  0.00    +0.033 A 
ATOM     26  C   UNL     1      -3.424  -0.530  24.897  0.00  0.00    +0.069 A 
ATOM     29  C   UNL     1      -5.230  -1.063  23.384  0.00  0.00    +0.046 A 
ATOM     32  C   UNL     1      -3.829  -2.825  24.260  0.00  0.00    +0.023 A 
ATOM     33  C   UNL     1      -4.898  -2.416  23.463  0.00  0.00    +0.005 A 
BRANCH  25  14
ATOM      6  O   UNL     1       0.700  -1.737  26.101  0.00  0.00    -0.377 OA
ATOM     14  N   UNL     1      -2.026  -2.289  25.768  0.00  0.00    -0.325 N 
ATOM     27  C   UNL     1      -1.019  -3.248  25.308  0.00  0.00    +0.133 C 
ATOM     28  C   UNL     1      -1.584  -1.477  26.908  0.00  0.00    +0.133 C 
ATOM     30  C   UNL     1       0.256  -2.485  24.964  0.00  0.00    +0.178 C 
ATOM     31  C   UNL     1      -0.281  -0.779  26.517  0.00  0.00    +0.178 C 
ENDBRANCH  25  14
ENDBRANCH   4  24
ENDBRANCH  21   4
ENDBRANCH  17   9
BRANCH  18  10
ATOM      5  O   UNL     1       2.271   1.940  23.548  0.00  0.00    -0.275 OA
ATOM     10  N   UNL     1       0.094   1.339  24.095  0.00  0.00    -0.307 N 
ATOM     22  C   UNL     1       1.341   1.137  23.522  0.00  0.00    +0.223 C 
ATOM     36  H   UNL     1      -0.626   0.635  23.958  0.00  0.00    +0.149 HD
BRANCH  22  23
ATOM     23  C   UNL     1       1.460  -0.195  22.820  0.00  0.00    +0.165 C 
BRANCH  23   1
ATOM      1  S   UNL     1       3.120  -0.343  22.117  0.00  0.00    -0.140 S 
BRANCH   1  34
ATOM     34  C   UNL     1       3.919  -1.203  23.493  0.00  0.00    +0.189 C 
BRANCH  34  35
ATOM      8  O   UNL     1       5.995  -0.817  24.654  0.00  0.00    -0.250 OA
ATOM     35  C   UNL     1       5.054  -0.368  24.012  0.00  0.00    +0.315 C 
BRANCH  35   7
ATOM      7  O   UNL     1       4.937   0.942  23.679  0.00  0.00    -0.480 OA
ATOM     37  H   UNL     1       4.622   1.058  22.758  0.00  0.00    +0.295 HD
ENDBRANCH  35   7
ENDBRANCH  34  35
ENDBRANCH   1  34
ENDBRANCH  23   1
ENDBRANCH  22  23
ENDBRANCH  18  10
TORSDOF 10
ENDMDL
MODEL 8
REMARK VINA RESULT:       5.0      2.523      5.590
REMARK  Name = 11879690
REMARK  10 active torsions:
REMARK  status: ('A' for Active; 'I' for Inactive)
REMARK    1  A    between atoms: S_1  and  C_23
REMARK    2  A    between atoms: S_1  and  C_34
REMARK    3  A    between atoms: O_4  and  C_21
REMARK    4  A    between atoms: O_4  and  C_24
REMARK    5  A    between atoms: O_7  and  C_35
REMARK    6  A    between atoms: N_9  and  C_17
REMARK    7  A    between atoms: N_10  and  C_18
REMARK    8  A    between atoms: N_14  and  C_25
REMARK    9  A    between atoms: C_22  and  C_23
REMARK   10  A    between atoms: C_34  and  C_35
REMARK                            x       y       z     vdW  Elec       q    Type
REMARK                         _______ _______ _______ _____ _____    ______ ____
ROOT
ATOM      2  O   UNL     1       0.013   1.203  23.851  0.00  0.00    -0.370 OA
ATOM      3  O   UNL     1       0.628  -1.035  21.729  0.00  0.00    -0.370 OA
ATOM     15  C   UNL     1       0.165  -1.051  23.091  0.00  0.00    +0.176 C 
ATOM     16  C   UNL     1       0.886   0.064  23.823  0.00  0.00    +0.171 C 
ATOM     17  C   UNL     1      -1.300  -0.661  23.142  0.00  0.00    +0.171 C 
ATOM     18  C   UNL     1       2.098   0.352  22.965  0.00  0.00    +0.130 C 
ATOM     19  C   UNL     1      -1.246   0.858  23.258  0.00  0.00    +0.190 C 
ATOM     20  C   UNL     1       1.596   0.013  21.574  0.00  0.00    +0.185 C 
ENDROOT
BRANCH  17   9
ATOM      9  N   UNL     1      -2.025  -1.339  24.219  0.00  0.00    -0.187 N 
ATOM     11  N   UNL     1      -1.424  -2.264  24.974  0.00  0.00    -0.041 NA
ATOM     12  N   UNL     1      -3.541  -1.990  25.616  0.00  0.00    -0.071 NA
ATOM     13  N   UNL     1      -2.358  -2.659  25.830  0.00  0.00    -0.020 NA
ATOM     21  C   UNL     1      -3.310  -1.176  24.612  0.00  0.00    +0.342 A 
BRANCH  21   4
ATOM      4  O   UNL     1      -4.168  -0.336  24.063  0.00  0.00    -0.423 OA
BRANCH   4  24
ATOM     24  C   UNL     1      -4.462   0.902  24.619  0.00  0.00    +0.134 A 
ATOM     25  C   UNL     1      -3.719   2.954  25.598  0.00  0.00    +0.033 A 
ATOM     26  C   UNL     1      -3.424   1.712  25.039  0.00  0.00    +0.069 A 
ATOM     29  C   UNL     1      -5.783   1.287  24.737  0.00  0.00    +0.046 A 
ATOM     32  C   UNL     1      -5.046   3.364  25.726  0.00  0.00    +0.023 A 
ATOM     33  C   UNL     1      -6.079   2.531  25.296  0.00  0.00    +0.005 A 
BRANCH  25  14
ATOM      6  O   UNL     1      -0.644   5.357  24.945  0.00  0.00    -0.377 OA
ATOM     14  N   UNL     1      -2.692   3.783  26.029  0.00  0.00    -0.325 N 
ATOM     27  C   UNL     1      -1.299   3.339  26.113  0.00  0.00    +0.133 C 
ATOM     28  C   UNL     1      -2.840   5.243  25.993  0.00  0.00    +0.133 C 
ATOM     30  C   UNL     1      -0.529   3.929  24.937  0.00  0.00    +0.178 C 
ATOM     31  C   UNL     1      -2.008   5.777  24.826  0.00  0.00    +0.178 C 
ENDBRANCH  25  14
ENDBRANCH   4  24
ENDBRANCH  21   4
ENDBRANCH  17   9
BRANCH  18  10
ATOM      5  O   UNL     1       4.825   1.185  23.461  0.00  0.00    -0.275 OA
ATOM     10  N   UNL     1       3.213  -0.485  23.336  0.00  0.00    -0.307 N 
ATOM     22  C   UNL     1       4.492   0.005  23.556  0.00  0.00    +0.223 C 
ATOM     36  H   UNL     1       3.061  -1.489  23.377  0.00  0.00    +0.149 HD
BRANCH  22  23
ATOM     23  C   UNL     1       5.485  -1.075  23.915  0.00  0.00    +0.165 C 
BRANCH  23   1
ATOM      1  S   UNL     1       6.900  -0.969  22.793  0.00  0.00    -0.140 S 
BRANCH   1  34
ATOM     34  C   UNL     1       7.848   0.294  23.673  0.00  0.00    +0.189 C 
BRANCH  34  35
ATOM      8  O   UNL     1       9.790  -0.120  22.309  0.00  0.00    -0.250 OA
ATOM     35  C   UNL     1       9.313   0.088  23.417  0.00  0.00    +0.315 C 
BRANCH  35   7
ATOM      7  O   UNL     1      10.060   0.172  24.546  0.00  0.00    -0.480 OA
ATOM     37  H   UNL     1      10.913   0.629  24.387  0.00  0.00    +0.295 HD
ENDBRANCH  35   7
ENDBRANCH  34  35
ENDBRANCH   1  34
ENDBRANCH  23   1
ENDBRANCH  22  23
ENDBRANCH  18  10
TORSDOF 10
ENDMDL
