MODEL 1
REMARK VINA RESULT:      -0.8      0.000      0.000
REMARK  Name = 26743120
REMARK  13 active torsions:
REMARK  status: ('A' for Active; 'I' for Inactive)
REMARK    1  A    between atoms: S_1  and  C_21
REMARK    2  A    between atoms: S_1  and  C_28
REMARK    3  A    between atoms: O_4  and  C_25
REMARK    4  A    between atoms: O_4  and  C_33
REMARK    5  A    between atoms: O_5  and  C_27
REMARK    6  A    between atoms: O_5  and  C_34
REMARK    7  A    between atoms: N_7  and  C_20
REMARK    8  A    between atoms: C_9  and  C_15
REMARK    9  A    between atoms: C_10  and  C_14
REMARK   10  A    between atoms: C_14  and  C_16
REMARK   11  A    between atoms: C_15  and  C_17
REMARK   12  A    between atoms: C_19  and  C_21
REMARK   13  A    between atoms: C_20  and  C_22
REMARK                            x       y       z     vdW  Elec       q    Type
REMARK                         _______ _______ _______ _____ _____    ______ ____
ROOT
ATOM      6  N   UNL     1      -0.722   4.946  24.975  0.00  0.00    -0.316 NA
ATOM      9  C   UNL     1      -3.570   4.476  25.473  0.00  0.00    +0.004 C 
ATOM     10  C   UNL     1      -2.570   3.306  25.314  0.00  0.00    +0.012 C 
ATOM     11  C   UNL     1      -3.060   5.737  24.758  0.00  0.00    +0.019 C 
ATOM     12  C   UNL     1      -1.164   3.773  25.732  0.00  0.00    +0.085 C 
ATOM     13  C   UNL     1      -1.629   6.075  25.174  0.00  0.00    +0.081 C 
ATOM     36  H   UNL     1      -0.670   4.722  23.983  0.00  0.00    +0.122 HD
ENDROOT
BRANCH  10  14
ATOM     14  C   UNL     1      -2.545   2.699  23.905  0.00  0.00    +0.064 C 
BRANCH  14  16
ATOM      3  O   UNL     1       0.795   1.364  23.765  0.00  0.00    -0.359 OA
ATOM      8  N   UNL     1      -0.127   2.334  24.139  0.00  0.00    -0.083 NA
ATOM     16  C   UNL     1      -1.300   1.892  23.678  0.00  0.00    +0.084 A 
ATOM     18  C   UNL     1      -1.181   0.661  23.011  0.00  0.00    +0.071 A 
ATOM     19  C   UNL     1       0.156   0.373  23.093  0.00  0.00    +0.148 A 
BRANCH  19  21
ATOM     21  C   UNL     1       0.986  -0.742  22.622  0.00  0.00    +0.151 C 
BRANCH  21   1
ATOM      1  S   UNL     1       2.359  -0.209  21.540  0.00  0.00    -0.117 S 
BRANCH   1  28
ATOM     28  C   UNL     1       3.729  -0.238  22.688  0.00  0.00    +0.008 A 
ATOM     29  C   UNL     1       4.031  -1.409  23.384  0.00  0.00    +0.015 A 
ATOM     30  C   UNL     1       4.495   0.910  22.889  0.00  0.00    +0.015 A 
ATOM     31  C   UNL     1       5.100  -1.430  24.281  0.00  0.00    +0.001 A 
ATOM     32  C   UNL     1       5.563   0.889  23.784  0.00  0.00    +0.001 A 
ATOM     35  C   UNL     1       5.866  -0.281  24.481  0.00  0.00    +0.000 A 
ENDBRANCH   1  28
ENDBRANCH  21   1
ENDBRANCH  19  21
ENDBRANCH  14  16
ENDBRANCH  10  14
BRANCH   9  15
ATOM     15  C   UNL     1      -4.987   4.131  25.022  0.00  0.00    +0.099 C 
BRANCH  15  17
ATOM      2  O   UNL     1      -5.848   2.615  26.699  0.00  0.00    -0.276 OA
ATOM      7  N   UNL     1      -5.350   1.805  24.579  0.00  0.00    -0.311 N 
ATOM     17  C   UNL     1      -5.446   2.789  25.552  0.00  0.00    +0.214 C 
ATOM     37  H   UNL     1      -4.997   2.046  23.657  0.00  0.00    +0.149 HD
BRANCH   7  20
ATOM     20  C   UNL     1      -5.719   0.428  24.809  0.00  0.00    +0.139 C 
BRANCH  20  22
ATOM     22  C   UNL     1      -4.523  -0.480  24.821  0.00  0.00    -0.027 A 
ATOM     23  C   UNL     1      -3.495  -0.266  25.740  0.00  0.00    +0.054 A 
ATOM     24  C   UNL     1      -4.441  -1.537  23.916  0.00  0.00    +0.009 A 
ATOM     25  C   UNL     1      -2.385  -1.111  25.753  0.00  0.00    +0.162 A 
ATOM     26  C   UNL     1      -3.330  -2.382  23.929  0.00  0.00    +0.050 A 
ATOM     27  C   UNL     1      -2.303  -2.168  24.848  0.00  0.00    +0.162 A 
BRANCH  25   4
ATOM      4  O   UNL     1      -1.388  -0.892  26.656  0.00  0.00    -0.491 OA
ATOM     33  C   UNL     1      -0.820   0.415  26.691  0.00  0.00    +0.277 C 
ENDBRANCH  25   4
BRANCH  27   5
ATOM      5  O   UNL     1      -1.223  -3.000  24.851  0.00  0.00    -0.491 OA
ATOM     34  C   UNL     1       0.022  -2.444  25.267  0.00  0.00    +0.277 C 
ENDBRANCH  27   5
ENDBRANCH  20  22
ENDBRANCH   7  20
ENDBRANCH  15  17
ENDBRANCH   9  15
TORSDOF 11
ENDMDL
MODEL 2
REMARK VINA RESULT:      -0.3      0.627      1.815
REMARK  Name = 26743120
REMARK  13 active torsions:
REMARK  status: ('A' for Active; 'I' for Inactive)
REMARK    1  A    between atoms: S_1  and  C_21
REMARK    2  A    between atoms: S_1  and  C_28
REMARK    3  A    between atoms: O_4  and  C_25
REMARK    4  A    between atoms: O_4  and  C_33
REMARK    5  A    between atoms: O_5  and  C_27
REMARK    6  A    between atoms: O_5  and  C_34
REMARK    7  A    between atoms: N_7  and  C_20
REMARK    8  A    between atoms: C_9  and  C_15
REMARK    9  A    between atoms: C_10  and  C_14
REMARK   10  A    between atoms: C_14  and  C_16
REMARK   11  A    between atoms: C_15  and  C_17
REMARK   12  A    between atoms: C_19  and  C_21
REMARK   13  A    between atoms: C_20  and  C_22
REMARK                            x       y       z     vdW  Elec       q    Type
REMARK                         _______ _______ _______ _____ _____    ______ ____
ROOT
ATOM      6  N   UNL     1      -0.595   5.007  24.905  0.00  0.00    -0.316 NA
ATOM      9  C   UNL     1      -3.452   4.675  25.461  0.00  0.00    +0.004 C 
ATOM     10  C   UNL     1      -2.494   3.462  25.382  0.00  0.00    +0.012 C 
ATOM     11  C   UNL     1      -2.908   5.860  24.648  0.00  0.00    +0.019 C 
ATOM     12  C   UNL     1      -1.068   3.911  25.752  0.00  0.00    +0.085 C 
ATOM     13  C   UNL     1      -1.462   6.179  25.026  0.00  0.00    +0.081 C 
ATOM     36  H   UNL     1      -0.562   4.708  23.932  0.00  0.00    +0.122 HD
ENDROOT
BRANCH  10  14
ATOM     14  C   UNL     1      -2.504   2.751  24.022  0.00  0.00    +0.064 C 
BRANCH  14  16
ATOM      3  O   UNL     1       0.594   0.943  24.314  0.00  0.00    -0.359 OA
ATOM      8  N   UNL     1      -0.300   1.925  24.723  0.00  0.00    -0.083 NA
ATOM     16  C   UNL     1      -1.329   1.829  23.877  0.00  0.00    +0.084 A 
ATOM     18  C   UNL     1      -1.143   0.814  22.923  0.00  0.00    +0.071 A 
ATOM     19  C   UNL     1       0.081   0.288  23.241  0.00  0.00    +0.148 A 
BRANCH  19  21
ATOM     21  C   UNL     1       0.902  -0.790  22.677  0.00  0.00    +0.151 C 
BRANCH  21   1
ATOM      1  S   UNL     1       2.229  -0.184  21.576  0.00  0.00    -0.117 S 
BRANCH   1  28
ATOM     28  C   UNL     1       3.632  -0.214  22.684  0.00  0.00    +0.008 A 
ATOM     29  C   UNL     1       4.397   0.937  22.871  0.00  0.00    +0.015 A 
ATOM     30  C   UNL     1       3.960  -1.388  23.361  0.00  0.00    +0.015 A 
ATOM     31  C   UNL     1       5.492   0.913  23.735  0.00  0.00    +0.001 A 
ATOM     32  C   UNL     1       5.054  -1.412  24.226  0.00  0.00    +0.001 A 
ATOM     35  C   UNL     1       5.820  -0.262  24.413  0.00  0.00    +0.000 A 
ENDBRANCH   1  28
ENDBRANCH  21   1
ENDBRANCH  19  21
ENDBRANCH  14  16
ENDBRANCH  10  14
BRANCH   9  15
ATOM     15  C   UNL     1      -4.885   4.346  25.048  0.00  0.00    +0.099 C 
BRANCH  15  17
ATOM      2  O   UNL     1      -5.810   2.930  26.779  0.00  0.00    -0.276 OA
ATOM      7  N   UNL     1      -5.234   1.998  24.729  0.00  0.00    -0.311 N 
ATOM     17  C   UNL     1      -5.365   3.038  25.639  0.00  0.00    +0.214 C 
ATOM     37  H   UNL     1      -4.846   2.185  23.809  0.00  0.00    +0.149 HD
BRANCH   7  20
ATOM     20  C   UNL     1      -5.613   0.636  25.027  0.00  0.00    +0.139 C 
BRANCH  20  22
ATOM     22  C   UNL     1      -4.427  -0.284  25.053  0.00  0.00    -0.027 A 
ATOM     23  C   UNL     1      -4.400  -1.410  24.230  0.00  0.00    +0.054 A 
ATOM     24  C   UNL     1      -3.351  -0.011  25.896  0.00  0.00    +0.009 A 
ATOM     25  C   UNL     1      -3.297  -2.264  24.252  0.00  0.00    +0.162 A 
ATOM     26  C   UNL     1      -2.248  -0.865  25.918  0.00  0.00    +0.050 A 
ATOM     27  C   UNL     1      -2.221  -1.991  25.096  0.00  0.00    +0.162 A 
BRANCH  25   4
ATOM      4  O   UNL     1      -3.283  -3.360  23.443  0.00  0.00    -0.491 OA
ATOM     33  C   UNL     1      -4.533  -3.785  22.905  0.00  0.00    +0.277 C 
ENDBRANCH  25   4
BRANCH  27   5
ATOM      5  O   UNL     1      -1.138  -2.818  25.127  0.00  0.00    -0.491 OA
ATOM     34  C   UNL     1       0.047  -2.310  25.736  0.00  0.00    +0.277 C 
ENDBRANCH  27   5
ENDBRANCH  20  22
ENDBRANCH   7  20
ENDBRANCH  15  17
ENDBRANCH   9  15
TORSDOF 11
ENDMDL
MODEL 3
REMARK VINA RESULT:      -0.1      0.982      1.312
REMARK  Name = 26743120
REMARK  13 active torsions:
REMARK  status: ('A' for Active; 'I' for Inactive)
REMARK    1  A    between atoms: S_1  and  C_21
REMARK    2  A    between atoms: S_1  and  C_28
REMARK    3  A    between atoms: O_4  and  C_25
REMARK    4  A    between atoms: O_4  and  C_33
REMARK    5  A    between atoms: O_5  and  C_27
REMARK    6  A    between atoms: O_5  and  C_34
REMARK    7  A    between atoms: N_7  and  C_20
REMARK    8  A    between atoms: C_9  and  C_15
REMARK    9  A    between atoms: C_10  and  C_14
REMARK   10  A    between atoms: C_14  and  C_16
REMARK   11  A    between atoms: C_15  and  C_17
REMARK   12  A    between atoms: C_19  and  C_21
REMARK   13  A    between atoms: C_20  and  C_22
REMARK                            x       y       z     vdW  Elec       q    Type
REMARK                         _______ _______ _______ _____ _____    ______ ____
ROOT
ATOM      6  N   UNL     1      -0.176   4.656  24.614  0.00  0.00    -0.316 NA
ATOM      9  C   UNL     1      -2.700   4.682  26.098  0.00  0.00    +0.004 C 
ATOM     10  C   UNL     1      -1.817   3.413  26.022  0.00  0.00    +0.012 C 
ATOM     11  C   UNL     1      -2.449   5.602  24.894  0.00  0.00    +0.019 C 
ATOM     12  C   UNL     1      -0.349   3.825  25.806  0.00  0.00    +0.085 C 
ATOM     13  C   UNL     1      -0.959   5.887  24.711  0.00  0.00    +0.081 C 
ATOM     36  H   UNL     1      -0.457   4.139  23.783  0.00  0.00    +0.122 HD
ENDROOT
BRANCH  10  14
ATOM     14  C   UNL     1      -2.264   2.411  24.949  0.00  0.00    +0.064 C 
BRANCH  14  16
ATOM      3  O   UNL     1       0.954   1.006  24.158  0.00  0.00    -0.359 OA
ATOM      8  N   UNL     1       0.132   1.874  24.865  0.00  0.00    -0.083 NA
ATOM     16  C   UNL     1      -1.098   1.640  24.401  0.00  0.00    +0.084 A 
ATOM     18  C   UNL     1      -1.114   0.645  23.408  0.00  0.00    +0.071 A 
ATOM     19  C   UNL     1       0.201   0.279  23.293  0.00  0.00    +0.148 A 
BRANCH  19  21
ATOM     21  C   UNL     1       0.915  -0.695  22.459  0.00  0.00    +0.151 C 
BRANCH  21   1
ATOM      1  S   UNL     1       2.297   0.040  21.516  0.00  0.00    -0.117 S 
BRANCH   1  28
ATOM     28  C   UNL     1       3.646  -0.165  22.670  0.00  0.00    +0.008 A 
ATOM     29  C   UNL     1       4.524   0.893  22.911  0.00  0.00    +0.015 A 
ATOM     30  C   UNL     1       3.821  -1.381  23.329  0.00  0.00    +0.015 A 
ATOM     31  C   UNL     1       5.577   0.732  23.812  0.00  0.00    +0.001 A 
ATOM     32  C   UNL     1       4.874  -1.542  24.230  0.00  0.00    +0.001 A 
ATOM     35  C   UNL     1       5.752  -0.485  24.471  0.00  0.00    +0.000 A 
ENDBRANCH   1  28
ENDBRANCH  21   1
ENDBRANCH  19  21
ENDBRANCH  14  16
ENDBRANCH  10  14
BRANCH   9  15
ATOM     15  C   UNL     1      -4.190   4.377  26.248  0.00  0.00    +0.099 C 
BRANCH  15  17
ATOM      2  O   UNL     1      -4.517   3.584  23.986  0.00  0.00    -0.276 OA
ATOM      7  N   UNL     1      -5.351   2.339  25.763  0.00  0.00    -0.311 N 
ATOM     17  C   UNL     1      -4.687   3.416  25.191  0.00  0.00    +0.214 C 
ATOM     37  H   UNL     1      -5.448   2.292  26.773  0.00  0.00    +0.149 HD
BRANCH   7  20
ATOM     20  C   UNL     1      -5.932   1.268  24.989  0.00  0.00    +0.139 C 
BRANCH  20  22
ATOM     22  C   UNL     1      -5.014   0.083  24.892  0.00  0.00    -0.027 A 
ATOM     23  C   UNL     1      -4.076  -0.155  25.896  0.00  0.00    +0.054 A 
ATOM     24  C   UNL     1      -5.101  -0.779  23.800  0.00  0.00    +0.009 A 
ATOM     25  C   UNL     1      -3.225  -1.257  25.808  0.00  0.00    +0.162 A 
ATOM     26  C   UNL     1      -4.250  -1.881  23.711  0.00  0.00    +0.050 A 
ATOM     27  C   UNL     1      -3.312  -2.120  24.716  0.00  0.00    +0.162 A 
BRANCH  25   4
ATOM      4  O   UNL     1      -2.314  -1.481  26.796  0.00  0.00    -0.491 OA
ATOM     33  C   UNL     1      -1.052  -0.829  26.674  0.00  0.00    +0.277 C 
ENDBRANCH  25   4
BRANCH  27   5
ATOM      5  O   UNL     1      -2.487  -3.199  24.618  0.00  0.00    -0.491 OA
ATOM     34  C   UNL     1      -1.253  -3.012  23.927  0.00  0.00    +0.277 C 
ENDBRANCH  27   5
ENDBRANCH  20  22
ENDBRANCH   7  20
ENDBRANCH  15  17
ENDBRANCH   9  15
TORSDOF 11
ENDMDL
MODEL 4
REMARK VINA RESULT:       2.3      1.644      3.140
REMARK  Name = 26743120
REMARK  13 active torsions:
REMARK  status: ('A' for Active; 'I' for Inactive)
REMARK    1  A    between atoms: S_1  and  C_21
REMARK    2  A    between atoms: S_1  and  C_28
REMARK    3  A    between atoms: O_4  and  C_25
REMARK    4  A    between atoms: O_4  and  C_33
REMARK    5  A    between atoms: O_5  and  C_27
REMARK    6  A    between atoms: O_5  and  C_34
REMARK    7  A    between atoms: N_7  and  C_20
REMARK    8  A    between atoms: C_9  and  C_15
REMARK    9  A    between atoms: C_10  and  C_14
REMARK   10  A    between atoms: C_14  and  C_16
REMARK   11  A    between atoms: C_15  and  C_17
REMARK   12  A    between atoms: C_19  and  C_21
REMARK   13  A    between atoms: C_20  and  C_22
REMARK                            x       y       z     vdW  Elec       q    Type
REMARK                         _______ _______ _______ _____ _____    ______ ____
ROOT
ATOM      6  N   UNL     1      -3.475   4.717  24.416  0.00  0.00    -0.316 NA
ATOM      9  C   UNL     1      -1.181   4.024  26.100  0.00  0.00    +0.004 C 
ATOM     10  C   UNL     1      -1.106   5.165  25.057  0.00  0.00    +0.012 C 
ATOM     11  C   UNL     1      -2.255   2.995  25.716  0.00  0.00    +0.019 C 
ATOM     12  C   UNL     1      -2.515   5.743  24.830  0.00  0.00    +0.085 C 
ATOM     13  C   UNL     1      -3.596   3.669  25.430  0.00  0.00    +0.081 C 
ATOM     36  H   UNL     1      -3.185   4.303  23.533  0.00  0.00    +0.122 HD
ENDROOT
BRANCH  10  14
ATOM     14  C   UNL     1      -0.469   4.746  23.725  0.00  0.00    +0.064 C 
BRANCH  14  16
ATOM      3  O   UNL     1      -1.326   1.291  23.191  0.00  0.00    -0.359 OA
ATOM      8  N   UNL     1      -1.653   2.638  23.296  0.00  0.00    -0.083 NA
ATOM     16  C   UNL     1      -0.497   3.256  23.549  0.00  0.00    +0.084 A 
ATOM     18  C   UNL     1       0.584   2.360  23.617  0.00  0.00    +0.071 A 
ATOM     19  C   UNL     1       0.009   1.138  23.384  0.00  0.00    +0.148 A 
BRANCH  19  21
ATOM     21  C   UNL     1       0.531  -0.231  23.308  0.00  0.00    +0.151 C 
BRANCH  21   1
ATOM      1  S   UNL     1       1.699  -0.481  21.925  0.00  0.00    -0.117 S 
BRANCH   1  28
ATOM     28  C   UNL     1       3.267  -0.322  22.770  0.00  0.00    +0.008 A 
ATOM     29  C   UNL     1       3.799  -1.411  23.460  0.00  0.00    +0.015 A 
ATOM     30  C   UNL     1       3.956   0.889  22.739  0.00  0.00    +0.015 A 
ATOM     31  C   UNL     1       5.023  -1.287  24.120  0.00  0.00    +0.001 A 
ATOM     32  C   UNL     1       5.179   1.014  23.397  0.00  0.00    +0.001 A 
ATOM     35  C   UNL     1       5.713  -0.074  24.088  0.00  0.00    +0.000 A 
ENDBRANCH   1  28
ENDBRANCH  21   1
ENDBRANCH  19  21
ENDBRANCH  14  16
ENDBRANCH  10  14
BRANCH   9  15
ATOM     15  C   UNL     1       0.162   3.340  26.350  0.00  0.00    +0.099 C 
BRANCH  15  17
ATOM      2  O   UNL     1       0.337   1.812  28.217  0.00  0.00    -0.276 OA
ATOM      7  N   UNL     1      -0.551   1.059  26.206  0.00  0.00    -0.311 N 
ATOM     17  C   UNL     1       0.006   2.008  27.050  0.00  0.00    +0.214 C 
ATOM     37  H   UNL     1      -0.785   1.315  25.251  0.00  0.00    +0.149 HD
BRANCH   7  20
ATOM     20  C   UNL     1      -0.812  -0.303  26.611  0.00  0.00    +0.139 C 
BRANCH  20  22
ATOM     22  C   UNL     1      -1.905  -0.932  25.796  0.00  0.00    -0.027 A 
ATOM     23  C   UNL     1      -3.060  -0.207  25.501  0.00  0.00    +0.054 A 
ATOM     24  C   UNL     1      -1.765  -2.238  25.331  0.00  0.00    +0.009 A 
ATOM     25  C   UNL     1      -4.074  -0.790  24.742  0.00  0.00    +0.162 A 
ATOM     26  C   UNL     1      -2.779  -2.822  24.572  0.00  0.00    +0.050 A 
ATOM     27  C   UNL     1      -3.934  -2.097  24.277  0.00  0.00    +0.162 A 
BRANCH  25   4
ATOM      4  O   UNL     1      -5.197  -0.071  24.460  0.00  0.00    -0.491 OA
ATOM     33  C   UNL     1      -5.422   1.109  25.229  0.00  0.00    +0.277 C 
ENDBRANCH  25   4
BRANCH  27   5
ATOM      5  O   UNL     1      -4.918  -2.677  23.534  0.00  0.00    -0.491 OA
ATOM     34  C   UNL     1      -4.560  -3.826  22.768  0.00  0.00    +0.277 C 
ENDBRANCH  27   5
ENDBRANCH  20  22
ENDBRANCH   7  20
ENDBRANCH  15  17
ENDBRANCH   9  15
TORSDOF 11
ENDMDL
MODEL 5
REMARK VINA RESULT:       2.6      1.904      4.412
REMARK  Name = 26743120
REMARK  13 active torsions:
REMARK  status: ('A' for Active; 'I' for Inactive)
REMARK    1  A    between atoms: S_1  and  C_21
REMARK    2  A    between atoms: S_1  and  C_28
REMARK    3  A    between atoms: O_4  and  C_25
REMARK    4  A    between atoms: O_4  and  C_33
REMARK    5  A    between atoms: O_5  and  C_27
REMARK    6  A    between atoms: O_5  and  C_34
REMARK    7  A    between atoms: N_7  and  C_20
REMARK    8  A    between atoms: C_9  and  C_15
REMARK    9  A    between atoms: C_10  and  C_14
REMARK   10  A    between atoms: C_14  and  C_16
REMARK   11  A    between atoms: C_15  and  C_17
REMARK   12  A    between atoms: C_19  and  C_21
REMARK   13  A    between atoms: C_20  and  C_22
REMARK                            x       y       z     vdW  Elec       q    Type
REMARK                         _______ _______ _______ _____ _____    ______ ____
ROOT
ATOM      6  N   UNL     1      -0.203  -1.372  25.897  0.00  0.00    -0.316 NA
ATOM      9  C   UNL     1      -3.052  -1.822  25.391  0.00  0.00    +0.004 C 
ATOM     10  C   UNL     1      -1.958  -2.565  24.587  0.00  0.00    +0.012 C 
ATOM     11  C   UNL     1      -2.520  -0.494  25.950  0.00  0.00    +0.019 C 
ATOM     12  C   UNL     1      -0.683  -2.679  25.442  0.00  0.00    +0.085 C 
ATOM     13  C   UNL     1      -1.210  -0.694  26.712  0.00  0.00    +0.081 C 
ATOM     36  H   UNL     1       0.036  -0.790  25.097  0.00  0.00    +0.122 HD
ENDROOT
BRANCH  10  14
ATOM     14  C   UNL     1      -1.646  -1.925  23.227  0.00  0.00    +0.064 C 
BRANCH  14  16
ATOM      3  O   UNL     1      -0.511   1.453  23.732  0.00  0.00    -0.359 OA
ATOM      8  N   UNL     1      -1.511   0.492  23.643  0.00  0.00    -0.083 NA
ATOM     16  C   UNL     1      -0.869  -0.651  23.388  0.00  0.00    +0.084 A 
ATOM     18  C   UNL     1       0.523  -0.475  23.304  0.00  0.00    +0.071 A 
ATOM     19  C   UNL     1       0.696   0.866  23.528  0.00  0.00    +0.148 A 
BRANCH  19  21
ATOM     21  C   UNL     1       1.871   1.743  23.587  0.00  0.00    +0.151 C 
BRANCH  21   1
ATOM      1  S   UNL     1       3.091   1.403  22.270  0.00  0.00    -0.117 S 
BRANCH   1  28
ATOM     28  C   UNL     1       4.194   0.274  23.108  0.00  0.00    +0.008 A 
ATOM     29  C   UNL     1       3.808  -1.051  23.319  0.00  0.00    +0.015 A 
ATOM     30  C   UNL     1       5.438   0.716  23.553  0.00  0.00    +0.015 A 
ATOM     31  C   UNL     1       4.669  -1.931  23.974  0.00  0.00    +0.001 A 
ATOM     32  C   UNL     1       6.300  -0.163  24.207  0.00  0.00    +0.001 A 
ATOM     35  C   UNL     1       5.915  -1.488  24.418  0.00  0.00    +0.000 A 
ENDBRANCH   1  28
ENDBRANCH  21   1
ENDBRANCH  19  21
ENDBRANCH  14  16
ENDBRANCH  10  14
BRANCH   9  15
ATOM     15  C   UNL     1      -4.342  -1.602  24.603  0.00  0.00    +0.099 C 
BRANCH  15  17
ATOM      2  O   UNL     1      -4.141   0.378  23.228  0.00  0.00    -0.276 OA
ATOM      7  N   UNL     1      -5.286   0.503  25.246  0.00  0.00    -0.311 N 
ATOM     17  C   UNL     1      -4.561  -0.145  24.257  0.00  0.00    +0.214 C 
ATOM     37  H   UNL     1      -5.584  -0.015  26.068  0.00  0.00    +0.149 HD
BRANCH   7  20
ATOM     20  C   UNL     1      -5.639   1.902  25.179  0.00  0.00    +0.139 C 
BRANCH  20  22
ATOM     22  C   UNL     1      -4.427   2.783  25.096  0.00  0.00    -0.027 A 
ATOM     23  C   UNL     1      -3.412   2.663  26.045  0.00  0.00    +0.054 A 
ATOM     24  C   UNL     1      -4.314   3.721  24.070  0.00  0.00    +0.009 A 
ATOM     25  C   UNL     1      -2.284   3.480  25.968  0.00  0.00    +0.162 A 
ATOM     26  C   UNL     1      -3.186   4.538  23.993  0.00  0.00    +0.050 A 
ATOM     27  C   UNL     1      -2.171   4.417  24.942  0.00  0.00    +0.162 A 
BRANCH  25   4
ATOM      4  O   UNL     1      -1.298   3.351  26.900  0.00  0.00    -0.491 OA
ATOM     33  C   UNL     1      -0.180   2.538  26.553  0.00  0.00    +0.277 C 
ENDBRANCH  25   4
BRANCH  27   5
ATOM      5  O   UNL     1      -1.074   5.221  24.855  0.00  0.00    -0.491 OA
ATOM     34  C   UNL     1      -0.101   4.885  23.869  0.00  0.00    +0.277 C 
ENDBRANCH  27   5
ENDBRANCH  20  22
ENDBRANCH   7  20
ENDBRANCH  15  17
ENDBRANCH   9  15
TORSDOF 11
ENDMDL
MODEL 6
REMARK VINA RESULT:       3.0      1.860      4.477
REMARK  Name = 26743120
REMARK  13 active torsions:
REMARK  status: ('A' for Active; 'I' for Inactive)
REMARK    1  A    between atoms: S_1  and  C_21
REMARK    2  A    between atoms: S_1  and  C_28
REMARK    3  A    between atoms: O_4  and  C_25
REMARK    4  A    between atoms: O_4  and  C_33
REMARK    5  A    between atoms: O_5  and  C_27
REMARK    6  A    between atoms: O_5  and  C_34
REMARK    7  A    between atoms: N_7  and  C_20
REMARK    8  A    between atoms: C_9  and  C_15
REMARK    9  A    between atoms: C_10  and  C_14
REMARK   10  A    between atoms: C_14  and  C_16
REMARK   11  A    between atoms: C_15  and  C_17
REMARK   12  A    between atoms: C_19  and  C_21
REMARK   13  A    between atoms: C_20  and  C_22
REMARK                            x       y       z     vdW  Elec       q    Type
REMARK                         _______ _______ _______ _____ _____    ______ ____
ROOT
ATOM      6  N   UNL     1      -2.045  -1.689  25.266  0.00  0.00    -0.316 NA
ATOM      9  C   UNL     1      -4.692  -0.438  25.317  0.00  0.00    +0.004 C 
ATOM     10  C   UNL     1      -4.325  -1.519  24.272  0.00  0.00    +0.012 C 
ATOM     11  C   UNL     1      -3.436   0.283  25.829  0.00  0.00    +0.019 C 
ATOM     12  C   UNL     1      -3.232  -2.437  24.848  0.00  0.00    +0.085 C 
ATOM     13  C   UNL     1      -2.376  -0.710  26.302  0.00  0.00    +0.081 C 
ATOM     36  H   UNL     1      -1.631  -1.212  24.467  0.00  0.00    +0.122 HD
ENDROOT
BRANCH  10  14
ATOM     14  C   UNL     1      -3.896  -0.947  22.914  0.00  0.00    +0.064 C 
BRANCH  14  16
ATOM      3  O   UNL     1      -1.348   1.582  23.174  0.00  0.00    -0.359 OA
ATOM      8  N   UNL     1      -2.673   1.178  23.063  0.00  0.00    -0.083 NA
ATOM     16  C   UNL     1      -2.626  -0.156  23.030  0.00  0.00    +0.084 A 
ATOM     18  C   UNL     1      -1.311  -0.646  23.115  0.00  0.00    +0.071 A 
ATOM     19  C   UNL     1      -0.546   0.487  23.204  0.00  0.00    +0.148 A 
BRANCH  19  21
ATOM     21  C   UNL     1       0.896   0.733  23.319  0.00  0.00    +0.151 C 
BRANCH  21   1
ATOM      1  S   UNL     1       1.890  -0.242  22.136  0.00  0.00    -0.117 S 
BRANCH   1  28
ATOM     28  C   UNL     1       3.481  -0.249  22.950  0.00  0.00    +0.008 A 
ATOM     29  C   UNL     1       4.269   0.903  22.952  0.00  0.00    +0.015 A 
ATOM     30  C   UNL     1       3.935  -1.405  23.583  0.00  0.00    +0.015 A 
ATOM     31  C   UNL     1       5.511   0.896  23.587  0.00  0.00    +0.001 A 
ATOM     32  C   UNL     1       5.176  -1.412  24.219  0.00  0.00    +0.001 A 
ATOM     35  C   UNL     1       5.964  -0.261  24.221  0.00  0.00    +0.000 A 
ENDBRANCH   1  28
ENDBRANCH  21   1
ENDBRANCH  19  21
ENDBRANCH  14  16
ENDBRANCH  10  14
BRANCH   9  15
ATOM     15  C   UNL     1      -5.729   0.566  24.816  0.00  0.00    +0.099 C 
BRANCH  15  17
ATOM      2  O   UNL     1      -4.865   2.640  23.918  0.00  0.00    -0.276 OA
ATOM      7  N   UNL     1      -5.244   2.457  26.204  0.00  0.00    -0.311 N 
ATOM     17  C   UNL     1      -5.231   1.993  24.896  0.00  0.00    +0.214 C 
ATOM     37  H   UNL     1      -5.558   1.842  26.949  0.00  0.00    +0.149 HD
BRANCH   7  20
ATOM     20  C   UNL     1      -4.819   3.786  26.574  0.00  0.00    +0.139 C 
BRANCH  20  22
ATOM     22  C   UNL     1      -3.460   4.114  26.026  0.00  0.00    -0.027 A 
ATOM     23  C   UNL     1      -2.409   3.210  26.182  0.00  0.00    +0.054 A 
ATOM     24  C   UNL     1      -3.249   5.320  25.359  0.00  0.00    +0.009 A 
ATOM     25  C   UNL     1      -1.147   3.513  25.670  0.00  0.00    +0.162 A 
ATOM     26  C   UNL     1      -1.987   5.624  24.848  0.00  0.00    +0.050 A 
ATOM     27  C   UNL     1      -0.937   4.720  25.004  0.00  0.00    +0.162 A 
BRANCH  25   4
ATOM      4  O   UNL     1      -0.129   2.621  25.827  0.00  0.00    -0.491 OA
ATOM     33  C   UNL     1       0.471   2.543  27.119  0.00  0.00    +0.277 C 
ENDBRANCH  25   4
BRANCH  27   5
ATOM      5  O   UNL     1       0.292   5.027  24.499  0.00  0.00    -0.491 OA
ATOM     34  C   UNL     1       0.467   4.891  23.091  0.00  0.00    +0.277 C 
ENDBRANCH  27   5
ENDBRANCH  20  22
ENDBRANCH   7  20
ENDBRANCH  15  17
ENDBRANCH   9  15
TORSDOF 11
ENDMDL
MODEL 7
REMARK VINA RESULT:       3.1      1.901      4.786
REMARK  Name = 26743120
REMARK  13 active torsions:
REMARK  status: ('A' for Active; 'I' for Inactive)
REMARK    1  A    between atoms: S_1  and  C_21
REMARK    2  A    between atoms: S_1  and  C_28
REMARK    3  A    between atoms: O_4  and  C_25
REMARK    4  A    between atoms: O_4  and  C_33
REMARK    5  A    between atoms: O_5  and  C_27
REMARK    6  A    between atoms: O_5  and  C_34
REMARK    7  A    between atoms: N_7  and  C_20
REMARK    8  A    between atoms: C_9  and  C_15
REMARK    9  A    between atoms: C_10  and  C_14
REMARK   10  A    between atoms: C_14  and  C_16
REMARK   11  A    between atoms: C_15  and  C_17
REMARK   12  A    between atoms: C_19  and  C_21
REMARK   13  A    between atoms: C_20  and  C_22
REMARK                            x       y       z     vdW  Elec       q    Type
REMARK                         _______ _______ _______ _____ _____    ______ ____
ROOT
ATOM      6  N   UNL     1      -1.590  -2.765  24.320  0.00  0.00    -0.316 NA
ATOM      9  C   UNL     1      -4.219  -1.487  24.488  0.00  0.00    +0.004 C 
ATOM     10  C   UNL     1      -2.934  -0.666  24.224  0.00  0.00    +0.012 C 
ATOM     11  C   UNL     1      -3.897  -2.795  25.225  0.00  0.00    +0.019 C 
ATOM     12  C   UNL     1      -1.886  -1.564  23.539  0.00  0.00    +0.085 C 
ATOM     13  C   UNL     1      -2.791  -3.577  24.517  0.00  0.00    +0.081 C 
ATOM     36  H   UNL     1      -1.202  -2.507  25.226  0.00  0.00    +0.122 HD
ENDROOT
BRANCH  10  14
ATOM     14  C   UNL     1      -2.348  -0.010  25.481  0.00  0.00    +0.064 C 
BRANCH  14  16
ATOM      3  O   UNL     1       0.564   2.106  25.451  0.00  0.00    -0.359 OA
ATOM      8  N   UNL     1      -0.605   1.631  26.033  0.00  0.00    -0.083 NA
ATOM     16  C   UNL     1      -1.075   0.724  25.173  0.00  0.00    +0.084 A 
ATOM     18  C   UNL     1      -0.254   0.585  24.041  0.00  0.00    +0.071 A 
ATOM     19  C   UNL     1       0.763   1.476  24.265  0.00  0.00    +0.148 A 
BRANCH  19  21
ATOM     21  C   UNL     1       1.961   1.861  23.511  0.00  0.00    +0.151 C 
BRANCH  21   1
ATOM      1  S   UNL     1       2.483   0.600  22.296  0.00  0.00    -0.117 S 
BRANCH   1  28
ATOM     28  C   UNL     1       3.943  -0.057  23.091  0.00  0.00    +0.008 A 
ATOM     29  C   UNL     1       3.968  -1.386  23.514  0.00  0.00    +0.015 A 
ATOM     30  C   UNL     1       5.056   0.759  23.288  0.00  0.00    +0.015 A 
ATOM     31  C   UNL     1       5.108  -1.898  24.135  0.00  0.00    +0.001 A 
ATOM     32  C   UNL     1       6.196   0.248  23.908  0.00  0.00    +0.001 A 
ATOM     35  C   UNL     1       6.222  -1.081  24.332  0.00  0.00    +0.000 A 
ENDBRANCH   1  28
ENDBRANCH  21   1
ENDBRANCH  19  21
ENDBRANCH  14  16
ENDBRANCH  10  14
BRANCH   9  15
ATOM     15  C   UNL     1      -5.301  -0.700  25.225  0.00  0.00    +0.099 C 
BRANCH  15  17
ATOM      2  O   UNL     1      -5.076   1.190  23.732  0.00  0.00    -0.276 OA
ATOM      7  N   UNL     1      -5.533   1.561  25.981  0.00  0.00    -0.311 N 
ATOM     17  C   UNL     1      -5.285   0.771  24.868  0.00  0.00    +0.214 C 
ATOM     37  H   UNL     1      -5.687   1.120  26.883  0.00  0.00    +0.149 HD
BRANCH   7  20
ATOM     20  C   UNL     1      -5.574   3.004  25.931  0.00  0.00    +0.139 C 
BRANCH  20  22
ATOM     22  C   UNL     1      -4.234   3.593  25.594  0.00  0.00    -0.027 A 
ATOM     23  C   UNL     1      -3.606   3.253  24.396  0.00  0.00    +0.054 A 
ATOM     24  C   UNL     1      -3.621   4.481  26.476  0.00  0.00    +0.009 A 
ATOM     25  C   UNL     1      -2.362   3.801  24.081  0.00  0.00    +0.162 A 
ATOM     26  C   UNL     1      -2.377   5.030  26.161  0.00  0.00    +0.050 A 
ATOM     27  C   UNL     1      -1.749   4.690  24.963  0.00  0.00    +0.162 A 
BRANCH  25   4
ATOM      4  O   UNL     1      -1.759   3.462  22.907  0.00  0.00    -0.491 OA
ATOM     33  C   UNL     1      -2.408   2.479  22.105  0.00  0.00    +0.277 C 
ENDBRANCH  25   4
BRANCH  27   5
ATOM      5  O   UNL     1      -0.534   5.232  24.667  0.00  0.00    -0.491 OA
ATOM     34  C   UNL     1       0.035   4.896  23.404  0.00  0.00    +0.277 C 
ENDBRANCH  27   5
ENDBRANCH  20  22
ENDBRANCH   7  20
ENDBRANCH  15  17
ENDBRANCH   9  15
TORSDOF 11
ENDMDL
