MODEL 1
REMARK VINA RESULT:       6.7      0.000      0.000
REMARK  Name = 40587807
REMARK  6 active torsions:
REMARK  status: ('A' for Active; 'I' for Inactive)
REMARK    1  A    between atoms: N_5  and  C_22
REMARK    2  A    between atoms: N_6  and  C_23
REMARK    3  A    between atoms: N_6  and  C_31
REMARK    4  A    between atoms: N_6  and  C_32
REMARK    5  A    between atoms: C_17  and  C_19
REMARK    6  A    between atoms: C_20  and  C_23
REMARK                            x       y       z     vdW  Elec       q    Type
REMARK                         _______ _______ _______ _____ _____    ______ ____
ROOT
ATOM      1  O   UNL     1       0.686   1.610  25.990  0.00  0.00    -0.267 OA
ATOM      2  O   UNL     1      -4.382   1.832  23.165  0.00  0.00    -0.252 OA
ATOM      3  N   UNL     1      -0.821   3.268  25.342  0.00  0.00    -0.311 N 
ATOM      4  N   UNL     1      -3.998   3.144  25.033  0.00  0.00    -0.284 N 
ATOM      5  N   UNL     1      -4.549   0.861  25.264  0.00  0.00    -0.269 N 
ATOM      7  C   UNL     1      -2.655   4.144  26.897  0.00  0.00    +0.027 C 
ATOM      8  C   UNL     1      -2.449   5.049  24.623  0.00  0.00    +0.054 C 
ATOM      9  C   UNL     1      -2.531   5.435  26.097  0.00  0.00    +0.018 C 
ATOM     10  C   UNL     1      -1.376   3.320  26.702  0.00  0.00    +0.130 C 
ATOM     11  C   UNL     1      -3.915   3.356  26.486  0.00  0.00    +0.114 C 
ATOM     12  C   UNL     1      -3.751   4.338  24.214  0.00  0.00    +0.119 C 
ATOM     13  C   UNL     1      -1.263   4.146  24.350  0.00  0.00    +0.027 A 
ATOM     14  C   UNL     1      -0.658   4.164  23.151  0.00  0.00    +0.022 A 
ATOM     15  C   UNL     1       0.244   2.372  25.128  0.00  0.00    +0.259 A 
ATOM     16  C   UNL     1      -4.311   1.923  24.393  0.00  0.00    +0.306 C 
ATOM     17  C   UNL     1       0.874   2.387  23.761  0.00  0.00    +0.047 A 
ATOM     18  C   UNL     1       0.421   3.266  22.854  0.00  0.00    +0.015 A 
ATOM     34  H   UNL     1      -4.948   1.071  26.173  0.00  0.00    +0.156 HD
ENDROOT
BRANCH  17  19
ATOM     19  C   UNL     1       1.959   1.454  23.410  0.00  0.00    -0.008 A 
ATOM     20  C   UNL     1       1.694   0.119  23.101  0.00  0.00    -0.026 A 
ATOM     21  C   UNL     1       3.270   1.927  23.394  0.00  0.00    +0.009 A 
ATOM     24  C   UNL     1       2.742  -0.741  22.774  0.00  0.00    +0.005 A 
ATOM     25  C   UNL     1       4.318   1.066  23.067  0.00  0.00    +0.001 A 
ATOM     26  C   UNL     1       4.055  -0.268  22.758  0.00  0.00    +0.000 A 
BRANCH  20  23
ATOM     23  C   UNL     1       0.301  -0.423  23.108  0.00  0.00    +0.119 C 
BRANCH  23   6
ATOM      6  N   UNL     1       0.062  -1.319  24.239  0.00  0.00    -0.304 NA
ATOM     31  C   UNL     1      -0.699  -2.491  23.811  0.00  0.00    +0.104 C 
ATOM     32  C   UNL     1      -0.642  -0.614  25.309  0.00  0.00    +0.104 C 
ENDBRANCH  23   6
ENDBRANCH  20  23
ENDBRANCH  17  19
BRANCH   5  22
ATOM     22  C   UNL     1      -4.308  -0.514  25.024  0.00  0.00    +0.035 A 
ATOM     27  C   UNL     1      -3.678  -1.291  25.996  0.00  0.00    +0.023 A 
ATOM     28  C   UNL     1      -4.703  -1.091  23.817  0.00  0.00    +0.023 A 
ATOM     29  C   UNL     1      -3.440  -2.646  25.759  0.00  0.00    +0.002 A 
ATOM     30  C   UNL     1      -4.465  -2.445  23.581  0.00  0.00    +0.002 A 
ATOM     33  C   UNL     1      -3.835  -3.222  24.552  0.00  0.00    +0.000 A 
ENDBRANCH   5  22
TORSDOF 4
ENDMDL
MODEL 2
REMARK VINA RESULT:       8.6      1.800      6.723
REMARK  Name = 40587807
REMARK  6 active torsions:
REMARK  status: ('A' for Active; 'I' for Inactive)
REMARK    1  A    between atoms: N_5  and  C_22
REMARK    2  A    between atoms: N_6  and  C_23
REMARK    3  A    between atoms: N_6  and  C_31
REMARK    4  A    between atoms: N_6  and  C_32
REMARK    5  A    between atoms: C_17  and  C_19
REMARK    6  A    between atoms: C_20  and  C_23
REMARK                            x       y       z     vdW  Elec       q    Type
REMARK                         _______ _______ _______ _____ _____    ______ ____
ROOT
ATOM      1  O   UNL     1      -0.858   1.848  26.601  0.00  0.00    -0.267 OA
ATOM      2  O   UNL     1       0.328  -1.337  21.894  0.00  0.00    -0.252 OA
ATOM      3  N   UNL     1      -1.848   0.065  25.469  0.00  0.00    -0.311 N 
ATOM      4  N   UNL     1      -0.503  -2.317  23.819  0.00  0.00    -0.284 N 
ATOM      5  N   UNL     1       1.780  -1.739  23.657  0.00  0.00    -0.269 N 
ATOM      7  C   UNL     1      -1.458  -2.375  26.135  0.00  0.00    +0.027 C 
ATOM      8  C   UNL     1      -2.914  -1.849  24.227  0.00  0.00    +0.054 C 
ATOM      9  C   UNL     1      -2.841  -2.617  25.544  0.00  0.00    +0.018 C 
ATOM     10  C   UNL     1      -1.318  -0.882  26.459  0.00  0.00    +0.130 C 
ATOM     11  C   UNL     1      -0.353  -2.862  25.178  0.00  0.00    +0.114 C 
ATOM     12  C   UNL     1      -1.856  -2.407  23.258  0.00  0.00    +0.119 C 
ATOM     13  C   UNL     1      -2.685  -0.365  24.437  0.00  0.00    +0.027 A 
ATOM     14  C   UNL     1      -3.256   0.532  23.617  0.00  0.00    +0.022 A 
ATOM     15  C   UNL     1      -1.560   1.428  25.680  0.00  0.00    +0.259 A 
ATOM     16  C   UNL     1       0.531  -1.755  23.037  0.00  0.00    +0.306 C 
ATOM     17  C   UNL     1      -2.182   2.406  24.719  0.00  0.00    +0.047 A 
ATOM     18  C   UNL     1      -2.993   1.936  23.759  0.00  0.00    +0.015 A 
ATOM     34  H   UNL     1       1.993  -2.479  24.318  0.00  0.00    +0.156 HD
ENDROOT
BRANCH  17  19
ATOM     19  C   UNL     1      -1.905   3.849  24.813  0.00  0.00    -0.008 A 
ATOM     20  C   UNL     1      -2.713   4.694  25.574  0.00  0.00    -0.026 A 
ATOM     21  C   UNL     1      -0.810   4.367  24.121  0.00  0.00    +0.009 A 
ATOM     24  C   UNL     1      -2.426   6.057  25.643  0.00  0.00    +0.005 A 
ATOM     25  C   UNL     1      -0.523   5.731  24.191  0.00  0.00    +0.001 A 
ATOM     26  C   UNL     1      -1.331   6.576  24.952  0.00  0.00    +0.000 A 
BRANCH  20  23
ATOM     23  C   UNL     1      -3.894   4.174  26.329  0.00  0.00    +0.119 C 
BRANCH  23   6
ATOM      6  N   UNL     1      -5.026   3.881  25.451  0.00  0.00    -0.304 NA
ATOM     31  C   UNL     1      -6.000   4.970  25.492  0.00  0.00    +0.104 C 
ATOM     32  C   UNL     1      -5.656   2.617  25.833  0.00  0.00    +0.104 C 
ENDBRANCH  23   6
ENDBRANCH  20  23
ENDBRANCH  17  19
BRANCH   5  22
ATOM     22  C   UNL     1       2.821  -0.798  23.463  0.00  0.00    +0.035 A 
ATOM     27  C   UNL     1       4.132  -1.129  23.807  0.00  0.00    +0.023 A 
ATOM     28  C   UNL     1       2.536   0.457  22.926  0.00  0.00    +0.023 A 
ATOM     29  C   UNL     1       5.157  -0.202  23.617  0.00  0.00    +0.002 A 
ATOM     30  C   UNL     1       3.561   1.383  22.736  0.00  0.00    +0.002 A 
ATOM     33  C   UNL     1       4.872   1.053  23.080  0.00  0.00    +0.000 A 
ENDBRANCH   5  22
TORSDOF 4
ENDMDL
MODEL 3
REMARK VINA RESULT:       9.4      1.185      5.763
REMARK  Name = 40587807
REMARK  6 active torsions:
REMARK  status: ('A' for Active; 'I' for Inactive)
REMARK    1  A    between atoms: N_5  and  C_22
REMARK    2  A    between atoms: N_6  and  C_23
REMARK    3  A    between atoms: N_6  and  C_31
REMARK    4  A    between atoms: N_6  and  C_32
REMARK    5  A    between atoms: C_17  and  C_19
REMARK    6  A    between atoms: C_20  and  C_23
REMARK                            x       y       z     vdW  Elec       q    Type
REMARK                         _______ _______ _______ _____ _____    ______ ____
ROOT
ATOM      1  O   UNL     1      -3.603   0.430  22.351  0.00  0.00    -0.267 OA
ATOM      2  O   UNL     1       0.364   2.391  26.110  0.00  0.00    -0.252 OA
ATOM      3  N   UNL     1      -3.502   2.073  24.004  0.00  0.00    -0.311 N 
ATOM      4  N   UNL     1      -1.034   3.850  24.981  0.00  0.00    -0.284 N 
ATOM      5  N   UNL     1       0.853   2.924  23.906  0.00  0.00    -0.269 N 
ATOM      7  C   UNL     1      -2.932   4.513  23.486  0.00  0.00    +0.027 C 
ATOM      8  C   UNL     1      -3.383   3.831  25.803  0.00  0.00    +0.054 C 
ATOM      9  C   UNL     1      -3.773   4.831  24.717  0.00  0.00    +0.018 C 
ATOM     10  C   UNL     1      -3.306   3.113  22.985  0.00  0.00    +0.130 C 
ATOM     11  C   UNL     1      -1.427   4.630  23.797  0.00  0.00    +0.114 C 
ATOM     12  C   UNL     1      -1.898   4.022  26.155  0.00  0.00    +0.119 C 
ATOM     13  C   UNL     1      -3.626   2.403  25.355  0.00  0.00    +0.027 A 
ATOM     14  C   UNL     1      -3.926   1.452  26.255  0.00  0.00    +0.022 A 
ATOM     15  C   UNL     1      -3.667   0.753  23.539  0.00  0.00    +0.259 A 
ATOM     16  C   UNL     1       0.089   2.997  25.070  0.00  0.00    +0.306 C 
ATOM     17  C   UNL     1      -3.962  -0.297  24.576  0.00  0.00    +0.047 A 
ATOM     18  C   UNL     1      -4.089   0.083  25.856  0.00  0.00    +0.015 A 
ATOM     34  H   UNL     1       0.888   3.743  23.308  0.00  0.00    +0.156 HD
ENDROOT
BRANCH  17  19
ATOM     19  C   UNL     1      -4.099  -1.716  24.207  0.00  0.00    -0.008 A 
ATOM     20  C   UNL     1      -3.261  -2.690  24.751  0.00  0.00    -0.026 A 
ATOM     21  C   UNL     1      -5.089  -2.078  23.294  0.00  0.00    +0.009 A 
ATOM     24  C   UNL     1      -3.414  -4.026  24.381  0.00  0.00    +0.005 A 
ATOM     25  C   UNL     1      -5.242  -3.414  22.924  0.00  0.00    +0.001 A 
ATOM     26  C   UNL     1      -4.404  -4.389  23.467  0.00  0.00    +0.000 A 
BRANCH  20  23
ATOM     23  C   UNL     1      -2.189  -2.339  25.732  0.00  0.00    +0.119 C 
BRANCH  23   6
ATOM      6  N   UNL     1      -1.010  -1.768  25.082  0.00  0.00    -0.304 NA
ATOM     31  C   UNL     1       0.168  -2.593  25.344  0.00  0.00    +0.104 C 
ATOM     32  C   UNL     1      -0.786  -0.397  25.542  0.00  0.00    +0.104 C 
ENDBRANCH  23   6
ENDBRANCH  20  23
ENDBRANCH  17  19
BRANCH   5  22
ATOM     22  C   UNL     1       1.617   1.822  23.450  0.00  0.00    +0.035 A 
ATOM     27  C   UNL     1       0.993   0.600  23.194  0.00  0.00    +0.023 A 
ATOM     28  C   UNL     1       2.991   1.958  23.257  0.00  0.00    +0.023 A 
ATOM     29  C   UNL     1       1.746  -0.486  22.746  0.00  0.00    +0.002 A 
ATOM     30  C   UNL     1       3.743   0.872  22.809  0.00  0.00    +0.002 A 
ATOM     33  C   UNL     1       3.120  -0.349  22.552  0.00  0.00    +0.000 A 
ENDBRANCH   5  22
TORSDOF 4
ENDMDL
