MODEL 1
REMARK VINA RESULT:      -3.9      0.000      0.000
REMARK  Name = 11913358
REMARK  5 active torsions:
REMARK  status: ('A' for Active; 'I' for Inactive)
REMARK    1  A    between atoms: N_5  and  C_12
REMARK    2  A    between atoms: N_6  and  C_13
REMARK    3  A    between atoms: N_7  and  C_19
REMARK    4  A    between atoms: C_18  and  C_22
REMARK    5  A    between atoms: C_19  and  C_23
REMARK                            x       y       z     vdW  Elec       q    Type
REMARK                         _______ _______ _______ _____ _____    ______ ____
ROOT
ATOM      2  O   UNL     1      -2.675  -2.455  23.876  0.00  0.00    -0.370 OA
ATOM      3  O   UNL     1      -1.217  -1.194  26.331  0.00  0.00    -0.370 OA
ATOM     10  C   UNL     1      -2.310  -0.759  25.505  0.00  0.00    +0.171 C 
ATOM     11  C   UNL     1      -2.006  -1.200  24.086  0.00  0.00    +0.171 C 
ATOM     12  C   UNL     1      -3.570  -1.510  25.863  0.00  0.00    +0.130 C 
ATOM     13  C   UNL     1      -0.506  -1.396  24.075  0.00  0.00    +0.131 C 
ATOM     14  C   UNL     1      -3.445  -2.780  25.043  0.00  0.00    +0.185 C 
ATOM     15  C   UNL     1      -0.224  -1.821  25.505  0.00  0.00    +0.185 C 
ENDROOT
BRANCH  12   5
ATOM      5  N   UNL     1      -4.732  -0.756  25.445  0.00  0.00    -0.306 N 
ATOM      8  N   UNL     1      -3.517   1.247  25.300  0.00  0.00    -0.214 NA
ATOM      9  N   UNL     1      -5.870   1.187  24.783  0.00  0.00    -0.223 NA
ATOM     16  C   UNL     1      -4.705   0.599  25.168  0.00  0.00    +0.216 A 
ATOM     18  C   UNL     1      -3.528   2.566  25.022  0.00  0.00    +0.076 A 
ATOM     20  C   UNL     1      -5.808   2.508  24.521  0.00  0.00    +0.116 A 
ATOM     21  C   UNL     1      -4.654   3.257  24.624  0.00  0.00    +0.048 A 
ATOM     30  H   UNL     1      -5.611  -1.239  25.293  0.00  0.00    +0.149 HD
BRANCH  18  22
ATOM      1  F   UNL     1       1.092   2.560  26.429  0.00  0.00    -0.205 F 
ATOM     22  C   UNL     1      -2.256   3.233  25.167  0.00  0.00    +0.003 A 
ATOM     24  C   UNL     1      -1.174   2.562  25.740  0.00  0.00    +0.048 A 
ATOM     25  C   UNL     1      -2.104   4.554  24.736  0.00  0.00    +0.010 A 
ATOM     26  C   UNL     1       0.055   3.207  25.880  0.00  0.00    +0.124 A 
ATOM     27  C   UNL     1      -0.875   5.199  24.877  0.00  0.00    +0.003 A 
ATOM     29  C   UNL     1       0.205   4.525  25.449  0.00  0.00    +0.038 A 
ENDBRANCH  18  22
ENDBRANCH  12   5
BRANCH  13   6
ATOM      4  O   UNL     1       2.259  -1.095  23.304  0.00  0.00    -0.253 OA
ATOM      6  N   UNL     1       0.177  -0.167  23.749  0.00  0.00    -0.292 N 
ATOM      7  N   UNL     1       1.924   1.194  23.127  0.00  0.00    -0.296 N 
ATOM     17  C   UNL     1       1.522  -0.113  23.387  0.00  0.00    +0.300 C 
ATOM     31  H   UNL     1      -0.361   0.694  23.722  0.00  0.00    +0.151 HD
ATOM     32  H   UNL     1       1.239   1.940  23.203  0.00  0.00    +0.151 HD
BRANCH   7  19
ATOM     19  C   UNL     1       3.270   1.535  22.730  0.00  0.00    +0.132 C 
BRANCH  19  23
ATOM     23  C   UNL     1       4.165   0.368  22.989  0.00  0.00    -0.016 C 
ATOM     28  C   UNL     1       5.335   0.454  23.632  0.00  0.00    +0.005 C 
ENDBRANCH  19  23
ENDBRANCH   7  19
ENDBRANCH  13   6
TORSDOF 5
ENDMDL
MODEL 2
REMARK VINA RESULT:      -2.1     16.684     18.529
REMARK  Name = 11913358
REMARK  5 active torsions:
REMARK  status: ('A' for Active; 'I' for Inactive)
REMARK    1  A    between atoms: N_5  and  C_12
REMARK    2  A    between atoms: N_6  and  C_13
REMARK    3  A    between atoms: N_7  and  C_19
REMARK    4  A    between atoms: C_18  and  C_22
REMARK    5  A    between atoms: C_19  and  C_23
REMARK                            x       y       z     vdW  Elec       q    Type
REMARK                         _______ _______ _______ _____ _____    ______ ____
ROOT
ATOM      2  O   UNL     1      17.255  -9.215  27.596  0.00  0.00    -0.370 OA
ATOM      3  O   UNL     1      16.470  -6.580  29.071  0.00  0.00    -0.370 OA
ATOM     10  C   UNL     1      15.726  -7.743  28.672  0.00  0.00    +0.171 C 
ATOM     11  C   UNL     1      16.280  -8.193  27.333  0.00  0.00    +0.171 C 
ATOM     12  C   UNL     1      16.020  -8.898  29.600  0.00  0.00    +0.130 C 
ATOM     13  C   UNL     1      16.950  -6.957  26.778  0.00  0.00    +0.131 C 
ATOM     14  C   UNL     1      17.283  -9.491  29.004  0.00  0.00    +0.185 C 
ATOM     15  C   UNL     1      17.405  -6.242  28.037  0.00  0.00    +0.185 C 
ENDROOT
BRANCH  12   5
ATOM      5  N   UNL     1      14.942  -9.861  29.548  0.00  0.00    -0.306 N 
ATOM      8  N   UNL     1      13.444  -8.409  30.622  0.00  0.00    -0.214 NA
ATOM      9  N   UNL     1      12.752 -10.613  29.935  0.00  0.00    -0.223 NA
ATOM     16  C   UNL     1      13.676  -9.620  30.049  0.00  0.00    +0.216 A 
ATOM     18  C   UNL     1      12.199  -8.208  31.101  0.00  0.00    +0.076 A 
ATOM     20  C   UNL     1      11.529 -10.344  30.435  0.00  0.00    +0.116 A 
ATOM     21  C   UNL     1      11.191  -9.147  31.034  0.00  0.00    +0.048 A 
ATOM     30  H   UNL     1      15.088 -10.748  29.077  0.00  0.00    +0.149 HD
BRANCH  18  22
ATOM      1  F   UNL     1      13.759  -3.799  32.306  0.00  0.00    -0.205 F 
ATOM     22  C   UNL     1      11.976  -6.915  31.703  0.00  0.00    +0.003 A 
ATOM     24  C   UNL     1      12.996  -5.962  31.715  0.00  0.00    +0.048 A 
ATOM     25  C   UNL     1      10.738  -6.614  32.276  0.00  0.00    +0.010 A 
ATOM     26  C   UNL     1      12.779  -4.712  32.296  0.00  0.00    +0.124 A 
ATOM     27  C   UNL     1      10.521  -5.364  32.858  0.00  0.00    +0.003 A 
ATOM     29  C   UNL     1      11.542  -4.413  32.868  0.00  0.00    +0.038 A 
ENDBRANCH  18  22
ENDBRANCH  12   5
BRANCH  13   6
ATOM      4  O   UNL     1      17.366  -4.276  25.794  0.00  0.00    -0.253 OA
ATOM      6  N   UNL     1      16.017  -6.152  26.026  0.00  0.00    -0.292 N 
ATOM      7  N   UNL     1      15.229  -4.313  24.891  0.00  0.00    -0.296 N 
ATOM     17  C   UNL     1      16.302  -4.859  25.590  0.00  0.00    +0.300 C 
ATOM     31  H   UNL     1      15.133  -6.568  25.748  0.00  0.00    +0.151 HD
ATOM     32  H   UNL     1      14.396  -4.877  24.756  0.00  0.00    +0.151 HD
BRANCH   7  19
ATOM     19  C   UNL     1      15.257  -2.984  24.327  0.00  0.00    +0.132 C 
BRANCH  19  23
ATOM     23  C   UNL     1      16.203  -2.963  23.173  0.00  0.00    -0.016 C 
ATOM     28  C   UNL     1      16.875  -1.875  22.779  0.00  0.00    +0.005 C 
ENDBRANCH  19  23
ENDBRANCH   7  19
ENDBRANCH  13   6
TORSDOF 5
ENDMDL
MODEL 3
REMARK VINA RESULT:      -0.6      2.778      5.292
REMARK  Name = 11913358
REMARK  5 active torsions:
REMARK  status: ('A' for Active; 'I' for Inactive)
REMARK    1  A    between atoms: N_5  and  C_12
REMARK    2  A    between atoms: N_6  and  C_13
REMARK    3  A    between atoms: N_7  and  C_19
REMARK    4  A    between atoms: C_18  and  C_22
REMARK    5  A    between atoms: C_19  and  C_23
REMARK                            x       y       z     vdW  Elec       q    Type
REMARK                         _______ _______ _______ _____ _____    ______ ____
ROOT
ATOM      2  O   UNL     1      -0.839   4.498  25.701  0.00  0.00    -0.370 OA
ATOM      3  O   UNL     1      -1.048   2.511  23.304  0.00  0.00    -0.370 OA
ATOM     10  C   UNL     1      -1.985   2.952  24.301  0.00  0.00    +0.171 C 
ATOM     11  C   UNL     1      -1.217   3.115  25.599  0.00  0.00    +0.171 C 
ATOM     12  C   UNL     1      -2.471   4.346  23.984  0.00  0.00    +0.130 C 
ATOM     13  C   UNL     1       0.008   2.247  25.413  0.00  0.00    +0.131 C 
ATOM     14  C   UNL     1      -1.395   5.222  24.595  0.00  0.00    +0.185 C 
ATOM     15  C   UNL     1       0.238   2.327  23.915  0.00  0.00    +0.185 C 
ENDROOT
BRANCH  12   5
ATOM      5  N   UNL     1      -3.742   4.587  24.633  0.00  0.00    -0.306 N 
ATOM      8  N   UNL     1      -4.149   2.295  24.932  0.00  0.00    -0.214 NA
ATOM      9  N   UNL     1      -5.734   3.943  25.693  0.00  0.00    -0.223 NA
ATOM     16  C   UNL     1      -4.565   3.578  25.100  0.00  0.00    +0.216 A 
ATOM     18  C   UNL     1      -4.976   1.338  25.399  0.00  0.00    +0.076 A 
ATOM     20  C   UNL     1      -6.513   2.935  26.136  0.00  0.00    +0.116 A 
ATOM     21  C   UNL     1      -6.182   1.600  26.015  0.00  0.00    +0.048 A 
ATOM     30  H   UNL     1      -4.038   5.540  24.810  0.00  0.00    +0.149 HD
BRANCH  18  22
ATOM      1  F   UNL     1      -4.522  -2.614  22.659  0.00  0.00    -0.205 F 
ATOM     22  C   UNL     1      -4.514  -0.017  25.211  0.00  0.00    +0.003 A 
ATOM     24  C   UNL     1      -4.746  -0.675  24.002  0.00  0.00    +0.048 A 
ATOM     25  C   UNL     1      -3.833  -0.673  26.240  0.00  0.00    +0.010 A 
ATOM     26  C   UNL     1      -4.298  -1.984  23.821  0.00  0.00    +0.124 A 
ATOM     27  C   UNL     1      -3.386  -1.983  26.058  0.00  0.00    +0.003 A 
ATOM     29  C   UNL     1      -3.619  -2.638  24.849  0.00  0.00    +0.038 A 
ENDBRANCH  18  22
ENDBRANCH  12   5
BRANCH  13   6
ATOM      4  O   UNL     1       0.429  -0.157  23.872  0.00  0.00    -0.253 OA
ATOM      6  N   UNL     1      -0.247   0.890  25.832  0.00  0.00    -0.292 N 
ATOM      7  N   UNL     1      -0.347  -1.403  25.669  0.00  0.00    -0.296 N 
ATOM     17  C   UNL     1      -0.015  -0.218  25.019  0.00  0.00    +0.300 C 
ATOM     31  H   UNL     1      -0.552   0.727  26.787  0.00  0.00    +0.151 HD
ATOM     32  H   UNL     1      -0.689  -1.356  26.624  0.00  0.00    +0.151 HD
BRANCH   7  19
ATOM     19  C   UNL     1      -0.203  -2.701  25.054  0.00  0.00    +0.132 C 
BRANCH  19  23
ATOM     23  C   UNL     1      -0.962  -2.718  23.769  0.00  0.00    -0.016 C 
ATOM     28  C   UNL     1      -1.335  -3.837  23.138  0.00  0.00    +0.005 C 
ENDBRANCH  19  23
ENDBRANCH   7  19
ENDBRANCH  13   6
TORSDOF 5
ENDMDL
MODEL 4
REMARK VINA RESULT:      -0.6      2.612      4.993
REMARK  Name = 11913358
REMARK  5 active torsions:
REMARK  status: ('A' for Active; 'I' for Inactive)
REMARK    1  A    between atoms: N_5  and  C_12
REMARK    2  A    between atoms: N_6  and  C_13
REMARK    3  A    between atoms: N_7  and  C_19
REMARK    4  A    between atoms: C_18  and  C_22
REMARK    5  A    between atoms: C_19  and  C_23
REMARK                            x       y       z     vdW  Elec       q    Type
REMARK                         _______ _______ _______ _____ _____    ______ ____
ROOT
ATOM      2  O   UNL     1      -5.492   2.592  25.921  0.00  0.00    -0.370 OA
ATOM      3  O   UNL     1      -3.673   3.140  23.445  0.00  0.00    -0.370 OA
ATOM     10  C   UNL     1      -3.795   2.031  24.350  0.00  0.00    +0.171 C 
ATOM     11  C   UNL     1      -4.067   2.602  25.729  0.00  0.00    +0.171 C 
ATOM     12  C   UNL     1      -5.034   1.228  24.032  0.00  0.00    +0.130 C 
ATOM     13  C   UNL     1      -3.557   4.023  25.645  0.00  0.00    +0.131 C 
ATOM     14  C   UNL     1      -6.117   1.973  24.787  0.00  0.00    +0.185 C 
ATOM     15  C   UNL     1      -3.788   4.365  24.184  0.00  0.00    +0.185 C 
ENDROOT
BRANCH  12   5
ATOM      5  N   UNL     1      -4.898  -0.117  24.548  0.00  0.00    -0.306 N 
ATOM      8  N   UNL     1      -2.571  -0.118  24.245  0.00  0.00    -0.214 NA
ATOM      9  N   UNL     1      -3.701  -2.041  25.158  0.00  0.00    -0.223 NA
ATOM     16  C   UNL     1      -3.688  -0.778  24.654  0.00  0.00    +0.216 A 
ATOM     18  C   UNL     1      -1.409  -0.792  24.362  0.00  0.00    +0.076 A 
ATOM     20  C   UNL     1      -2.503  -2.656  25.247  0.00  0.00    +0.116 A 
ATOM     21  C   UNL     1      -1.313  -2.075  24.860  0.00  0.00    +0.048 A 
ATOM     30  H   UNL     1      -5.717  -0.599  24.904  0.00  0.00    +0.149 HD
BRANCH  18  22
ATOM      1  F   UNL     1       3.094  -0.746  22.617  0.00  0.00    -0.205 F 
ATOM     22  C   UNL     1      -0.237  -0.072  23.923  0.00  0.00    +0.003 A 
ATOM     24  C   UNL     1       0.886  -0.770  23.474  0.00  0.00    +0.048 A 
ATOM     25  C   UNL     1      -0.222   1.325  23.948  0.00  0.00    +0.010 A 
ATOM     26  C   UNL     1       2.018  -0.074  23.049  0.00  0.00    +0.124 A 
ATOM     27  C   UNL     1       0.911   2.020  23.525  0.00  0.00    +0.003 A 
ATOM     29  C   UNL     1       2.031   1.321  23.075  0.00  0.00    +0.038 A 
ENDBRANCH  18  22
ENDBRANCH  12   5
BRANCH  13   6
ATOM      4  O   UNL     1      -1.866   1.852  26.515  0.00  0.00    -0.253 OA
ATOM      6  N   UNL     1      -2.157   4.094  25.985  0.00  0.00    -0.292 N 
ATOM      7  N   UNL     1      -0.091   3.340  26.663  0.00  0.00    -0.296 N 
ATOM     17  C   UNL     1      -1.413   2.991  26.399  0.00  0.00    +0.300 C 
ATOM     31  H   UNL     1      -1.672   4.978  25.858  0.00  0.00    +0.151 HD
ATOM     32  H   UNL     1       0.196   4.304  26.520  0.00  0.00    +0.151 HD
BRANCH   7  19
ATOM     19  C   UNL     1       0.897   2.387  27.108  0.00  0.00    +0.132 C 
BRANCH  19  23
ATOM     23  C   UNL     1       1.162   2.601  28.561  0.00  0.00    -0.016 C 
ATOM     28  C   UNL     1       2.386   2.743  29.082  0.00  0.00    +0.005 C 
ENDBRANCH  19  23
ENDBRANCH   7  19
ENDBRANCH  13   6
TORSDOF 5
ENDMDL
MODEL 5
REMARK VINA RESULT:      -0.4      2.376      4.415
REMARK  Name = 11913358
REMARK  5 active torsions:
REMARK  status: ('A' for Active; 'I' for Inactive)
REMARK    1  A    between atoms: N_5  and  C_12
REMARK    2  A    between atoms: N_6  and  C_13
REMARK    3  A    between atoms: N_7  and  C_19
REMARK    4  A    between atoms: C_18  and  C_22
REMARK    5  A    between atoms: C_19  and  C_23
REMARK                            x       y       z     vdW  Elec       q    Type
REMARK                         _______ _______ _______ _____ _____    ______ ____
ROOT
ATOM      2  O   UNL     1      -2.177   3.443  26.750  0.00  0.00    -0.370 OA
ATOM      3  O   UNL     1      -0.962   4.168  23.968  0.00  0.00    -0.370 OA
ATOM     10  C   UNL     1      -2.171   3.502  24.371  0.00  0.00    +0.171 C 
ATOM     11  C   UNL     1      -1.837   2.664  25.591  0.00  0.00    +0.171 C 
ATOM     12  C   UNL     1      -3.180   4.505  24.877  0.00  0.00    +0.130 C 
ATOM     13  C   UNL     1      -0.340   2.471  25.507  0.00  0.00    +0.131 C 
ATOM     14  C   UNL     1      -2.780   4.676  26.330  0.00  0.00    +0.185 C 
ATOM     15  C   UNL     1       0.113   3.747  24.820  0.00  0.00    +0.185 C 
ENDROOT
BRANCH  12   5
ATOM      5  N   UNL     1      -4.514   3.954  24.786  0.00  0.00    -0.306 N 
ATOM      8  N   UNL     1      -3.732   1.746  24.931  0.00  0.00    -0.214 NA
ATOM      9  N   UNL     1      -6.087   2.213  24.721  0.00  0.00    -0.223 NA
ATOM     16  C   UNL     1      -4.786   2.598  24.814  0.00  0.00    +0.216 A 
ATOM     18  C   UNL     1      -4.033   0.432  24.955  0.00  0.00    +0.076 A 
ATOM     20  C   UNL     1      -6.316   0.884  24.751  0.00  0.00    +0.116 A 
ATOM     21  C   UNL     1      -5.319  -0.063  24.868  0.00  0.00    +0.048 A 
ATOM     30  H   UNL     1      -5.311   4.581  24.750  0.00  0.00    +0.149 HD
BRANCH  18  22
ATOM      1  F   UNL     1      -1.366  -3.250  23.325  0.00  0.00    -0.205 F 
ATOM     22  C   UNL     1      -2.901  -0.454  25.082  0.00  0.00    +0.003 A 
ATOM     24  C   UNL     1      -2.676  -1.445  24.124  0.00  0.00    +0.048 A 
ATOM     25  C   UNL     1      -2.027  -0.324  26.164  0.00  0.00    +0.010 A 
ATOM     26  C   UNL     1      -1.580  -2.300  24.246  0.00  0.00    +0.124 A 
ATOM     27  C   UNL     1      -0.932  -1.180  26.287  0.00  0.00    +0.003 A 
ATOM     29  C   UNL     1      -0.709  -2.169  25.328  0.00  0.00    +0.038 A 
ENDBRANCH  18  22
ENDBRANCH  12   5
BRANCH  13   6
ATOM      4  O   UNL     1       1.885   2.176  23.692  0.00  0.00    -0.253 OA
ATOM      6  N   UNL     1      -0.008   1.308  24.721  0.00  0.00    -0.292 N 
ATOM      7  N   UNL     1       1.176   0.015  23.231  0.00  0.00    -0.296 N 
ATOM     17  C   UNL     1       1.090   1.252  23.865  0.00  0.00    +0.300 C 
ATOM     31  H   UNL     1      -0.564   0.466  24.842  0.00  0.00    +0.151 HD
ATOM     32  H   UNL     1       0.485  -0.695  23.451  0.00  0.00    +0.151 HD
BRANCH   7  19
ATOM     19  C   UNL     1       2.221  -0.312  22.290  0.00  0.00    +0.132 C 
BRANCH  19  23
ATOM     23  C   UNL     1       3.505  -0.493  23.030  0.00  0.00    -0.016 C 
ATOM     28  C   UNL     1       4.547   0.340  22.931  0.00  0.00    +0.005 C 
ENDBRANCH  19  23
ENDBRANCH   7  19
ENDBRANCH  13   6
TORSDOF 5
ENDMDL
