MODEL 1
REMARK VINA RESULT:      -4.1      0.000      0.000
REMARK  Name = 56774712
REMARK  13 active torsions:
REMARK  status: ('A' for Active; 'I' for Inactive)
REMARK    1  A    between atoms: O_2  and  C_8
REMARK    2  A    between atoms: N_5  and  C_9
REMARK    3  A    between atoms: N_6  and  C_24
REMARK    4  A    between atoms: C_7  and  C_8
REMARK    5  A    between atoms: C_8  and  C_13
REMARK    6  A    between atoms: C_9  and  C_11
REMARK    7  A    between atoms: C_11  and  C_16
REMARK    8  A    between atoms: C_11  and  C_17
REMARK    9  A    between atoms: C_15  and  C_18
REMARK   10  A    between atoms: C_15  and  C_21
REMARK   11  A    between atoms: C_15  and  C_22
REMARK   12  A    between atoms: C_15  and  C_23
REMARK   13  A    between atoms: C_18  and  C_27
REMARK                            x       y       z     vdW  Elec       q    Type
REMARK                         _______ _______ _______ _____ _____    ______ ____
ROOT
ATOM     13  C   UNL     1      -1.553   2.254  25.360  0.00  0.00    -0.017 A 
ATOM     19  C   UNL     1      -0.971   0.990  25.454  0.00  0.00    +0.008 A 
ATOM     20  C   UNL     1      -0.882   3.284  24.699  0.00  0.00    +0.008 A 
ATOM     24  C   UNL     1       0.954   1.785  24.227  0.00  0.00    +0.033 A 
ATOM     25  C   UNL     1       0.283   0.756  24.888  0.00  0.00    +0.023 A 
ATOM     26  C   UNL     1       0.371   3.049  24.134  0.00  0.00    +0.023 A 
ENDROOT
BRANCH  24   6
ATOM      4  O   UNL     1       1.840  -0.310  22.267  0.00  0.00    -0.275 OA
ATOM      6  N   UNL     1       2.225   1.546  23.653  0.00  0.00    -0.285 N 
ATOM     27  C   UNL     1       2.571   0.551  22.749  0.00  0.00    +0.218 C 
ATOM     29  H   UNL     1       2.957   2.186  23.953  0.00  0.00    +0.155 HD
BRANCH  27  18
ATOM     18  C   UNL     1       4.042   0.617  22.359  0.00  0.00    +0.102 C 
BRANCH  18  15
ATOM     15  C   UNL     1       5.000  -0.132  23.316  0.00  0.00    -0.029 C 
ATOM     21  C   UNL     1       5.391   0.753  24.512  0.00  0.00    +0.011 C 
ATOM     22  C   UNL     1       4.375  -1.437  23.835  0.00  0.00    +0.011 C 
ATOM     23  C   UNL     1       6.280  -0.484  22.532  0.00  0.00    +0.011 C 
ENDBRANCH  18  15
ENDBRANCH  27  18
ENDBRANCH  24   6
BRANCH  13   8
ATOM      8  C   UNL     1      -2.892   2.506  25.964  0.00  0.00    +0.167 C 
BRANCH   8   7
ATOM      1  O   UNL     1      -4.248   4.193  23.983  0.00  0.00    -0.369 OA
ATOM      3  O   UNL     1      -2.700   1.894  21.668  0.00  0.00    -0.273 OA
ATOM      5  N   UNL     1      -3.525   1.489  23.806  0.00  0.00    -0.291 N 
ATOM      7  C   UNL     1      -4.043   2.066  25.054  0.00  0.00    +0.135 C 
ATOM     10  C   UNL     1      -4.973   3.233  24.742  0.00  0.00    +0.185 C 
ATOM     12  C   UNL     1      -3.289   2.276  22.681  0.00  0.00    +0.242 C 
ATOM     14  C   UNL     1      -3.894   3.675  22.719  0.00  0.00    +0.255 C 
BRANCH   5   9
ATOM      9  C   UNL     1      -3.091   0.100  23.837  0.00  0.00    +0.111 C 
BRANCH   9  11
ATOM     11  C   UNL     1      -4.093  -0.808  24.559  0.00  0.00    +0.000 C 
ATOM     16  C   UNL     1      -3.542  -1.214  25.927  0.00  0.00    +0.009 C 
ATOM     17  C   UNL     1      -4.418  -2.057  23.736  0.00  0.00    +0.009 C 
ENDBRANCH   9  11
ENDBRANCH   5   9
ENDBRANCH   8   7
BRANCH   8   2
ATOM      2  O   UNL     1      -3.042   3.900  26.256  0.00  0.00    -0.385 OA
ATOM     28  H   UNL     1      -2.937   4.396  25.427  0.00  0.00    +0.210 HD
ENDBRANCH   8   2
ENDBRANCH  13   8
TORSDOF 8
ENDMDL
MODEL 2
REMARK VINA RESULT:      -3.4      1.381      2.146
REMARK  Name = 56774712
REMARK  13 active torsions:
REMARK  status: ('A' for Active; 'I' for Inactive)
REMARK    1  A    between atoms: O_2  and  C_8
REMARK    2  A    between atoms: N_5  and  C_9
REMARK    3  A    between atoms: N_6  and  C_24
REMARK    4  A    between atoms: C_7  and  C_8
REMARK    5  A    between atoms: C_8  and  C_13
REMARK    6  A    between atoms: C_9  and  C_11
REMARK    7  A    between atoms: C_11  and  C_16
REMARK    8  A    between atoms: C_11  and  C_17
REMARK    9  A    between atoms: C_15  and  C_18
REMARK   10  A    between atoms: C_15  and  C_21
REMARK   11  A    between atoms: C_15  and  C_22
REMARK   12  A    between atoms: C_15  and  C_23
REMARK   13  A    between atoms: C_18  and  C_27
REMARK                            x       y       z     vdW  Elec       q    Type
REMARK                         _______ _______ _______ _____ _____    ______ ____
ROOT
ATOM     13  C   UNL     1      -1.425   1.950  23.730  0.00  0.00    -0.017 A 
ATOM     19  C   UNL     1      -0.957   0.686  23.374  0.00  0.00    +0.008 A 
ATOM     20  C   UNL     1      -0.524   2.989  23.960  0.00  0.00    +0.008 A 
ATOM     24  C   UNL     1       1.316   1.500  23.477  0.00  0.00    +0.033 A 
ATOM     25  C   UNL     1       0.415   0.461  23.248  0.00  0.00    +0.023 A 
ATOM     26  C   UNL     1       0.847   2.764  23.834  0.00  0.00    +0.023 A 
ENDROOT
BRANCH  24   6
ATOM      4  O   UNL     1       2.856   0.010  21.373  0.00  0.00    -0.275 OA
ATOM      6  N   UNL     1       2.707   1.271  23.349  0.00  0.00    -0.285 N 
ATOM     27  C   UNL     1       3.359   0.566  22.346  0.00  0.00    +0.218 C 
ATOM     29  H   UNL     1       3.277   1.674  24.088  0.00  0.00    +0.155 HD
BRANCH  27  18
ATOM     18  C   UNL     1       4.868   0.537  22.553  0.00  0.00    +0.102 C 
BRANCH  18  15
ATOM     15  C   UNL     1       5.348  -0.394  23.691  0.00  0.00    -0.029 C 
ATOM     21  C   UNL     1       5.449   0.368  25.024  0.00  0.00    +0.011 C 
ATOM     22  C   UNL     1       4.413  -1.601  23.868  0.00  0.00    +0.011 C 
ATOM     23  C   UNL     1       6.751  -0.916  23.322  0.00  0.00    +0.011 C 
ENDBRANCH  18  15
ENDBRANCH  27  18
ENDBRANCH  24   6
BRANCH  13   8
ATOM      8  C   UNL     1      -2.891   2.192  23.865  0.00  0.00    +0.167 C 
BRANCH   8   7
ATOM      1  O   UNL     1      -4.459   3.973  25.590  0.00  0.00    -0.369 OA
ATOM      3  O   UNL     1      -7.042   1.530  24.959  0.00  0.00    -0.273 OA
ATOM      5  N   UNL     1      -4.745   1.216  25.168  0.00  0.00    -0.291 N 
ATOM      7  C   UNL     1      -3.421   1.845  25.259  0.00  0.00    +0.135 C 
ATOM     10  C   UNL     1      -3.493   3.085  26.142  0.00  0.00    +0.185 C 
ATOM     12  C   UNL     1      -5.916   1.970  25.201  0.00  0.00    +0.242 C 
ATOM     14  C   UNL     1      -5.753   3.416  25.655  0.00  0.00    +0.255 C 
BRANCH   5   9
ATOM      9  C   UNL     1      -4.794  -0.206  24.855  0.00  0.00    +0.111 C 
BRANCH   9  11
ATOM     11  C   UNL     1      -3.459  -0.908  25.128  0.00  0.00    +0.000 C 
ATOM     16  C   UNL     1      -3.306  -2.119  24.206  0.00  0.00    +0.009 C 
ATOM     17  C   UNL     1      -3.340  -1.347  26.590  0.00  0.00    +0.009 C 
ENDBRANCH   9  11
ENDBRANCH   5   9
ENDBRANCH   8   7
BRANCH   8   2
ATOM      2  O   UNL     1      -3.605   1.419  22.893  0.00  0.00    -0.385 OA
ATOM     28  H   UNL     1      -3.051   0.659  22.644  0.00  0.00    +0.210 HD
ENDBRANCH   8   2
ENDBRANCH  13   8
TORSDOF 8
ENDMDL
MODEL 3
REMARK VINA RESULT:      -3.1      1.825      3.429
REMARK  Name = 56774712
REMARK  13 active torsions:
REMARK  status: ('A' for Active; 'I' for Inactive)
REMARK    1  A    between atoms: O_2  and  C_8
REMARK    2  A    between atoms: N_5  and  C_9
REMARK    3  A    between atoms: N_6  and  C_24
REMARK    4  A    between atoms: C_7  and  C_8
REMARK    5  A    between atoms: C_8  and  C_13
REMARK    6  A    between atoms: C_9  and  C_11
REMARK    7  A    between atoms: C_11  and  C_16
REMARK    8  A    between atoms: C_11  and  C_17
REMARK    9  A    between atoms: C_15  and  C_18
REMARK   10  A    between atoms: C_15  and  C_21
REMARK   11  A    between atoms: C_15  and  C_22
REMARK   12  A    between atoms: C_15  and  C_23
REMARK   13  A    between atoms: C_18  and  C_27
REMARK                            x       y       z     vdW  Elec       q    Type
REMARK                         _______ _______ _______ _____ _____    ______ ____
ROOT
ATOM     13  C   UNL     1      -2.024   0.153  24.186  0.00  0.00    -0.017 A 
ATOM     19  C   UNL     1      -1.544   0.931  23.134  0.00  0.00    +0.008 A 
ATOM     20  C   UNL     1      -1.185  -0.768  24.813  0.00  0.00    +0.008 A 
ATOM     24  C   UNL     1       0.617  -0.133  23.333  0.00  0.00    +0.033 A 
ATOM     25  C   UNL     1      -0.223   0.787  22.707  0.00  0.00    +0.023 A 
ATOM     26  C   UNL     1       0.135  -0.912  24.387  0.00  0.00    +0.023 A 
ENDROOT
BRANCH  24   6
ATOM      4  O   UNL     1       2.844   1.875  23.197  0.00  0.00    -0.275 OA
ATOM      6  N   UNL     1       1.956  -0.278  22.900  0.00  0.00    -0.285 N 
ATOM     27  C   UNL     1       2.942   0.698  22.859  0.00  0.00    +0.218 C 
ATOM     29  H   UNL     1       2.204  -1.212  22.582  0.00  0.00    +0.155 HD
BRANCH  27  18
ATOM     18  C   UNL     1       4.264   0.157  22.330  0.00  0.00    +0.102 C 
BRANCH  18  15
ATOM     15  C   UNL     1       5.257  -0.309  23.421  0.00  0.00    -0.029 C 
ATOM     21  C   UNL     1       6.652  -0.565  22.826  0.00  0.00    +0.011 C 
ATOM     22  C   UNL     1       5.372   0.719  24.558  0.00  0.00    +0.011 C 
ATOM     23  C   UNL     1       4.730  -1.632  24.012  0.00  0.00    +0.011 C 
ENDBRANCH  18  15
ENDBRANCH  27  18
ENDBRANCH  24   6
BRANCH  13   8
ATOM      8  C   UNL     1      -3.435   0.306  24.644  0.00  0.00    +0.167 C 
BRANCH   8   7
ATOM      1  O   UNL     1      -5.922   1.505  25.638  0.00  0.00    -0.369 OA
ATOM      3  O   UNL     1      -3.690   4.176  26.600  0.00  0.00    -0.273 OA
ATOM      5  N   UNL     1      -3.581   2.767  24.751  0.00  0.00    -0.291 N 
ATOM      7  C   UNL     1      -4.104   1.566  24.087  0.00  0.00    +0.135 C 
ATOM     10  C   UNL     1      -5.618   1.500  24.248  0.00  0.00    +0.185 C 
ATOM     12  C   UNL     1      -4.174   3.283  25.901  0.00  0.00    +0.242 C 
ATOM     14  C   UNL     1      -5.556   2.731  26.231  0.00  0.00    +0.255 C 
BRANCH   5   9
ATOM      9  C   UNL     1      -2.310   3.298  24.276  0.00  0.00    +0.111 C 
BRANCH   9  11
ATOM     11  C   UNL     1      -1.471   3.902  25.408  0.00  0.00    +0.000 C 
ATOM     16  C   UNL     1      -0.807   5.196  24.935  0.00  0.00    +0.009 C 
ATOM     17  C   UNL     1      -0.407   2.921  25.907  0.00  0.00    +0.009 C 
ENDBRANCH   9  11
ENDBRANCH   5   9
ENDBRANCH   8   7
BRANCH   8   2
ATOM      2  O   UNL     1      -3.482   0.352  26.075  0.00  0.00    -0.385 OA
ATOM     28  H   UNL     1      -4.390   0.145  26.355  0.00  0.00    +0.210 HD
ENDBRANCH   8   2
ENDBRANCH  13   8
TORSDOF 8
ENDMDL
MODEL 4
REMARK VINA RESULT:      -0.3      1.352      2.234
REMARK  Name = 56774712
REMARK  13 active torsions:
REMARK  status: ('A' for Active; 'I' for Inactive)
REMARK    1  A    between atoms: O_2  and  C_8
REMARK    2  A    between atoms: N_5  and  C_9
REMARK    3  A    between atoms: N_6  and  C_24
REMARK    4  A    between atoms: C_7  and  C_8
REMARK    5  A    between atoms: C_8  and  C_13
REMARK    6  A    between atoms: C_9  and  C_11
REMARK    7  A    between atoms: C_11  and  C_16
REMARK    8  A    between atoms: C_11  and  C_17
REMARK    9  A    between atoms: C_15  and  C_18
REMARK   10  A    between atoms: C_15  and  C_21
REMARK   11  A    between atoms: C_15  and  C_22
REMARK   12  A    between atoms: C_15  and  C_23
REMARK   13  A    between atoms: C_18  and  C_27
REMARK                            x       y       z     vdW  Elec       q    Type
REMARK                         _______ _______ _______ _____ _____    ______ ____
ROOT
ATOM     13  C   UNL     1      -1.403   2.571  24.997  0.00  0.00    -0.017 A 
ATOM     19  C   UNL     1      -0.627   3.527  24.341  0.00  0.00    +0.008 A 
ATOM     20  C   UNL     1      -0.918   1.274  25.164  0.00  0.00    +0.008 A 
ATOM     24  C   UNL     1       1.119   1.888  24.019  0.00  0.00    +0.033 A 
ATOM     25  C   UNL     1       0.634   3.185  23.851  0.00  0.00    +0.023 A 
ATOM     26  C   UNL     1       0.343   0.932  24.675  0.00  0.00    +0.023 A 
ENDROOT
BRANCH  24   6
ATOM      4  O   UNL     1       1.942  -0.272  22.102  0.00  0.00    -0.275 OA
ATOM      6  N   UNL     1       2.398   1.542  23.522  0.00  0.00    -0.285 N 
ATOM     27  C   UNL     1       2.714   0.523  22.634  0.00  0.00    +0.218 C 
ATOM     29  H   UNL     1       3.162   2.116  23.871  0.00  0.00    +0.155 HD
BRANCH  27  18
ATOM     18  C   UNL     1       4.206   0.463  22.335  0.00  0.00    +0.102 C 
BRANCH  18  15
ATOM     15  C   UNL     1       5.055  -0.249  23.416  0.00  0.00    -0.029 C 
ATOM     21  C   UNL     1       5.281   0.666  24.632  0.00  0.00    +0.011 C 
ATOM     22  C   UNL     1       4.396  -1.557  23.883  0.00  0.00    +0.011 C 
ATOM     23  C   UNL     1       6.426  -0.587  22.800  0.00  0.00    +0.011 C 
ENDBRANCH  18  15
ENDBRANCH  27  18
ENDBRANCH  24   6
BRANCH  13   8
ATOM      8  C   UNL     1      -2.750   2.935  25.521  0.00  0.00    +0.167 C 
BRANCH   8   7
ATOM      1  O   UNL     1      -2.392   2.241  22.693  0.00  0.00    -0.369 OA
ATOM      3  O   UNL     1      -3.678  -0.945  23.805  0.00  0.00    -0.273 OA
ATOM      5  N   UNL     1      -4.207   1.193  24.556  0.00  0.00    -0.291 N 
ATOM      7  C   UNL     1      -3.875   2.623  24.529  0.00  0.00    +0.135 C 
ATOM     10  C   UNL     1      -3.489   3.042  23.115  0.00  0.00    +0.185 C 
ATOM     12  C   UNL     1      -3.573   0.279  23.716  0.00  0.00    +0.242 C 
ATOM     14  C   UNL     1      -2.771   0.888  22.571  0.00  0.00    +0.255 C 
BRANCH   5   9
ATOM      9  C   UNL     1      -5.089   0.728  25.618  0.00  0.00    +0.111 C 
BRANCH   9  11
ATOM     11  C   UNL     1      -6.094   1.801  26.052  0.00  0.00    +0.000 C 
ATOM     16  C   UNL     1      -6.839   1.343  27.307  0.00  0.00    +0.009 C 
ATOM     17  C   UNL     1      -7.093   2.122  24.939  0.00  0.00    +0.009 C 
ENDBRANCH   9  11
ENDBRANCH   5   9
ENDBRANCH   8   7
BRANCH   8   2
ATOM      2  O   UNL     1      -2.790   4.331  25.840  0.00  0.00    -0.385 OA
ATOM     28  H   UNL     1      -3.630   4.515  26.294  0.00  0.00    +0.210 HD
ENDBRANCH   8   2
ENDBRANCH  13   8
TORSDOF 8
ENDMDL
