MODEL 1
REMARK VINA RESULT:      -4.1      0.000      0.000
REMARK  Name = 75537135
REMARK  8 active torsions:
REMARK  status: ('A' for Active; 'I' for Inactive)
REMARK    1  A    between atoms: O_2  and  C_17
REMARK    2  A    between atoms: O_2  and  C_23
REMARK    3  A    between atoms: O_3  and  C_24
REMARK    4  A    between atoms: N_6  and  C_14
REMARK    5  A    between atoms: N_7  and  C_15
REMARK    6  A    between atoms: C_14  and  C_16
REMARK    7  A    between atoms: C_15  and  C_17
REMARK    8  A    between atoms: C_22  and  C_24
REMARK                            x       y       z     vdW  Elec       q    Type
REMARK                         _______ _______ _______ _____ _____    ______ ____
ROOT
ATOM      1  O   UNL     1      -4.475  -9.904  17.718  0.00  0.00    -0.252 OA
ATOM      5  N   UNL     1      -4.647 -10.469  15.443  0.00  0.00    -0.278 N 
ATOM      6  N   UNL     1      -4.015 -10.553  12.704  0.00  0.00    -0.295 NA
ATOM      7  N   UNL     1      -6.517  -9.876  16.537  0.00  0.00    -0.281 N 
ATOM      8  C   UNL     1      -5.711 -10.676  14.483  0.00  0.00    +0.109 C 
ATOM      9  C   UNL     1      -5.339 -10.059  13.136  0.00  0.00    +0.109 C 
ATOM     10  C   UNL     1      -6.933 -10.056  15.157  0.00  0.00    +0.133 C 
ATOM     11  C   UNL     1      -3.284 -10.781  15.069  0.00  0.00    +0.125 C 
ATOM     12  C   UNL     1      -2.974 -10.196  13.689  0.00  0.00    +0.104 C 
ATOM     13  C   UNL     1      -5.130 -10.067  16.696  0.00  0.00    +0.305 C 
ENDROOT
BRANCH   6  14
ATOM     14  C   UNL     1      -3.676 -10.015  11.387  0.00  0.00    +0.119 C 
BRANCH  14  16
ATOM     16  C   UNL     1      -4.901  -9.596  10.619  0.00  0.00    -0.033 A 
ATOM     18  C   UNL     1      -5.065  -8.264  10.241  0.00  0.00    +0.006 A 
ATOM     19  C   UNL     1      -5.873 -10.540  10.286  0.00  0.00    +0.006 A 
ATOM     20  C   UNL     1      -6.201  -7.875   9.530  0.00  0.00    +0.015 A 
ATOM     21  C   UNL     1      -7.008 -10.152   9.576  0.00  0.00    +0.015 A 
ATOM     22  C   UNL     1      -7.172  -8.819   9.197  0.00  0.00    +0.059 A 
BRANCH  22  24
ATOM      4  O   UNL     1      -9.288  -9.159   8.133  0.00  0.00    -0.245 OA
ATOM     24  C   UNL     1      -8.356  -8.415   8.455  0.00  0.00    +0.337 C 
BRANCH  24   3
ATOM      3  O   UNL     1      -8.342  -7.092   8.134  0.00  0.00    -0.477 OA
ATOM     25  H   UNL     1      -7.438  -6.777   7.919  0.00  0.00    +0.295 HD
ENDBRANCH  24   3
ENDBRANCH  22  24
ENDBRANCH  14  16
ENDBRANCH   6  14
BRANCH   7  15
ATOM     15  C   UNL     1      -7.428  -9.407  17.558  0.00  0.00    +0.137 C 
BRANCH  15  17
ATOM     17  C   UNL     1      -8.840  -9.259  17.022  0.00  0.00    +0.178 C 
BRANCH  17   2
ATOM      2  O   UNL     1      -9.278  -7.919  17.208  0.00  0.00    -0.381 OA
ATOM     23  C   UNL     1     -10.696  -7.827  17.189  0.00  0.00    +0.194 C 
ENDBRANCH  17   2
ENDBRANCH  15  17
ENDBRANCH   7  15
TORSDOF 7
ENDMDL
MODEL 2
REMARK VINA RESULT:      -1.9      4.174      5.856
REMARK  Name = 75537135
REMARK  8 active torsions:
REMARK  status: ('A' for Active; 'I' for Inactive)
REMARK    1  A    between atoms: O_2  and  C_17
REMARK    2  A    between atoms: O_2  and  C_23
REMARK    3  A    between atoms: O_3  and  C_24
REMARK    4  A    between atoms: N_6  and  C_14
REMARK    5  A    between atoms: N_7  and  C_15
REMARK    6  A    between atoms: C_14  and  C_16
REMARK    7  A    between atoms: C_15  and  C_17
REMARK    8  A    between atoms: C_22  and  C_24
REMARK                            x       y       z     vdW  Elec       q    Type
REMARK                         _______ _______ _______ _____ _____    ______ ____
ROOT
ATOM      1  O   UNL     1      -3.191 -10.321  17.560  0.00  0.00    -0.252 OA
ATOM      5  N   UNL     1      -3.175 -10.616  15.229  0.00  0.00    -0.278 N 
ATOM      6  N   UNL     1      -2.368 -10.320  12.551  0.00  0.00    -0.295 NA
ATOM      7  N   UNL     1      -5.151 -10.297  16.247  0.00  0.00    -0.281 N 
ATOM      8  C   UNL     1      -4.156 -10.781  14.177  0.00  0.00    +0.109 C 
ATOM      9  C   UNL     1      -3.751  -9.979  12.941  0.00  0.00    +0.109 C 
ATOM     10  C   UNL     1      -5.464 -10.337  14.830  0.00  0.00    +0.133 C 
ATOM     11  C   UNL     1      -1.770 -10.781  14.920  0.00  0.00    +0.125 C 
ATOM     12  C   UNL     1      -1.422 -10.011  13.642  0.00  0.00    +0.104 C 
ATOM     13  C   UNL     1      -3.765 -10.405  16.482  0.00  0.00    +0.305 C 
ENDROOT
BRANCH   6  14
ATOM     14  C   UNL     1      -1.991  -9.603  11.333  0.00  0.00    +0.119 C 
BRANCH  14  16
ATOM     16  C   UNL     1      -0.712  -8.830  11.512  0.00  0.00    -0.033 A 
ATOM     18  C   UNL     1      -0.635  -7.824  12.475  0.00  0.00    +0.006 A 
ATOM     19  C   UNL     1       0.396  -9.118  10.714  0.00  0.00    +0.006 A 
ATOM     20  C   UNL     1       0.550  -7.106  12.641  0.00  0.00    +0.015 A 
ATOM     21  C   UNL     1       1.580  -8.401  10.880  0.00  0.00    +0.015 A 
ATOM     22  C   UNL     1       1.657  -7.395  11.844  0.00  0.00    +0.059 A 
BRANCH  22  24
ATOM      4  O   UNL     1       4.033  -7.119  11.933  0.00  0.00    -0.245 OA
ATOM     24  C   UNL     1       2.894  -6.648  12.017  0.00  0.00    +0.337 C 
BRANCH  24   3
ATOM      3  O   UNL     1       2.673  -5.333  12.292  0.00  0.00    -0.477 OA
ATOM     25  H   UNL     1       2.241  -5.210  13.163  0.00  0.00    +0.295 HD
ENDBRANCH  24   3
ENDBRANCH  22  24
ENDBRANCH  14  16
ENDBRANCH   6  14
BRANCH   7  15
ATOM     15  C   UNL     1      -6.159 -10.023  17.248  0.00  0.00    +0.137 C 
BRANCH  15  17
ATOM     17  C   UNL     1      -7.546  -9.943  16.637  0.00  0.00    +0.178 C 
BRANCH  17   2
ATOM      2  O   UNL     1      -8.384  -9.153  17.469  0.00  0.00    -0.381 OA
ATOM     23  C   UNL     1      -9.759  -9.432  17.240  0.00  0.00    +0.194 C 
ENDBRANCH  17   2
ENDBRANCH  15  17
ENDBRANCH   7  15
TORSDOF 7
ENDMDL
MODEL 3
REMARK VINA RESULT:      -0.6     16.088     17.686
REMARK  Name = 75537135
REMARK  8 active torsions:
REMARK  status: ('A' for Active; 'I' for Inactive)
REMARK    1  A    between atoms: O_2  and  C_17
REMARK    2  A    between atoms: O_2  and  C_23
REMARK    3  A    between atoms: O_3  and  C_24
REMARK    4  A    between atoms: N_6  and  C_14
REMARK    5  A    between atoms: N_7  and  C_15
REMARK    6  A    between atoms: C_14  and  C_16
REMARK    7  A    between atoms: C_15  and  C_17
REMARK    8  A    between atoms: C_22  and  C_24
REMARK                            x       y       z     vdW  Elec       q    Type
REMARK                         _______ _______ _______ _____ _____    ______ ____
ROOT
ATOM      1  O   UNL     1      -2.094   4.632  26.156  0.00  0.00    -0.252 OA
ATOM      5  N   UNL     1      -1.578   2.561  25.172  0.00  0.00    -0.278 N 
ATOM      6  N   UNL     1      -0.143   0.635  23.709  0.00  0.00    -0.295 NA
ATOM      7  N   UNL     1      -3.678   3.336  24.982  0.00  0.00    -0.281 N 
ATOM      8  C   UNL     1      -2.302   1.490  24.520  0.00  0.00    +0.109 C 
ATOM      9  C   UNL     1      -1.522   0.980  23.310  0.00  0.00    +0.109 C 
ATOM     10  C   UNL     1      -3.657   2.117  24.193  0.00  0.00    +0.133 C 
ATOM     11  C   UNL     1      -0.174   2.384  25.475  0.00  0.00    +0.125 C 
ATOM     12  C   UNL     1       0.557   1.815  24.256  0.00  0.00    +0.104 C 
ATOM     13  C   UNL     1      -2.410   3.634  25.521  0.00  0.00    +0.305 C 
ENDROOT
BRANCH   6  14
ATOM     14  C   UNL     1       0.596   0.088  22.571  0.00  0.00    +0.119 C 
BRANCH  14  16
ATOM     16  C   UNL     1       2.063  -0.056  22.872  0.00  0.00    -0.033 A 
ATOM     18  C   UNL     1       2.945   0.977  22.550  0.00  0.00    +0.006 A 
ATOM     19  C   UNL     1       2.543  -1.220  23.473  0.00  0.00    +0.006 A 
ATOM     20  C   UNL     1       4.305   0.844  22.828  0.00  0.00    +0.015 A 
ATOM     21  C   UNL     1       3.902  -1.352  23.752  0.00  0.00    +0.015 A 
ATOM     22  C   UNL     1       4.784  -0.320  23.430  0.00  0.00    +0.059 A 
BRANCH  22  24
ATOM      4  O   UNL     1       7.124  -0.129  22.968  0.00  0.00    -0.245 OA
ATOM     24  C   UNL     1       6.202  -0.458  23.722  0.00  0.00    +0.337 C 
BRANCH  24   3
ATOM      3  O   UNL     1       6.431  -1.004  24.947  0.00  0.00    -0.477 OA
ATOM     25  H   UNL     1       6.224  -0.376  25.672  0.00  0.00    +0.295 HD
ENDBRANCH  24   3
ENDBRANCH  22  24
ENDBRANCH  14  16
ENDBRANCH   6  14
BRANCH   7  15
ATOM     15  C   UNL     1      -4.845   4.188  25.047  0.00  0.00    +0.137 C 
BRANCH  15  17
ATOM     17  C   UNL     1      -6.081   3.410  25.459  0.00  0.00    +0.178 C 
BRANCH  17   2
ATOM      2  O   UNL     1      -5.814   2.704  26.664  0.00  0.00    -0.381 OA
ATOM     23  C   UNL     1      -6.233   1.349  26.577  0.00  0.00    +0.194 C 
ENDBRANCH  17   2
ENDBRANCH  15  17
ENDBRANCH   7  15
TORSDOF 7
ENDMDL
