MODEL 1
REMARK VINA RESULT:       2.3      0.000      0.000
REMARK  Name = 26763134
REMARK  9 active torsions:
REMARK  status: ('A' for Active; 'I' for Inactive)
REMARK    1  A    between atoms: S_1  and  C_19
REMARK    2  A    between atoms: S_1  and  C_25
REMARK    3  A    between atoms: N_9  and  C_13
REMARK    4  A    between atoms: N_10  and  C_21
REMARK    5  A    between atoms: N_10  and  C_22
REMARK    6  A    between atoms: N_11  and  C_24
REMARK    7  A    between atoms: C_14  and  C_17
REMARK    8  A    between atoms: C_18  and  C_19
REMARK    9  A    between atoms: C_21  and  C_23
REMARK                            x       y       z     vdW  Elec       q    Type
REMARK                         _______ _______ _______ _____ _____    ______ ____
ROOT
ATOM      5  O   UNL     1      -4.880   1.965  26.145  0.00  0.00    -0.275 OA
ATOM      8  N   UNL     1      -3.580   2.006  24.231  0.00  0.00    -0.287 N 
ATOM     13  C   UNL     1      -2.094   1.667  22.409  0.00  0.00    +0.094 C 
ATOM     14  C   UNL     1      -3.289   0.580  24.204  0.00  0.00    +0.164 C 
ATOM     15  C   UNL     1      -2.693   0.321  22.822  0.00  0.00    +0.056 C 
ATOM     16  C   UNL     1      -3.023   2.686  23.061  0.00  0.00    +0.131 C 
ATOM     18  C   UNL     1      -4.429   2.569  25.170  0.00  0.00    +0.226 C 
ENDROOT
BRANCH  13   9
ATOM      6  O   UNL     1      -0.019  -0.302  22.263  0.00  0.00    -0.252 OA
ATOM      9  N   UNL     1      -0.735   1.812  22.866  0.00  0.00    -0.295 N 
ATOM     11  N   UNL     1       1.446   1.221  23.284  0.00  0.00    -0.267 N 
ATOM     20  C   UNL     1       0.223   0.796  22.757  0.00  0.00    +0.304 C 
ATOM     31  H   UNL     1      -0.473   2.670  23.342  0.00  0.00    +0.151 HD
ATOM     32  H   UNL     1       1.482   2.167  23.658  0.00  0.00    +0.156 HD
BRANCH  11  24
ATOM      2  F   UNL     1       3.887   2.376  22.593  0.00  0.00    -0.203 F 
ATOM      3  F   UNL     1       6.187  -1.635  23.594  0.00  0.00    -0.205 F 
ATOM     24  C   UNL     1       2.658   0.495  23.362  0.00  0.00    +0.070 A 
ATOM     26  C   UNL     1       3.862   1.102  23.009  0.00  0.00    +0.147 A 
ATOM     27  C   UNL     1       2.645  -0.832  23.793  0.00  0.00    +0.029 A 
ATOM     28  C   UNL     1       5.055   0.383  23.088  0.00  0.00    +0.078 A 
ATOM     29  C   UNL     1       3.837  -1.551  23.872  0.00  0.00    +0.040 A 
ATOM     30  C   UNL     1       5.043  -0.944  23.519  0.00  0.00    +0.126 A 
ENDBRANCH  11  24
ENDBRANCH  13   9
BRANCH  14  17
ATOM      4  O   UNL     1      -1.402   1.070  25.537  0.00  0.00    -0.274 OA
ATOM     10  N   UNL     1      -2.490  -0.939  25.972  0.00  0.00    -0.294 N 
ATOM     17  C   UNL     1      -2.307   0.267  25.293  0.00  0.00    +0.236 C 
ATOM     22  C   UNL     1      -1.608  -1.366  27.052  0.00  0.00    +0.132 C 
BRANCH  10  21
ATOM     21  C   UNL     1      -3.576  -1.860  25.652  0.00  0.00    +0.202 C 
BRANCH  21  23
ATOM      7  O   UNL     1      -2.094  -3.004  24.117  0.00  0.00    -0.274 OA
ATOM     12  N   UNL     1      -4.330  -2.861  23.603  0.00  0.00    -0.328 N 
ATOM     23  C   UNL     1      -3.231  -2.643  24.406  0.00  0.00    +0.228 C 
ATOM     33  H   UNL     1      -5.259  -2.541  23.856  0.00  0.00    +0.145 HD
ATOM     34  H   UNL     1      -4.244  -3.363  22.725  0.00  0.00    +0.145 HD
ENDBRANCH  21  23
ENDBRANCH  10  21
ENDBRANCH  14  17
BRANCH  18  19
ATOM     19  C   UNL     1      -4.781   4.018  24.943  0.00  0.00    +0.164 C 
BRANCH  19   1
ATOM      1  S   UNL     1      -3.792   5.006  26.076  0.00  0.00    -0.155 S 
ATOM     25  C   UNL     1      -2.157   4.691  25.366  0.00  0.00    +0.085 C 
ENDBRANCH  19   1
ENDBRANCH  18  19
TORSDOF 7
ENDMDL
MODEL 2
REMARK VINA RESULT:       3.1      1.506      1.763
REMARK  Name = 26763134
REMARK  9 active torsions:
REMARK  status: ('A' for Active; 'I' for Inactive)
REMARK    1  A    between atoms: S_1  and  C_19
REMARK    2  A    between atoms: S_1  and  C_25
REMARK    3  A    between atoms: N_9  and  C_13
REMARK    4  A    between atoms: N_10  and  C_21
REMARK    5  A    between atoms: N_10  and  C_22
REMARK    6  A    between atoms: N_11  and  C_24
REMARK    7  A    between atoms: C_14  and  C_17
REMARK    8  A    between atoms: C_18  and  C_19
REMARK    9  A    between atoms: C_21  and  C_23
REMARK                            x       y       z     vdW  Elec       q    Type
REMARK                         _______ _______ _______ _____ _____    ______ ____
ROOT
ATOM      5  O   UNL     1      -1.563   2.959  26.978  0.00  0.00    -0.275 OA
ATOM      8  N   UNL     1      -1.602   2.345  24.746  0.00  0.00    -0.287 N 
ATOM     13  C   UNL     1      -1.699   1.314  22.609  0.00  0.00    +0.094 C 
ATOM     14  C   UNL     1      -2.269   1.067  24.943  0.00  0.00    +0.164 C 
ATOM     15  C   UNL     1      -2.690   0.619  23.545  0.00  0.00    +0.056 C 
ATOM     16  C   UNL     1      -1.391   2.625  23.326  0.00  0.00    +0.131 C 
ATOM     18  C   UNL     1      -1.375   3.229  25.790  0.00  0.00    +0.226 C 
ENDROOT
BRANCH  13   9
ATOM      6  O   UNL     1       0.865   1.731  23.816  0.00  0.00    -0.252 OA
ATOM      9  N   UNL     1      -0.511   0.524  22.403  0.00  0.00    -0.295 N 
ATOM     11  N   UNL     1       1.678  -0.132  22.643  0.00  0.00    -0.267 N 
ATOM     20  C   UNL     1       0.709   0.796  23.035  0.00  0.00    +0.304 C 
ATOM     31  H   UNL     1      -0.543  -0.229  21.723  0.00  0.00    +0.151 HD
ATOM     32  H   UNL     1       1.387  -0.850  21.984  0.00  0.00    +0.156 HD
BRANCH  11  24
ATOM      2  F   UNL     1       3.386   2.059  22.420  0.00  0.00    -0.203 F 
ATOM      3  F   UNL     1       6.974  -0.418  24.257  0.00  0.00    -0.205 F 
ATOM     24  C   UNL     1       3.030  -0.202  23.054  0.00  0.00    +0.070 A 
ATOM     26  C   UNL     1       3.859   0.913  22.929  0.00  0.00    +0.147 A 
ATOM     27  C   UNL     1       3.534  -1.390  23.584  0.00  0.00    +0.029 A 
ATOM     28  C   UNL     1       5.191   0.840  23.336  0.00  0.00    +0.078 A 
ATOM     29  C   UNL     1       4.866  -1.463  23.991  0.00  0.00    +0.040 A 
ATOM     30  C   UNL     1       5.695  -0.347  23.866  0.00  0.00    +0.126 A 
ENDBRANCH  11  24
ENDBRANCH  13   9
BRANCH  14  17
ATOM      4  O   UNL     1      -0.505   0.512  26.412  0.00  0.00    -0.274 OA
ATOM     10  N   UNL     1      -1.359  -1.217  25.113  0.00  0.00    -0.294 N 
ATOM     17  C   UNL     1      -1.297   0.105  25.558  0.00  0.00    +0.236 C 
ATOM     22  C   UNL     1      -0.473  -2.254  25.628  0.00  0.00    +0.132 C 
BRANCH  10  21
ATOM     21  C   UNL     1      -2.315  -1.657  24.101  0.00  0.00    +0.202 C 
BRANCH  21  23
ATOM      7  O   UNL     1      -3.633  -2.410  25.987  0.00  0.00    -0.274 OA
ATOM     12  N   UNL     1      -4.414  -2.799  23.860  0.00  0.00    -0.328 N 
ATOM     23  C   UNL     1      -3.507  -2.301  24.771  0.00  0.00    +0.228 C 
ATOM     33  H   UNL     1      -4.281  -2.709  22.858  0.00  0.00    +0.145 HD
ATOM     34  H   UNL     1      -5.257  -3.271  24.168  0.00  0.00    +0.145 HD
ENDBRANCH  21  23
ENDBRANCH  10  21
ENDBRANCH  14  17
BRANCH  18  19
ATOM     19  C   UNL     1      -0.855   4.587  25.391  0.00  0.00    +0.164 C 
BRANCH  19   1
ATOM      1  S   UNL     1      -2.274   5.638  25.048  0.00  0.00    -0.155 S 
ATOM     25  C   UNL     1      -3.584   4.541  25.646  0.00  0.00    +0.085 C 
ENDBRANCH  19   1
ENDBRANCH  18  19
TORSDOF 7
ENDMDL
MODEL 3
REMARK VINA RESULT:       4.7      2.708      3.873
REMARK  Name = 26763134
REMARK  9 active torsions:
REMARK  status: ('A' for Active; 'I' for Inactive)
REMARK    1  A    between atoms: S_1  and  C_19
REMARK    2  A    between atoms: S_1  and  C_25
REMARK    3  A    between atoms: N_9  and  C_13
REMARK    4  A    between atoms: N_10  and  C_21
REMARK    5  A    between atoms: N_10  and  C_22
REMARK    6  A    between atoms: N_11  and  C_24
REMARK    7  A    between atoms: C_14  and  C_17
REMARK    8  A    between atoms: C_18  and  C_19
REMARK    9  A    between atoms: C_21  and  C_23
REMARK                            x       y       z     vdW  Elec       q    Type
REMARK                         _______ _______ _______ _____ _____    ______ ____
ROOT
ATOM      5  O   UNL     1      -2.867   4.309  26.292  0.00  0.00    -0.275 OA
ATOM      8  N   UNL     1      -2.524   2.282  25.228  0.00  0.00    -0.287 N 
ATOM     13  C   UNL     1      -1.818   0.175  24.388  0.00  0.00    +0.094 C 
ATOM     14  C   UNL     1      -1.629   1.724  26.232  0.00  0.00    +0.164 C 
ATOM     15  C   UNL     1      -1.522   0.240  25.888  0.00  0.00    +0.056 C 
ATOM     16  C   UNL     1      -2.813   1.312  24.172  0.00  0.00    +0.131 C 
ATOM     18  C   UNL     1      -3.137   3.515  25.389  0.00  0.00    +0.226 C 
ENDROOT
BRANCH  13   9
ATOM      6  O   UNL     1       0.848  -0.570  25.122  0.00  0.00    -0.252 OA
ATOM      9  N   UNL     1      -0.626   0.350  23.597  0.00  0.00    -0.295 N 
ATOM     11  N   UNL     1       1.606   0.251  23.058  0.00  0.00    -0.267 N 
ATOM     20  C   UNL     1       0.646  -0.044  24.031  0.00  0.00    +0.304 C 
ATOM     31  H   UNL     1      -0.702   0.834  22.707  0.00  0.00    +0.151 HD
ATOM     32  H   UNL     1       1.273   0.690  22.203  0.00  0.00    +0.156 HD
BRANCH  11  24
ATOM      2  F   UNL     1       3.454   2.270  22.537  0.00  0.00    -0.203 F 
ATOM      3  F   UNL     1       7.063  -0.700  23.271  0.00  0.00    -0.205 F 
ATOM     24  C   UNL     1       2.999   0.011  23.112  0.00  0.00    +0.070 A 
ATOM     26  C   UNL     1       3.898   1.044  22.846  0.00  0.00    +0.147 A 
ATOM     27  C   UNL     1       3.473  -1.262  23.431  0.00  0.00    +0.029 A 
ATOM     28  C   UNL     1       5.270   0.804  22.900  0.00  0.00    +0.078 A 
ATOM     29  C   UNL     1       4.845  -1.502  23.486  0.00  0.00    +0.040 A 
ATOM     30  C   UNL     1       5.745  -0.469  23.219  0.00  0.00    +0.126 A 
ENDBRANCH  11  24
ENDBRANCH  13   9
BRANCH  14  17
ATOM      4  O   UNL     1       0.035   2.915  25.053  0.00  0.00    -0.274 OA
ATOM     10  N   UNL     1       0.486   2.429  27.281  0.00  0.00    -0.294 N 
ATOM     17  C   UNL     1      -0.300   2.409  26.127  0.00  0.00    +0.236 C 
ATOM     22  C   UNL     1       1.799   3.061  27.318  0.00  0.00    +0.132 C 
BRANCH  10  21
ATOM     21  C   UNL     1       0.051   1.819  28.534  0.00  0.00    +0.202 C 
BRANCH  21  23
ATOM      7  O   UNL     1       0.591   3.294  30.376  0.00  0.00    -0.274 OA
ATOM     12  N   UNL     1       2.080   1.638  29.806  0.00  0.00    -0.328 N 
ATOM     23  C   UNL     1       0.898   2.334  29.674  0.00  0.00    +0.228 C 
ATOM     33  H   UNL     1       2.319   0.856  29.204  0.00  0.00    +0.145 HD
ATOM     34  H   UNL     1       2.754   1.884  30.523  0.00  0.00    +0.145 HD
ENDBRANCH  21  23
ENDBRANCH  10  21
ENDBRANCH  14  17
BRANCH  18  19
ATOM     19  C   UNL     1      -4.183   3.860  24.359  0.00  0.00    +0.164 C 
BRANCH  19   1
ATOM      1  S   UNL     1      -5.773   3.935  25.197  0.00  0.00    -0.155 S 
ATOM     25  C   UNL     1      -6.013   2.167  25.499  0.00  0.00    +0.085 C 
ENDBRANCH  19   1
ENDBRANCH  18  19
TORSDOF 7
ENDMDL
MODEL 4
REMARK VINA RESULT:       5.5      1.847      2.712
REMARK  Name = 26763134
REMARK  9 active torsions:
REMARK  status: ('A' for Active; 'I' for Inactive)
REMARK    1  A    between atoms: S_1  and  C_19
REMARK    2  A    between atoms: S_1  and  C_25
REMARK    3  A    between atoms: N_9  and  C_13
REMARK    4  A    between atoms: N_10  and  C_21
REMARK    5  A    between atoms: N_10  and  C_22
REMARK    6  A    between atoms: N_11  and  C_24
REMARK    7  A    between atoms: C_14  and  C_17
REMARK    8  A    between atoms: C_18  and  C_19
REMARK    9  A    between atoms: C_21  and  C_23
REMARK                            x       y       z     vdW  Elec       q    Type
REMARK                         _______ _______ _______ _____ _____    ______ ____
ROOT
ATOM      5  O   UNL     1      -3.356   3.360  26.534  0.00  0.00    -0.275 OA
ATOM      8  N   UNL     1      -2.486   2.847  24.451  0.00  0.00    -0.287 N 
ATOM     13  C   UNL     1      -1.781   1.934  22.375  0.00  0.00    +0.094 C 
ATOM     14  C   UNL     1      -3.373   1.725  24.179  0.00  0.00    +0.164 C 
ATOM     15  C   UNL     1      -3.188   1.423  22.693  0.00  0.00    +0.056 C 
ATOM     16  C   UNL     1      -1.615   3.128  23.310  0.00  0.00    +0.131 C 
ATOM     18  C   UNL     1      -2.611   3.627  25.590  0.00  0.00    +0.226 C 
ENDROOT
BRANCH  13   9
ATOM      6  O   UNL     1       1.017   2.371  22.801  0.00  0.00    -0.252 OA
ATOM      9  N   UNL     1      -0.778   0.927  22.610  0.00  0.00    -0.295 N 
ATOM     11  N   UNL     1       1.309   0.051  23.011  0.00  0.00    -0.267 N 
ATOM     20  C   UNL     1       0.576   1.225  22.810  0.00  0.00    +0.304 C 
ATOM     31  H   UNL     1      -1.054  -0.050  22.571  0.00  0.00    +0.151 HD
ATOM     32  H   UNL     1       0.791  -0.823  22.989  0.00  0.00    +0.156 HD
BRANCH  11  24
ATOM      2  F   UNL     1       2.380  -2.207  24.244  0.00  0.00    -0.203 F 
ATOM      3  F   UNL     1       6.754  -0.434  23.930  0.00  0.00    -0.205 F 
ATOM     24  C   UNL     1       2.698  -0.075  23.247  0.00  0.00    +0.070 A 
ATOM     26  C   UNL     1       3.202  -1.218  23.866  0.00  0.00    +0.147 A 
ATOM     27  C   UNL     1       3.564   0.948  22.859  0.00  0.00    +0.029 A 
ATOM     28  C   UNL     1       4.572  -1.340  24.097  0.00  0.00    +0.078 A 
ATOM     29  C   UNL     1       4.934   0.826  23.089  0.00  0.00    +0.040 A 
ATOM     30  C   UNL     1       5.439  -0.318  23.709  0.00  0.00    +0.126 A 
ENDBRANCH  11  24
ENDBRANCH  13   9
BRANCH  14  17
ATOM      4  O   UNL     1      -1.777   0.456  25.370  0.00  0.00    -0.274 OA
ATOM     10  N   UNL     1      -3.962  -0.336  25.394  0.00  0.00    -0.294 N 
ATOM     17  C   UNL     1      -2.958   0.564  25.032  0.00  0.00    +0.236 C 
ATOM     22  C   UNL     1      -3.697  -1.507  26.220  0.00  0.00    +0.132 C 
BRANCH  10  21
ATOM     21  C   UNL     1      -5.350  -0.170  24.973  0.00  0.00    +0.202 C 
BRANCH  21  23
ATOM      7  O   UNL     1      -5.909   1.292  26.820  0.00  0.00    -0.274 OA
ATOM     12  N   UNL     1      -6.541   1.897  24.694  0.00  0.00    -0.328 N 
ATOM     23  C   UNL     1      -5.933   1.069  25.613  0.00  0.00    +0.228 C 
ATOM     33  H   UNL     1      -6.560   1.685  23.702  0.00  0.00    +0.145 HD
ATOM     34  H   UNL     1      -6.988   2.761  24.985  0.00  0.00    +0.145 HD
ENDBRANCH  21  23
ENDBRANCH  10  21
ENDBRANCH  14  17
BRANCH  18  19
ATOM     19  C   UNL     1      -1.748   4.864  25.627  0.00  0.00    +0.164 C 
BRANCH  19   1
ATOM      1  S   UNL     1      -0.070   4.374  25.204  0.00  0.00    -0.155 S 
ATOM     25  C   UNL     1       0.089   2.944  26.303  0.00  0.00    +0.085 C 
ENDBRANCH  19   1
ENDBRANCH  18  19
TORSDOF 7
ENDMDL
MODEL 5
REMARK VINA RESULT:       6.3      3.804      5.211
REMARK  Name = 26763134
REMARK  9 active torsions:
REMARK  status: ('A' for Active; 'I' for Inactive)
REMARK    1  A    between atoms: S_1  and  C_19
REMARK    2  A    between atoms: S_1  and  C_25
REMARK    3  A    between atoms: N_9  and  C_13
REMARK    4  A    between atoms: N_10  and  C_21
REMARK    5  A    between atoms: N_10  and  C_22
REMARK    6  A    between atoms: N_11  and  C_24
REMARK    7  A    between atoms: C_14  and  C_17
REMARK    8  A    between atoms: C_18  and  C_19
REMARK    9  A    between atoms: C_21  and  C_23
REMARK                            x       y       z     vdW  Elec       q    Type
REMARK                         _______ _______ _______ _____ _____    ______ ____
ROOT
ATOM      5  O   UNL     1      -4.504   0.504  24.628  0.00  0.00    -0.275 OA
ATOM      8  N   UNL     1      -2.754   1.967  24.238  0.00  0.00    -0.287 N 
ATOM     13  C   UNL     1      -0.727   3.110  23.759  0.00  0.00    +0.094 C 
ATOM     14  C   UNL     1      -1.935   1.038  23.473  0.00  0.00    +0.164 C 
ATOM     15  C   UNL     1      -0.850   1.899  22.830  0.00  0.00    +0.056 C 
ATOM     16  C   UNL     1      -2.144   3.296  24.290  0.00  0.00    +0.131 C 
ATOM     18  C   UNL     1      -4.022   1.637  24.688  0.00  0.00    +0.226 C 
ENDROOT
BRANCH  13   9
ATOM      6  O   UNL     1      -1.291   3.046  26.566  0.00  0.00    -0.252 OA
ATOM      9  N   UNL     1       0.217   2.877  24.822  0.00  0.00    -0.295 N 
ATOM     11  N   UNL     1       0.980   2.615  26.974  0.00  0.00    -0.267 N 
ATOM     20  C   UNL     1      -0.141   2.862  26.176  0.00  0.00    +0.304 C 
ATOM     31  H   UNL     1       1.200   2.778  24.584  0.00  0.00    +0.151 HD
ATOM     32  H   UNL     1       1.866   2.483  26.493  0.00  0.00    +0.156 HD
BRANCH  11  24
ATOM      2  F   UNL     1       3.351   1.987  28.298  0.00  0.00    -0.203 F 
ATOM      3  F   UNL     1       1.197   2.252  32.501  0.00  0.00    -0.205 F 
ATOM     24  C   UNL     1       1.038   2.522  28.385  0.00  0.00    +0.070 A 
ATOM     26  C   UNL     1       2.241   2.206  29.016  0.00  0.00    +0.147 A 
ATOM     27  C   UNL     1      -0.111   2.746  29.143  0.00  0.00    +0.029 A 
ATOM     28  C   UNL     1       2.294   2.115  30.407  0.00  0.00    +0.078 A 
ATOM     29  C   UNL     1      -0.057   2.655  30.534  0.00  0.00    +0.040 A 
ATOM     30  C   UNL     1       1.146   2.339  31.166  0.00  0.00    +0.126 A 
ENDBRANCH  11  24
ENDBRANCH  13   9
BRANCH  14  17
ATOM      4  O   UNL     1      -1.859  -0.130  25.524  0.00  0.00    -0.274 OA
ATOM     10  N   UNL     1      -0.241  -0.687  23.950  0.00  0.00    -0.294 N 
ATOM     17  C   UNL     1      -1.349   0.026  24.412  0.00  0.00    +0.236 C 
ATOM     22  C   UNL     1       0.426  -1.699  24.759  0.00  0.00    +0.132 C 
BRANCH  10  21
ATOM     21  C   UNL     1       0.330  -0.471  22.624  0.00  0.00    +0.202 C 
BRANCH  21  23
ATOM      7  O   UNL     1       2.018   0.866  23.731  0.00  0.00    -0.274 OA
ATOM     12  N   UNL     1       2.448   0.057  21.622  0.00  0.00    -0.328 N 
ATOM     23  C   UNL     1       1.673   0.211  22.752  0.00  0.00    +0.228 C 
ATOM     33  H   UNL     1       2.135  -0.478  20.818  0.00  0.00    +0.145 HD
ATOM     34  H   UNL     1       3.371   0.475  21.561  0.00  0.00    +0.145 HD
ENDBRANCH  21  23
ENDBRANCH  10  21
ENDBRANCH  14  17
BRANCH  18  19
ATOM     19  C   UNL     1      -4.815   2.770  25.289  0.00  0.00    +0.164 C 
BRANCH  19   1
ATOM      1  S   UNL     1      -6.536   2.254  25.367  0.00  0.00    -0.155 S 
ATOM     25  C   UNL     1      -6.553   1.588  27.050  0.00  0.00    +0.085 C 
ENDBRANCH  19   1
ENDBRANCH  18  19
TORSDOF 7
ENDMDL
MODEL 6
REMARK VINA RESULT:       6.3      3.771      4.764
REMARK  Name = 26763134
REMARK  9 active torsions:
REMARK  status: ('A' for Active; 'I' for Inactive)
REMARK    1  A    between atoms: S_1  and  C_19
REMARK    2  A    between atoms: S_1  and  C_25
REMARK    3  A    between atoms: N_9  and  C_13
REMARK    4  A    between atoms: N_10  and  C_21
REMARK    5  A    between atoms: N_10  and  C_22
REMARK    6  A    between atoms: N_11  and  C_24
REMARK    7  A    between atoms: C_14  and  C_17
REMARK    8  A    between atoms: C_18  and  C_19
REMARK    9  A    between atoms: C_21  and  C_23
REMARK                            x       y       z     vdW  Elec       q    Type
REMARK                         _______ _______ _______ _____ _____    ______ ____
ROOT
ATOM      5  O   UNL     1      -4.332   0.515  24.708  0.00  0.00    -0.275 OA
ATOM      8  N   UNL     1      -2.486   1.827  24.233  0.00  0.00    -0.287 N 
ATOM     13  C   UNL     1      -0.377   2.798  23.727  0.00  0.00    +0.094 C 
ATOM     14  C   UNL     1      -1.681   0.766  23.645  0.00  0.00    +0.164 C 
ATOM     15  C   UNL     1      -0.519   1.481  22.959  0.00  0.00    +0.056 C 
ATOM     16  C   UNL     1      -1.808   3.121  24.146  0.00  0.00    +0.131 C 
ATOM     18  C   UNL     1      -3.792   1.621  24.647  0.00  0.00    +0.226 C 
ENDROOT
BRANCH  13   9
ATOM      6  O   UNL     1      -1.137   2.867  26.487  0.00  0.00    -0.252 OA
ATOM      9  N   UNL     1       0.497   2.665  24.865  0.00  0.00    -0.295 N 
ATOM     11  N   UNL     1       1.114   2.555  27.076  0.00  0.00    -0.267 N 
ATOM     20  C   UNL     1       0.044   2.710  26.189  0.00  0.00    +0.304 C 
ATOM     31  H   UNL     1       1.497   2.593  24.701  0.00  0.00    +0.151 HD
ATOM     32  H   UNL     1       2.036   2.434  26.665  0.00  0.00    +0.156 HD
BRANCH  11  24
ATOM      2  F   UNL     1       3.348   1.862  28.590  0.00  0.00    -0.203 F 
ATOM      3  F   UNL     1       0.950   2.510  32.617  0.00  0.00    -0.205 F 
ATOM     24  C   UNL     1       1.075   2.542  28.490  0.00  0.00    +0.070 A 
ATOM     26  C   UNL     1       2.210   2.191  29.218  0.00  0.00    +0.147 A 
ATOM     27  C   UNL     1      -0.104   2.883  29.155  0.00  0.00    +0.029 A 
ATOM     28  C   UNL     1       2.169   2.181  30.612  0.00  0.00    +0.078 A 
ATOM     29  C   UNL     1      -0.146   2.872  30.549  0.00  0.00    +0.040 A 
ATOM     30  C   UNL     1       0.991   2.520  31.278  0.00  0.00    +0.126 A 
ENDBRANCH  11  24
ENDBRANCH  13   9
BRANCH  14  17
ATOM      4  O   UNL     1      -0.562   0.342  25.680  0.00  0.00    -0.274 OA
ATOM     10  N   UNL     1      -1.518  -1.492  24.618  0.00  0.00    -0.294 N 
ATOM     17  C   UNL     1      -1.201  -0.137  24.740  0.00  0.00    +0.236 C 
ATOM     22  C   UNL     1      -1.113  -2.479  25.611  0.00  0.00    +0.132 C 
BRANCH  10  21
ATOM     21  C   UNL     1      -2.278  -2.017  23.488  0.00  0.00    +0.202 C 
BRANCH  21  23
ATOM      7  O   UNL     1      -3.635  -3.781  24.442  0.00  0.00    -0.274 OA
ATOM     12  N   UNL     1      -4.649  -1.816  23.815  0.00  0.00    -0.328 N 
ATOM     23  C   UNL     1      -3.561  -2.645  23.983  0.00  0.00    +0.228 C 
ATOM     33  H   UNL     1      -4.565  -0.884  23.420  0.00  0.00    +0.145 HD
ATOM     34  H   UNL     1      -5.579  -2.113  24.090  0.00  0.00    +0.145 HD
ENDBRANCH  21  23
ENDBRANCH  10  21
ENDBRANCH  14  17
BRANCH  18  19
ATOM     19  C   UNL     1      -4.551   2.861  25.048  0.00  0.00    +0.164 C 
BRANCH  19   1
ATOM      1  S   UNL     1      -6.297   2.436  25.118  0.00  0.00    -0.155 S 
ATOM     25  C   UNL     1      -6.371   1.838  26.825  0.00  0.00    +0.085 C 
ENDBRANCH  19   1
ENDBRANCH  18  19
TORSDOF 7
ENDMDL
