MODEL 1
REMARK VINA RESULT:      -2.5      0.000      0.000
REMARK  Name = 11885915
REMARK  5 active torsions:
REMARK  status: ('A' for Active; 'I' for Inactive)
REMARK    1  A    between atoms: O_4  and  C_29
REMARK    2  A    between atoms: O_4  and  C_34
REMARK    3  A    between atoms: N_7  and  C_20
REMARK    4  A    between atoms: N_9  and  C_28
REMARK    5  A    between atoms: C_19  and  C_22
REMARK                            x       y       z     vdW  Elec       q    Type
REMARK                         _______ _______ _______ _____ _____    ______ ____
ROOT
ATOM      1  O   UNL     1      14.103  -7.191  27.410  0.00  0.00    -0.266 OA
ATOM      2  O   UNL     1      12.858  -5.115  31.983  0.00  0.00    -0.268 OA
ATOM      5  N   UNL     1      14.072  -7.072  32.398  0.00  0.00    -0.295 N 
ATOM      6  N   UNL     1      14.840  -8.014  29.469  0.00  0.00    -0.310 N 
ATOM     10  C   UNL     1      13.261  -9.084  31.179  0.00  0.00    +0.027 C 
ATOM     11  C   UNL     1      15.656  -8.853  31.701  0.00  0.00    +0.054 C 
ATOM     12  C   UNL     1      14.499  -9.849  31.632  0.00  0.00    +0.018 C 
ATOM     13  C   UNL     1      12.930  -7.958  32.176  0.00  0.00    +0.113 C 
ATOM     14  C   UNL     1      13.503  -8.548  29.762  0.00  0.00    +0.130 C 
ATOM     15  C   UNL     1      15.332  -7.755  32.734  0.00  0.00    +0.117 C 
ATOM     16  C   UNL     1      15.911  -8.219  30.346  0.00  0.00    +0.027 A 
ATOM     17  C   UNL     1      17.149  -7.825  30.005  0.00  0.00    +0.024 A 
ATOM     18  C   UNL     1      15.010  -7.379  28.222  0.00  0.00    +0.273 A 
ATOM     19  C   UNL     1      13.908  -5.691  32.264  0.00  0.00    +0.265 C 
ATOM     20  C   UNL     1      16.400  -6.929  27.893  0.00  0.00    +0.100 A 
ATOM     21  C   UNL     1      17.396  -7.166  28.754  0.00  0.00    +0.030 A 
ENDROOT
BRANCH  20   7
ATOM      3  O   UNL     1      16.580  -4.117  27.506  0.00  0.00    -0.252 OA
ATOM      7  N   UNL     1      16.601  -6.293  26.704  0.00  0.00    -0.265 N 
ATOM      9  N   UNL     1      16.895  -4.564  25.223  0.00  0.00    -0.266 N 
ATOM     24  C   UNL     1      16.683  -4.901  26.564  0.00  0.00    +0.308 C 
ATOM     35  H   UNL     1      16.441  -6.834  25.859  0.00  0.00    +0.157 HD
ATOM     36  H   UNL     1      16.956  -5.335  24.564  0.00  0.00    +0.156 HD
BRANCH   9  28
ATOM     28  C   UNL     1      17.033  -3.273  24.663  0.00  0.00    +0.077 A 
ATOM     29  C   UNL     1      16.935  -3.097  23.291  0.00  0.00    +0.141 A 
ATOM     30  C   UNL     1      17.267  -2.201  25.511  0.00  0.00    +0.027 A 
ATOM     31  C   UNL     1      17.073  -1.817  22.754  0.00  0.00    +0.047 A 
ATOM     32  C   UNL     1      17.405  -0.921  24.974  0.00  0.00    +0.002 A 
ATOM     33  C   UNL     1      17.308  -0.730  23.595  0.00  0.00    +0.004 A 
BRANCH  29   4
ATOM      4  O   UNL     1      16.706  -4.147  22.453  0.00  0.00    -0.493 OA
ATOM     34  C   UNL     1      17.195  -5.421  22.865  0.00  0.00    +0.277 C 
ENDBRANCH  29   4
ENDBRANCH   9  28
ENDBRANCH  20   7
BRANCH  19  22
ATOM      8  N   UNL     1      14.860  -3.511  32.364  0.00  0.00    -0.250 NA
ATOM     22  C   UNL     1      15.086  -4.838  32.450  0.00  0.00    +0.126 A 
ATOM     23  C   UNL     1      16.322  -5.409  32.692  0.00  0.00    +0.033 A 
ATOM     25  C   UNL     1      17.405  -4.555  32.860  0.00  0.00    +0.004 A 
ATOM     26  C   UNL     1      15.938  -2.712  32.533  0.00  0.00    +0.111 A 
ATOM     27  C   UNL     1      17.218  -3.179  32.780  0.00  0.00    +0.020 A 
ENDBRANCH  19  22
TORSDOF 4
ENDMDL
MODEL 2
REMARK VINA RESULT:      -2.3      1.409      2.081
REMARK  Name = 11885915
REMARK  5 active torsions:
REMARK  status: ('A' for Active; 'I' for Inactive)
REMARK    1  A    between atoms: O_4  and  C_29
REMARK    2  A    between atoms: O_4  and  C_34
REMARK    3  A    between atoms: N_7  and  C_20
REMARK    4  A    between atoms: N_9  and  C_28
REMARK    5  A    between atoms: C_19  and  C_22
REMARK                            x       y       z     vdW  Elec       q    Type
REMARK                         _______ _______ _______ _____ _____    ______ ____
ROOT
ATOM      1  O   UNL     1      14.592  -8.246  26.682  0.00  0.00    -0.266 OA
ATOM      2  O   UNL     1      11.994  -6.228  30.675  0.00  0.00    -0.268 OA
ATOM      5  N   UNL     1      13.232  -8.044  31.478  0.00  0.00    -0.295 N 
ATOM      6  N   UNL     1      14.832  -8.954  28.895  0.00  0.00    -0.310 N 
ATOM     10  C   UNL     1      12.964 -10.149  30.178  0.00  0.00    +0.027 C 
ATOM     11  C   UNL     1      15.103  -9.666  31.297  0.00  0.00    +0.054 C 
ATOM     12  C   UNL     1      14.104 -10.776  30.973  0.00  0.00    +0.018 C 
ATOM     13  C   UNL     1      12.278  -9.045  31.004  0.00  0.00    +0.113 C 
ATOM     14  C   UNL     1      13.521  -9.616  28.852  0.00  0.00    +0.130 C 
ATOM     15  C   UNL     1      14.416  -8.589  32.161  0.00  0.00    +0.117 C 
ATOM     16  C   UNL     1      15.647  -9.034  30.030  0.00  0.00    +0.027 A 
ATOM     17  C   UNL     1      16.889  -8.522  30.008  0.00  0.00    +0.024 A 
ATOM     18  C   UNL     1      15.266  -8.326  27.710  0.00  0.00    +0.273 A 
ATOM     19  C   UNL     1      12.981  -6.690  31.245  0.00  0.00    +0.265 C 
ATOM     20  C   UNL     1      16.644  -7.744  27.736  0.00  0.00    +0.100 A 
ATOM     21  C   UNL     1      17.395  -7.863  28.837  0.00  0.00    +0.030 A 
ENDROOT
BRANCH  20   7
ATOM      3  O   UNL     1      16.065  -5.065  26.977  0.00  0.00    -0.252 OA
ATOM      7  N   UNL     1      17.093  -7.112  26.615  0.00  0.00    -0.265 N 
ATOM      9  N   UNL     1      17.392  -5.435  25.076  0.00  0.00    -0.266 N 
ATOM     24  C   UNL     1      16.778  -5.786  26.283  0.00  0.00    +0.308 C 
ATOM     35  H   UNL     1      17.466  -7.698  25.873  0.00  0.00    +0.157 HD
ATOM     36  H   UNL     1      17.953  -6.152  24.624  0.00  0.00    +0.156 HD
BRANCH   9  28
ATOM     28  C   UNL     1      17.326  -4.196  24.398  0.00  0.00    +0.077 A 
ATOM     29  C   UNL     1      17.304  -3.010  25.117  0.00  0.00    +0.141 A 
ATOM     30  C   UNL     1      17.286  -4.197  23.012  0.00  0.00    +0.027 A 
ATOM     31  C   UNL     1      17.241  -1.797  24.433  0.00  0.00    +0.047 A 
ATOM     32  C   UNL     1      17.221  -2.982  22.328  0.00  0.00    +0.002 A 
ATOM     33  C   UNL     1      17.199  -1.782  23.039  0.00  0.00    +0.004 A 
BRANCH  29   4
ATOM      4  O   UNL     1      17.344  -3.004  26.480  0.00  0.00    -0.493 OA
ATOM     34  C   UNL     1      17.345  -1.730  27.120  0.00  0.00    +0.277 C 
ENDBRANCH  29   4
ENDBRANCH   9  28
ENDBRANCH  20   7
BRANCH  19  22
ATOM      8  N   UNL     1      15.251  -5.975  31.316  0.00  0.00    -0.250 NA
ATOM     22  C   UNL     1      13.983  -5.718  31.695  0.00  0.00    +0.126 A 
ATOM     23  C   UNL     1      13.597  -4.630  32.456  0.00  0.00    +0.033 A 
ATOM     25  C   UNL     1      14.586  -3.740  32.857  0.00  0.00    +0.004 A 
ATOM     26  C   UNL     1      16.185  -5.087  31.725  0.00  0.00    +0.111 A 
ATOM     27  C   UNL     1      15.908  -3.966  32.489  0.00  0.00    +0.020 A 
ENDBRANCH  19  22
TORSDOF 4
ENDMDL
