MODEL 1
REMARK VINA RESULT:       8.4      0.000      0.000
REMARK  Name = 38029028
REMARK  11 active torsions:
REMARK  status: ('A' for Active; 'I' for Inactive)
REMARK    1  A    between atoms: O_3  and  C_29
REMARK    2  A    between atoms: O_3  and  C_37
REMARK    3  A    between atoms: N_4  and  C_16
REMARK    4  A    between atoms: C_8  and  C_12
REMARK    5  A    between atoms: C_9  and  C_16
REMARK    6  A    between atoms: C_11  and  C_15
REMARK    7  A    between atoms: C_12  and  C_17
REMARK    8  A    between atoms: C_12  and  C_18
REMARK    9  A    between atoms: C_13  and  C_19
REMARK   10  A    between atoms: C_15  and  C_20
REMARK   11  A    between atoms: C_25  and  C_27
REMARK                            x       y       z     vdW  Elec       q    Type
REMARK                         _______ _______ _______ _____ _____    ______ ____
ROOT
ATOM      8  C   UNL     1      -3.826   1.795  23.692  0.00  0.00    +0.000 C 
ATOM      9  C   UNL     1      -4.705   3.011  24.074  0.00  0.00    +0.032 C 
ATOM     10  C   UNL     1      -4.632   0.492  23.810  0.00  0.00    +0.012 C 
ATOM     11  C   UNL     1      -5.177   0.271  25.233  0.00  0.00    +0.023 C 
ATOM     13  C   UNL     1      -5.829   1.522  25.787  0.00  0.00    -0.073 C 
ATOM     14  C   UNL     1      -5.617   2.737  25.247  0.00  0.00    -0.022 C 
ATOM     19  C   UNL     1      -6.767   1.341  26.947  0.00  0.00    +0.039 C 
ENDROOT
BRANCH   8  12
ATOM     12  C   UNL     1      -3.257   1.926  22.275  0.00  0.00    -0.013 C 
ATOM     17  C   UNL     1      -3.787   3.189  21.603  0.00  0.00    +0.007 C 
ATOM     18  C   UNL     1      -1.732   1.931  22.312  0.00  0.00    +0.007 C 
ENDBRANCH   8  12
BRANCH  11  15
ATOM     15  C   UNL     1      -4.079  -0.238  26.173  0.00  0.00    +0.103 C 
BRANCH  15  20
ATOM      1  O   UNL     1      -3.805  -2.476  25.430  0.00  0.00    -0.276 OA
ATOM      5  N   UNL     1      -2.045  -1.015  25.014  0.00  0.00    -0.298 N 
ATOM      6  N   UNL     1       0.488  -0.382  23.765  0.00  0.00    -0.312 N 
ATOM      7  N   UNL     1       2.703   0.428  23.883  0.00  0.00    -0.240 NA
ATOM     20  C   UNL     1      -3.308  -1.350  25.507  0.00  0.00    +0.216 C 
ATOM     21  C   UNL     1      -1.235  -2.038  24.359  0.00  0.00    +0.126 C 
ATOM     22  C   UNL     1      -1.462   0.325  25.097  0.00  0.00    +0.126 C 
ATOM     23  C   UNL     1      -0.367  -1.453  23.246  0.00  0.00    +0.125 C 
ATOM     24  C   UNL     1       0.062   0.315  24.981  0.00  0.00    +0.125 C 
ATOM     26  C   UNL     1       1.689  -0.063  23.136  0.00  0.00    +0.121 A 
ATOM     28  C   UNL     1       1.763  -0.272  21.768  0.00  0.00    +0.043 A 
ATOM     31  C   UNL     1       2.955   0.042  21.125  0.00  0.00    +0.005 A 
ATOM     33  C   UNL     1       3.846   0.722  23.224  0.00  0.00    +0.113 A 
ATOM     35  C   UNL     1       4.022   0.549  21.860  0.00  0.00    +0.020 A 
ENDBRANCH  15  20
ENDBRANCH  11  15
BRANCH   9  16
ATOM     16  C   UNL     1      -3.844   4.244  24.374  0.00  0.00    +0.112 C 
BRANCH  16   4
ATOM      2  O   UNL     1      -3.333   3.844  27.170  0.00  0.00    -0.270 OA
ATOM      4  N   UNL     1      -2.602   3.861  24.968  0.00  0.00    -0.311 N 
ATOM     25  C   UNL     1      -2.440   3.688  26.343  0.00  0.00    +0.248 C 
ATOM     38  H   UNL     1      -1.814   3.722  24.345  0.00  0.00    +0.149 HD
BRANCH  25  27
ATOM     27  C   UNL     1      -1.078   3.314  26.805  0.00  0.00    +0.078 A 
ATOM     29  C   UNL     1       0.015   3.389  25.941  0.00  0.00    +0.132 A 
ATOM     30  C   UNL     1      -0.902   2.881  28.118  0.00  0.00    +0.017 A 
ATOM     32  C   UNL     1       1.285   3.032  26.393  0.00  0.00    +0.046 A 
ATOM     34  C   UNL     1       0.369   2.524  28.570  0.00  0.00    +0.001 A 
ATOM     36  C   UNL     1       1.462   2.599  27.708  0.00  0.00    +0.004 A 
BRANCH  29   3
ATOM      3  O   UNL     1      -0.138   3.806  24.653  0.00  0.00    -0.494 OA
ATOM     37  C   UNL     1      -0.163   5.214  24.428  0.00  0.00    +0.277 C 
ENDBRANCH  29   3
ENDBRANCH  25  27
ENDBRANCH  16   4
ENDBRANCH   9  16
TORSDOF 7
ENDMDL
MODEL 2
REMARK VINA RESULT:      11.0      1.799      4.995
REMARK  Name = 38029028
REMARK  11 active torsions:
REMARK  status: ('A' for Active; 'I' for Inactive)
REMARK    1  A    between atoms: O_3  and  C_29
REMARK    2  A    between atoms: O_3  and  C_37
REMARK    3  A    between atoms: N_4  and  C_16
REMARK    4  A    between atoms: C_8  and  C_12
REMARK    5  A    between atoms: C_9  and  C_16
REMARK    6  A    between atoms: C_11  and  C_15
REMARK    7  A    between atoms: C_12  and  C_17
REMARK    8  A    between atoms: C_12  and  C_18
REMARK    9  A    between atoms: C_13  and  C_19
REMARK   10  A    between atoms: C_15  and  C_20
REMARK   11  A    between atoms: C_25  and  C_27
REMARK                            x       y       z     vdW  Elec       q    Type
REMARK                         _______ _______ _______ _____ _____    ______ ____
ROOT
ATOM      8  C   UNL     1      -4.401   2.860  24.737  0.00  0.00    +0.000 C 
ATOM      9  C   UNL     1      -4.309   3.023  23.199  0.00  0.00    +0.032 C 
ATOM     10  C   UNL     1      -4.998   4.125  25.375  0.00  0.00    +0.012 C 
ATOM     11  C   UNL     1      -4.163   5.382  25.067  0.00  0.00    +0.023 C 
ATOM     13  C   UNL     1      -3.801   5.472  23.598  0.00  0.00    -0.073 C 
ATOM     14  C   UNL     1      -3.885   4.410  22.775  0.00  0.00    -0.022 C 
ATOM     19  C   UNL     1      -3.383   6.821  23.084  0.00  0.00    +0.039 C 
ENDROOT
BRANCH   8  12
ATOM     12  C   UNL     1      -5.237   1.638  25.131  0.00  0.00    -0.013 C 
ATOM     17  C   UNL     1      -4.396   0.657  25.942  0.00  0.00    +0.007 C 
ATOM     18  C   UNL     1      -6.473   2.068  25.913  0.00  0.00    +0.007 C 
ENDBRANCH   8  12
BRANCH  11  15
ATOM     15  C   UNL     1      -2.909   5.442  25.946  0.00  0.00    +0.103 C 
BRANCH  15  20
ATOM      1  O   UNL     1      -3.156   3.528  27.331  0.00  0.00    -0.276 OA
ATOM      5  N   UNL     1      -1.479   3.444  25.724  0.00  0.00    -0.298 N 
ATOM      6  N   UNL     1       0.552   2.005  24.247  0.00  0.00    -0.312 N 
ATOM      7  N   UNL     1       2.759   1.804  23.429  0.00  0.00    -0.240 NA
ATOM     20  C   UNL     1      -2.536   4.053  26.403  0.00  0.00    +0.216 C 
ATOM     21  C   UNL     1      -1.054   2.102  26.111  0.00  0.00    +0.126 C 
ATOM     22  C   UNL     1      -0.751   4.064  24.615  0.00  0.00    +0.126 C 
ATOM     23  C   UNL     1      -0.543   1.298  24.916  0.00  0.00    +0.125 C 
ATOM     24  C   UNL     1       0.637   3.459  24.407  0.00  0.00    +0.125 C 
ATOM     26  C   UNL     1       1.505   1.305  23.510  0.00  0.00    +0.121 A 
ATOM     28  C   UNL     1       1.096   0.129  22.901  0.00  0.00    +0.043 A 
ATOM     31  C   UNL     1       2.036  -0.580  22.161  0.00  0.00    +0.005 A 
ATOM     33  C   UNL     1       3.644   1.087  22.702  0.00  0.00    +0.113 A 
ATOM     35  C   UNL     1       3.336  -0.100  22.055  0.00  0.00    +0.020 A 
ENDBRANCH  15  20
ENDBRANCH  11  15
BRANCH   9  16
ATOM     16  C   UNL     1      -3.353   1.989  22.591  0.00  0.00    +0.112 C 
BRANCH  16   4
ATOM      2  O   UNL     1      -1.411  -0.114  22.796  0.00  0.00    -0.270 OA
ATOM      4  N   UNL     1      -3.546   0.707  23.190  0.00  0.00    -0.311 N 
ATOM     25  C   UNL     1      -2.543  -0.262  23.248  0.00  0.00    +0.248 C 
ATOM     38  H   UNL     1      -4.462   0.510  23.578  0.00  0.00    +0.149 HD
BRANCH  25  27
ATOM     27  C   UNL     1      -2.910  -1.554  23.882  0.00  0.00    +0.078 A 
ATOM     29  C   UNL     1      -2.085  -2.139  24.844  0.00  0.00    +0.132 A 
ATOM     30  C   UNL     1      -4.095  -2.184  23.503  0.00  0.00    +0.017 A 
ATOM     32  C   UNL     1      -2.446  -3.353  25.427  0.00  0.00    +0.046 A 
ATOM     34  C   UNL     1      -4.456  -3.399  24.087  0.00  0.00    +0.001 A 
ATOM     36  C   UNL     1      -3.632  -3.984  25.048  0.00  0.00    +0.004 A 
BRANCH  29   3
ATOM      3  O   UNL     1      -0.922  -1.539  25.225  0.00  0.00    -0.494 OA
ATOM     37  C   UNL     1       0.209  -2.387  25.420  0.00  0.00    +0.277 C 
ENDBRANCH  29   3
ENDBRANCH  25  27
ENDBRANCH  16   4
ENDBRANCH   9  16
TORSDOF 7
ENDMDL
MODEL 3
REMARK VINA RESULT:      11.6      2.163      5.787
REMARK  Name = 38029028
REMARK  11 active torsions:
REMARK  status: ('A' for Active; 'I' for Inactive)
REMARK    1  A    between atoms: O_3  and  C_29
REMARK    2  A    between atoms: O_3  and  C_37
REMARK    3  A    between atoms: N_4  and  C_16
REMARK    4  A    between atoms: C_8  and  C_12
REMARK    5  A    between atoms: C_9  and  C_16
REMARK    6  A    between atoms: C_11  and  C_15
REMARK    7  A    between atoms: C_12  and  C_17
REMARK    8  A    between atoms: C_12  and  C_18
REMARK    9  A    between atoms: C_13  and  C_19
REMARK   10  A    between atoms: C_15  and  C_20
REMARK   11  A    between atoms: C_25  and  C_27
REMARK                            x       y       z     vdW  Elec       q    Type
REMARK                         _______ _______ _______ _____ _____    ______ ____
ROOT
ATOM      8  C   UNL     1      -2.505   2.809  23.474  0.00  0.00    +0.000 C 
ATOM      9  C   UNL     1      -1.004   2.490  23.264  0.00  0.00    +0.032 C 
ATOM     10  C   UNL     1      -2.710   4.320  23.668  0.00  0.00    +0.012 C 
ATOM     11  C   UNL     1      -1.922   4.864  24.875  0.00  0.00    +0.023 C 
ATOM     13  C   UNL     1      -0.490   4.370  24.882  0.00  0.00    -0.073 C 
ATOM     14  C   UNL     1      -0.095   3.315  24.145  0.00  0.00    -0.022 C 
ATOM     19  C   UNL     1       0.490   5.142  25.720  0.00  0.00    +0.039 C 
ENDROOT
BRANCH   8  12
ATOM     12  C   UNL     1      -3.361   2.316  22.303  0.00  0.00    -0.013 C 
ATOM     17  C   UNL     1      -4.308   3.417  21.835  0.00  0.00    +0.007 C 
ATOM     18  C   UNL     1      -2.472   1.844  21.157  0.00  0.00    +0.007 C 
ENDBRANCH   8  12
BRANCH  11  15
ATOM     15  C   UNL     1      -2.627   4.525  26.193  0.00  0.00    +0.103 C 
BRANCH  15  20
ATOM      1  O   UNL     1      -4.981   4.520  25.879  0.00  0.00    -0.276 OA
ATOM      5  N   UNL     1      -3.901   2.470  25.706  0.00  0.00    -0.298 N 
ATOM      6  N   UNL     1      -3.896  -0.350  25.049  0.00  0.00    -0.312 N 
ATOM      7  N   UNL     1      -3.416  -2.596  25.596  0.00  0.00    -0.240 NA
ATOM     20  C   UNL     1      -3.946   3.849  25.912  0.00  0.00    +0.216 C 
ATOM     21  C   UNL     1      -5.137   1.742  25.432  0.00  0.00    +0.126 C 
ATOM     22  C   UNL     1      -2.670   1.676  25.733  0.00  0.00    +0.126 C 
ATOM     23  C   UNL     1      -4.907   0.556  24.497  0.00  0.00    +0.125 C 
ATOM     24  C   UNL     1      -2.928   0.194  26.005  0.00  0.00    +0.125 C 
ATOM     26  C   UNL     1      -3.882  -1.698  24.700  0.00  0.00    +0.121 A 
ATOM     28  C   UNL     1      -4.354  -2.031  23.440  0.00  0.00    +0.043 A 
ATOM     31  C   UNL     1      -4.345  -3.373  23.076  0.00  0.00    +0.005 A 
ATOM     33  C   UNL     1      -3.423  -3.891  25.207  0.00  0.00    +0.113 A 
ATOM     35  C   UNL     1      -3.874  -4.327  23.971  0.00  0.00    +0.020 A 
ENDBRANCH  15  20
ENDBRANCH  11  15
BRANCH   9  16
ATOM     16  C   UNL     1      -0.718   1.000  23.489  0.00  0.00    +0.112 C 
BRANCH  16   4
ATOM      2  O   UNL     1       0.986  -0.643  21.867  0.00  0.00    -0.270 OA
ATOM      4  N   UNL     1       0.680   0.775  23.678  0.00  0.00    -0.311 N 
ATOM     25  C   UNL     1       1.436  -0.043  22.838  0.00  0.00    +0.248 C 
ATOM     38  H   UNL     1       1.121   1.234  24.468  0.00  0.00    +0.149 HD
BRANCH  25  27
ATOM     27  C   UNL     1       2.873  -0.194  23.184  0.00  0.00    +0.078 A 
ATOM     29  C   UNL     1       3.744   0.894  23.115  0.00  0.00    +0.132 A 
ATOM     30  C   UNL     1       3.348  -1.444  23.579  0.00  0.00    +0.017 A 
ATOM     32  C   UNL     1       5.090   0.731  23.443  0.00  0.00    +0.046 A 
ATOM     34  C   UNL     1       4.695  -1.607  23.906  0.00  0.00    +0.001 A 
ATOM     36  C   UNL     1       5.566  -0.520  23.838  0.00  0.00    +0.004 A 
BRANCH  29   3
ATOM      3  O   UNL     1       3.299   2.122  22.728  0.00  0.00    -0.494 OA
ATOM     37  C   UNL     1       4.162   2.887  21.888  0.00  0.00    +0.277 C 
ENDBRANCH  29   3
ENDBRANCH  25  27
ENDBRANCH  16   4
ENDBRANCH   9  16
TORSDOF 7
ENDMDL
MODEL 4
REMARK VINA RESULT:      12.1      2.012      4.761
REMARK  Name = 38029028
REMARK  11 active torsions:
REMARK  status: ('A' for Active; 'I' for Inactive)
REMARK    1  A    between atoms: O_3  and  C_29
REMARK    2  A    between atoms: O_3  and  C_37
REMARK    3  A    between atoms: N_4  and  C_16
REMARK    4  A    between atoms: C_8  and  C_12
REMARK    5  A    between atoms: C_9  and  C_16
REMARK    6  A    between atoms: C_11  and  C_15
REMARK    7  A    between atoms: C_12  and  C_17
REMARK    8  A    between atoms: C_12  and  C_18
REMARK    9  A    between atoms: C_13  and  C_19
REMARK   10  A    between atoms: C_15  and  C_20
REMARK   11  A    between atoms: C_25  and  C_27
REMARK                            x       y       z     vdW  Elec       q    Type
REMARK                         _______ _______ _______ _____ _____    ______ ____
ROOT
ATOM      8  C   UNL     1      -2.494   2.827  24.873  0.00  0.00    +0.000 C 
ATOM      9  C   UNL     1      -3.959   3.318  24.988  0.00  0.00    +0.032 C 
ATOM     10  C   UNL     1      -1.773   3.557  23.729  0.00  0.00    +0.012 C 
ATOM     11  C   UNL     1      -2.468   3.341  22.371  0.00  0.00    +0.023 C 
ATOM     13  C   UNL     1      -3.966   3.547  22.466  0.00  0.00    -0.073 C 
ATOM     14  C   UNL     1      -4.614   3.546  23.646  0.00  0.00    -0.022 C 
ATOM     19  C   UNL     1      -4.699   3.798  21.178  0.00  0.00    +0.039 C 
ENDROOT
BRANCH   8  12
ATOM     12  C   UNL     1      -1.723   3.026  26.182  0.00  0.00    -0.013 C 
ATOM     17  C   UNL     1      -0.223   3.097  25.911  0.00  0.00    +0.007 C 
ATOM     18  C   UNL     1      -2.204   4.285  26.896  0.00  0.00    +0.007 C 
ENDBRANCH   8  12
BRANCH  11  15
ATOM     15  C   UNL     1      -2.138   1.959  21.795  0.00  0.00    +0.103 C 
BRANCH  15  20
ATOM      1  O   UNL     1      -2.662   0.472  23.571  0.00  0.00    -0.276 OA
ATOM      5  N   UNL     1      -0.407   0.813  23.126  0.00  0.00    -0.298 N 
ATOM      6  N   UNL     1       2.386   0.159  23.518  0.00  0.00    -0.312 N 
ATOM      7  N   UNL     1       4.611   0.798  23.982  0.00  0.00    -0.240 NA
ATOM     20  C   UNL     1      -1.771   1.012  22.911  0.00  0.00    +0.216 C 
ATOM     21  C   UNL     1       0.030  -0.086  24.191  0.00  0.00    +0.126 C 
ATOM     22  C   UNL     1       0.650   1.447  22.334  0.00  0.00    +0.126 C 
ATOM     23  C   UNL     1       1.329  -0.806  23.834  0.00  0.00    +0.125 C 
ATOM     24  C   UNL     1       1.990   1.495  23.067  0.00  0.00    +0.125 C 
ATOM     26  C   UNL     1       3.728  -0.179  23.678  0.00  0.00    +0.121 A 
ATOM     28  C   UNL     1       4.070  -1.511  23.511  0.00  0.00    +0.043 A 
ATOM     31  C   UNL     1       5.406  -1.864  23.667  0.00  0.00    +0.005 A 
ATOM     33  C   UNL     1       5.900   0.418  24.126  0.00  0.00    +0.113 A 
ATOM     35  C   UNL     1       6.345  -0.887  23.981  0.00  0.00    +0.020 A 
ENDBRANCH  15  20
ENDBRANCH  11  15
BRANCH   9  16
ATOM     16  C   UNL     1      -4.807   2.338  25.809  0.00  0.00    +0.112 C 
BRANCH  16   4
ATOM      2  O   UNL     1      -5.986   0.406  24.044  0.00  0.00    -0.270 OA
ATOM      4  N   UNL     1      -4.370   0.993  25.603  0.00  0.00    -0.311 N 
ATOM     25  C   UNL     1      -5.004   0.117  24.721  0.00  0.00    +0.248 C 
ATOM     38  H   UNL     1      -3.566   0.680  26.136  0.00  0.00    +0.149 HD
BRANCH  25  27
ATOM     27  C   UNL     1      -4.443  -1.256  24.639  0.00  0.00    +0.078 A 
ATOM     29  C   UNL     1      -3.490  -1.695  25.559  0.00  0.00    +0.132 A 
ATOM     30  C   UNL     1      -4.878  -2.108  23.625  0.00  0.00    +0.017 A 
ATOM     32  C   UNL     1      -2.974  -2.988  25.464  0.00  0.00    +0.046 A 
ATOM     34  C   UNL     1      -4.362  -3.401  23.530  0.00  0.00    +0.001 A 
ATOM     36  C   UNL     1      -3.410  -3.841  24.449  0.00  0.00    +0.004 A 
BRANCH  29   3
ATOM      3  O   UNL     1      -3.050  -0.876  26.555  0.00  0.00    -0.494 OA
ATOM     37  C   UNL     1      -1.639  -0.700  26.672  0.00  0.00    +0.277 C 
ENDBRANCH  29   3
ENDBRANCH  25  27
ENDBRANCH  16   4
ENDBRANCH   9  16
TORSDOF 7
ENDMDL
