MODEL 1
REMARK VINA RESULT:      -3.4      0.000      0.000
REMARK  Name = 51137057
REMARK  4 active torsions:
REMARK  status: ('A' for Active; 'I' for Inactive)
REMARK    1  A    between atoms: N_2  and  C_9
REMARK    2  A    between atoms: C_5  and  C_10
REMARK    3  A    between atoms: C_9  and  C_11
REMARK    4  A    between atoms: C_18  and  C_23
REMARK                            x       y       z     vdW  Elec       q    Type
REMARK                         _______ _______ _______ _____ _____    ______ ____
ROOT
ATOM      2  N   UNL     1      -5.324   3.773  25.264  0.00  0.00    -0.297 NA
ATOM      5  C   UNL     1      -5.311   1.537  24.559  0.00  0.00    +0.090 C 
ATOM      6  C   UNL     1      -6.177   1.673  25.824  0.00  0.00    +0.029 C 
ATOM      7  C   UNL     1      -4.494   2.834  24.506  0.00  0.00    +0.097 C 
ATOM      8  C   UNL     1      -5.785   3.015  26.427  0.00  0.00    +0.085 C 
ENDROOT
BRANCH   5  10
ATOM      1  O   UNL     1      -3.129   0.475  24.789  0.00  0.00    -0.439 OA
ATOM      3  N   UNL     1      -4.812  -0.938  24.231  0.00  0.00    -0.213 NA
ATOM     10  C   UNL     1      -4.451   0.295  24.509  0.00  0.00    +0.201 A 
ATOM     12  C   UNL     1      -2.604  -0.781  24.674  0.00  0.00    +0.155 A 
ATOM     13  C   UNL     1      -3.637  -1.642  24.334  0.00  0.00    +0.110 A 
ATOM     16  C   UNL     1      -1.282  -1.164  24.859  0.00  0.00    +0.048 A 
ATOM     17  C   UNL     1      -3.352  -3.004  24.156  0.00  0.00    +0.031 A 
ATOM     21  C   UNL     1      -1.015  -2.525  24.677  0.00  0.00    +0.004 A 
ATOM     22  C   UNL     1      -2.028  -3.429  24.333  0.00  0.00    +0.002 A 
ENDBRANCH   5  10
BRANCH   2   9
ATOM      9  C   UNL     1      -4.598   4.977  25.640  0.00  0.00    +0.119 C 
BRANCH   9  11
ATOM     11  C   UNL     1      -3.114   4.827  25.428  0.00  0.00    -0.032 A 
ATOM     14  C   UNL     1      -2.458   3.680  25.876  0.00  0.00    +0.023 A 
ATOM     15  C   UNL     1      -2.397   5.835  24.784  0.00  0.00    +0.005 A 
ATOM     18  C   UNL     1      -1.083   3.542  25.679  0.00  0.00    +0.052 A 
ATOM     19  C   UNL     1      -1.023   5.696  24.586  0.00  0.00    +0.002 A 
ATOM     20  C   UNL     1      -0.366   4.550  25.034  0.00  0.00    +0.019 A 
BRANCH  18  23
ATOM      4  N   UNL     1       0.135   1.413  26.507  0.00  0.00    -0.191 NA
ATOM     23  C   UNL     1      -0.411   2.368  26.136  0.00  0.00    +0.099 C 
ENDBRANCH  18  23
ENDBRANCH   9  11
ENDBRANCH   2   9
TORSDOF 4
ENDMDL
MODEL 2
REMARK VINA RESULT:      -3.2      3.223      5.231
REMARK  Name = 51137057
REMARK  4 active torsions:
REMARK  status: ('A' for Active; 'I' for Inactive)
REMARK    1  A    between atoms: N_2  and  C_9
REMARK    2  A    between atoms: C_5  and  C_10
REMARK    3  A    between atoms: C_9  and  C_11
REMARK    4  A    between atoms: C_18  and  C_23
REMARK                            x       y       z     vdW  Elec       q    Type
REMARK                         _______ _______ _______ _____ _____    ______ ____
ROOT
ATOM      2  N   UNL     1      -3.099  -0.881  24.498  0.00  0.00    -0.297 NA
ATOM      5  C   UNL     1      -0.806  -1.352  24.360  0.00  0.00    +0.090 C 
ATOM      6  C   UNL     1      -1.190  -1.084  25.826  0.00  0.00    +0.029 C 
ATOM      7  C   UNL     1      -1.989  -0.814  23.544  0.00  0.00    +0.097 C 
ATOM      8  C   UNL     1      -2.543  -0.389  25.758  0.00  0.00    +0.085 C 
ENDROOT
BRANCH   5  10
ATOM      1  O   UNL     1       1.616  -1.541  24.162  0.00  0.00    -0.439 OA
ATOM      3  N   UNL     1       0.753   0.398  23.368  0.00  0.00    -0.213 NA
ATOM     10  C   UNL     1       0.520  -0.765  23.933  0.00  0.00    +0.201 A 
ATOM     12  C   UNL     1       2.649  -0.783  23.690  0.00  0.00    +0.155 A 
ATOM     13  C   UNL     1       2.117   0.402  23.205  0.00  0.00    +0.110 A 
ATOM     16  C   UNL     1       4.000  -1.107  23.681  0.00  0.00    +0.048 A 
ATOM     17  C   UNL     1       2.984   1.361  22.660  0.00  0.00    +0.031 A 
ATOM     21  C   UNL     1       4.851  -0.141  23.134  0.00  0.00    +0.004 A 
ATOM     22  C   UNL     1       4.355   1.069  22.633  0.00  0.00    +0.002 A 
ENDBRANCH   5  10
BRANCH   2   9
ATOM      9  C   UNL     1      -4.252  -0.108  24.061  0.00  0.00    +0.119 C 
BRANCH   9  11
ATOM     11  C   UNL     1      -4.276   1.264  24.683  0.00  0.00    -0.032 A 
ATOM     14  C   UNL     1      -3.151   2.084  24.606  0.00  0.00    +0.023 A 
ATOM     15  C   UNL     1      -5.425   1.713  25.335  0.00  0.00    +0.005 A 
ATOM     18  C   UNL     1      -3.174   3.355  25.182  0.00  0.00    +0.052 A 
ATOM     19  C   UNL     1      -5.448   2.984  25.910  0.00  0.00    +0.002 A 
ATOM     20  C   UNL     1      -4.323   3.805  25.833  0.00  0.00    +0.019 A 
BRANCH  18  23
ATOM      4  N   UNL     1      -1.087   4.880  25.039  0.00  0.00    -0.191 NA
ATOM     23  C   UNL     1      -2.023   4.197  25.103  0.00  0.00    +0.099 C 
ENDBRANCH  18  23
ENDBRANCH   9  11
ENDBRANCH   2   9
TORSDOF 4
ENDMDL
MODEL 3
REMARK VINA RESULT:      -2.8      1.489      3.866
REMARK  Name = 51137057
REMARK  4 active torsions:
REMARK  status: ('A' for Active; 'I' for Inactive)
REMARK    1  A    between atoms: N_2  and  C_9
REMARK    2  A    between atoms: C_5  and  C_10
REMARK    3  A    between atoms: C_9  and  C_11
REMARK    4  A    between atoms: C_18  and  C_23
REMARK                            x       y       z     vdW  Elec       q    Type
REMARK                         _______ _______ _______ _____ _____    ______ ____
ROOT
ATOM      2  N   UNL     1      -0.147   3.520  25.417  0.00  0.00    -0.297 NA
ATOM      5  C   UNL     1      -0.155   1.178  25.303  0.00  0.00    +0.090 C 
ATOM      6  C   UNL     1       0.596   1.750  24.088  0.00  0.00    +0.029 C 
ATOM      7  C   UNL     1      -0.930   2.371  25.877  0.00  0.00    +0.097 C 
ATOM      8  C   UNL     1       0.187   3.215  24.026  0.00  0.00    +0.085 C 
ENDROOT
BRANCH   5  10
ATOM      1  O   UNL     1      -2.322   0.281  24.637  0.00  0.00    -0.439 OA
ATOM      3  N   UNL     1      -0.736  -1.287  25.042  0.00  0.00    -0.213 NA
ATOM     10  C   UNL     1      -1.041  -0.009  25.000  0.00  0.00    +0.201 A 
ATOM     12  C   UNL     1      -2.881  -0.947  24.428  0.00  0.00    +0.155 A 
ATOM     13  C   UNL     1      -1.907  -1.904  24.677  0.00  0.00    +0.110 A 
ATOM     16  C   UNL     1      -4.184  -1.228  24.036  0.00  0.00    +0.048 A 
ATOM     17  C   UNL     1      -2.236  -3.260  24.530  0.00  0.00    +0.031 A 
ATOM     21  C   UNL     1      -4.496  -2.584  23.895  0.00  0.00    +0.004 A 
ATOM     22  C   UNL     1      -3.543  -3.581  24.136  0.00  0.00    +0.002 A 
ENDBRANCH   5  10
BRANCH   2   9
ATOM      9  C   UNL     1      -0.871   4.775  25.551  0.00  0.00    +0.119 C 
BRANCH   9  11
ATOM     11  C   UNL     1      -2.303   4.648  25.101  0.00  0.00    -0.032 A 
ATOM     14  C   UNL     1      -3.181   3.816  25.796  0.00  0.00    +0.023 A 
ATOM     15  C   UNL     1      -2.750   5.362  23.990  0.00  0.00    +0.005 A 
ATOM     18  C   UNL     1      -4.507   3.699  25.378  0.00  0.00    +0.052 A 
ATOM     19  C   UNL     1      -4.077   5.246  23.573  0.00  0.00    +0.002 A 
ATOM     20  C   UNL     1      -4.955   4.414  24.267  0.00  0.00    +0.019 A 
BRANCH  18  23
ATOM      4  N   UNL     1      -6.140   2.157  26.667  0.00  0.00    -0.191 NA
ATOM     23  C   UNL     1      -5.408   2.848  26.089  0.00  0.00    +0.099 C 
ENDBRANCH  18  23
ENDBRANCH   9  11
ENDBRANCH   2   9
TORSDOF 4
ENDMDL
MODEL 4
REMARK VINA RESULT:      -2.7      1.816      5.444
REMARK  Name = 51137057
REMARK  4 active torsions:
REMARK  status: ('A' for Active; 'I' for Inactive)
REMARK    1  A    between atoms: N_2  and  C_9
REMARK    2  A    between atoms: C_5  and  C_10
REMARK    3  A    between atoms: C_9  and  C_11
REMARK    4  A    between atoms: C_18  and  C_23
REMARK                            x       y       z     vdW  Elec       q    Type
REMARK                         _______ _______ _______ _____ _____    ______ ____
ROOT
ATOM      2  N   UNL     1      -2.192  -2.141  24.935  0.00  0.00    -0.297 NA
ATOM      5  C   UNL     1      -4.045  -0.778  25.388  0.00  0.00    +0.090 C 
ATOM      6  C   UNL     1      -4.286  -1.557  24.083  0.00  0.00    +0.029 C 
ATOM      7  C   UNL     1      -2.538  -0.909  25.646  0.00  0.00    +0.097 C 
ATOM      8  C   UNL     1      -2.911  -2.057  23.663  0.00  0.00    +0.085 C 
ENDROOT
BRANCH   5  10
ATOM      1  O   UNL     1      -3.670   1.554  24.785  0.00  0.00    -0.439 OA
ATOM      3  N   UNL     1      -5.639   1.157  25.836  0.00  0.00    -0.213 NA
ATOM     10  C   UNL     1      -4.517   0.659  25.367  0.00  0.00    +0.201 A 
ATOM     12  C   UNL     1      -4.333   2.743  24.902  0.00  0.00    +0.155 A 
ATOM     13  C   UNL     1      -5.536   2.495  25.546  0.00  0.00    +0.110 A 
ATOM     16  C   UNL     1      -3.910   3.993  24.468  0.00  0.00    +0.048 A 
ATOM     17  C   UNL     1      -6.409   3.567  25.788  0.00  0.00    +0.031 A 
ATOM     21  C   UNL     1      -4.791   5.050  24.718  0.00  0.00    +0.004 A 
ATOM     22  C   UNL     1      -6.016   4.844  25.364  0.00  0.00    +0.002 A 
ENDBRANCH   5  10
BRANCH   2   9
ATOM      9  C   UNL     1      -0.756  -2.291  24.751  0.00  0.00    +0.119 C 
BRANCH   9  11
ATOM     11  C   UNL     1      -0.107  -1.002  24.323  0.00  0.00    -0.032 A 
ATOM     14  C   UNL     1      -0.492   0.202  24.912  0.00  0.00    +0.023 A 
ATOM     15  C   UNL     1       0.879  -1.012  23.336  0.00  0.00    +0.005 A 
ATOM     18  C   UNL     1       0.110   1.397  24.515  0.00  0.00    +0.052 A 
ATOM     19  C   UNL     1       1.482   0.182  22.940  0.00  0.00    +0.002 A 
ATOM     20  C   UNL     1       1.097   1.386  23.529  0.00  0.00    +0.019 A 
BRANCH  18  23
ATOM      4  N   UNL     1      -0.602   3.633  25.609  0.00  0.00    -0.191 NA
ATOM     23  C   UNL     1      -0.283   2.630  25.119  0.00  0.00    +0.099 C 
ENDBRANCH  18  23
ENDBRANCH   9  11
ENDBRANCH   2   9
TORSDOF 4
ENDMDL
MODEL 5
REMARK VINA RESULT:      -2.6      2.654      4.741
REMARK  Name = 51137057
REMARK  4 active torsions:
REMARK  status: ('A' for Active; 'I' for Inactive)
REMARK    1  A    between atoms: N_2  and  C_9
REMARK    2  A    between atoms: C_5  and  C_10
REMARK    3  A    between atoms: C_9  and  C_11
REMARK    4  A    between atoms: C_18  and  C_23
REMARK                            x       y       z     vdW  Elec       q    Type
REMARK                         _______ _______ _______ _____ _____    ______ ____
ROOT
ATOM      2  N   UNL     1      -2.575   4.197  26.126  0.00  0.00    -0.297 NA
ATOM      5  C   UNL     1      -0.533   3.221  25.512  0.00  0.00    +0.090 C 
ATOM      6  C   UNL     1      -0.592   4.665  24.986  0.00  0.00    +0.029 C 
ATOM      7  C   UNL     1      -1.985   2.880  25.876  0.00  0.00    +0.097 C 
ATOM      8  C   UNL     1      -2.064   5.050  25.053  0.00  0.00    +0.085 C 
ENDROOT
BRANCH   5  10
ATOM      1  O   UNL     1       1.421   2.365  24.334  0.00  0.00    -0.439 OA
ATOM      3  N   UNL     1      -0.499   1.234  23.921  0.00  0.00    -0.213 NA
ATOM     10  C   UNL     1       0.085   2.222  24.560  0.00  0.00    +0.201 A 
ATOM     12  C   UNL     1       1.707   1.356  23.458  0.00  0.00    +0.155 A 
ATOM     13  C   UNL     1       0.529   0.667  23.209  0.00  0.00    +0.110 A 
ATOM     16  C   UNL     1       2.940   1.046  22.898  0.00  0.00    +0.048 A 
ATOM     17  C   UNL     1       0.558  -0.427  22.331  0.00  0.00    +0.031 A 
ATOM     21  C   UNL     1       2.951  -0.046  22.025  0.00  0.00    +0.004 A 
ATOM     22  C   UNL     1       1.785  -0.770  21.746  0.00  0.00    +0.002 A 
ENDBRANCH   5  10
BRANCH   2   9
ATOM      9  C   UNL     1      -4.030   4.157  26.157  0.00  0.00    +0.119 C 
BRANCH   9  11
ATOM     11  C   UNL     1      -4.566   2.856  25.620  0.00  0.00    -0.032 A 
ATOM     14  C   UNL     1      -3.704   1.781  25.406  0.00  0.00    +0.023 A 
ATOM     15  C   UNL     1      -5.926   2.727  25.337  0.00  0.00    +0.005 A 
ATOM     18  C   UNL     1      -4.202   0.576  24.909  0.00  0.00    +0.052 A 
ATOM     19  C   UNL     1      -6.424   1.522  24.841  0.00  0.00    +0.002 A 
ATOM     20  C   UNL     1      -5.562   0.447  24.627  0.00  0.00    +0.019 A 
BRANCH  18  23
ATOM      4  N   UNL     1      -2.604  -1.422  24.513  0.00  0.00    -0.191 NA
ATOM     23  C   UNL     1      -3.320  -0.526  24.691  0.00  0.00    +0.099 C 
ENDBRANCH  18  23
ENDBRANCH   9  11
ENDBRANCH   2   9
TORSDOF 4
ENDMDL
MODEL 6
REMARK VINA RESULT:      -1.8      2.346      5.626
REMARK  Name = 51137057
REMARK  4 active torsions:
REMARK  status: ('A' for Active; 'I' for Inactive)
REMARK    1  A    between atoms: N_2  and  C_9
REMARK    2  A    between atoms: C_5  and  C_10
REMARK    3  A    between atoms: C_9  and  C_11
REMARK    4  A    between atoms: C_18  and  C_23
REMARK                            x       y       z     vdW  Elec       q    Type
REMARK                         _______ _______ _______ _____ _____    ______ ____
ROOT
ATOM      2  N   UNL     1      -2.194  -2.134  24.916  0.00  0.00    -0.297 NA
ATOM      5  C   UNL     1      -4.051  -0.785  25.391  0.00  0.00    +0.090 C 
ATOM      6  C   UNL     1      -4.295  -1.553  24.080  0.00  0.00    +0.029 C 
ATOM      7  C   UNL     1      -2.542  -0.910  25.640  0.00  0.00    +0.097 C 
ATOM      8  C   UNL     1      -2.918  -2.042  23.649  0.00  0.00    +0.085 C 
ENDROOT
BRANCH   5  10
ATOM      1  O   UNL     1      -3.671   1.562  24.853  0.00  0.00    -0.439 OA
ATOM      3  N   UNL     1      -5.671   1.130  25.827  0.00  0.00    -0.213 NA
ATOM     10  C   UNL     1      -4.531   0.649  25.385  0.00  0.00    +0.201 A 
ATOM     12  C   UNL     1      -4.344   2.744  24.974  0.00  0.00    +0.155 A 
ATOM     13  C   UNL     1      -5.568   2.475  25.570  0.00  0.00    +0.110 A 
ATOM     16  C   UNL     1      -3.915   4.005  24.583  0.00  0.00    +0.048 A 
ATOM     17  C   UNL     1      -6.454   3.536  25.806  0.00  0.00    +0.031 A 
ATOM     21  C   UNL     1      -4.810   5.052  24.825  0.00  0.00    +0.004 A 
ATOM     22  C   UNL     1      -6.055   4.825  25.424  0.00  0.00    +0.002 A 
ENDBRANCH   5  10
BRANCH   2   9
ATOM      9  C   UNL     1      -0.757  -2.275  24.724  0.00  0.00    +0.119 C 
BRANCH   9  11
ATOM     11  C   UNL     1      -0.100  -0.955  24.419  0.00  0.00    -0.032 A 
ATOM     14  C   UNL     1       1.032  -0.911  23.605  0.00  0.00    +0.023 A 
ATOM     15  C   UNL     1      -0.624   0.223  24.951  0.00  0.00    +0.005 A 
ATOM     18  C   UNL     1       1.641   0.313  23.324  0.00  0.00    +0.052 A 
ATOM     19  C   UNL     1      -0.015   1.447  24.668  0.00  0.00    +0.002 A 
ATOM     20  C   UNL     1       1.116   1.491  23.855  0.00  0.00    +0.019 A 
BRANCH  18  23
ATOM      4  N   UNL     1       3.740   0.398  21.811  0.00  0.00    -0.191 NA
ATOM     23  C   UNL     1       2.799   0.360  22.489  0.00  0.00    +0.099 C 
ENDBRANCH  18  23
ENDBRANCH   9  11
ENDBRANCH   2   9
TORSDOF 4
ENDMDL
MODEL 7
REMARK VINA RESULT:      -1.8      3.377      5.069
REMARK  Name = 51137057
REMARK  4 active torsions:
REMARK  status: ('A' for Active; 'I' for Inactive)
REMARK    1  A    between atoms: N_2  and  C_9
REMARK    2  A    between atoms: C_5  and  C_10
REMARK    3  A    between atoms: C_9  and  C_11
REMARK    4  A    between atoms: C_18  and  C_23
REMARK                            x       y       z     vdW  Elec       q    Type
REMARK                         _______ _______ _______ _____ _____    ______ ____
ROOT
ATOM      2  N   UNL     1      -2.778  -0.429  24.050  0.00  0.00    -0.297 NA
ATOM      5  C   UNL     1      -0.670  -1.040  23.223  0.00  0.00    +0.090 C 
ATOM      6  C   UNL     1      -1.051  -1.962  24.395  0.00  0.00    +0.029 C 
ATOM      7  C   UNL     1      -1.638   0.146  23.332  0.00  0.00    +0.097 C 
ATOM      8  C   UNL     1      -2.184  -1.240  25.112  0.00  0.00    +0.085 C 
ENDROOT
BRANCH   5  10
ATOM      1  O   UNL     1       1.673  -1.514  23.696  0.00  0.00    -0.439 OA
ATOM      3  N   UNL     1       1.294   0.509  22.749  0.00  0.00    -0.213 NA
ATOM     10  C   UNL     1       0.780  -0.616  23.195  0.00  0.00    +0.201 A 
ATOM     12  C   UNL     1       2.877  -0.886  23.549  0.00  0.00    +0.155 A 
ATOM     13  C   UNL     1       2.640   0.351  22.969  0.00  0.00    +0.110 A 
ATOM     16  C   UNL     1       4.131  -1.367  23.903  0.00  0.00    +0.048 A 
ATOM     17  C   UNL     1       3.728   1.198  22.710  0.00  0.00    +0.031 A 
ATOM     21  C   UNL     1       5.205  -0.511  23.639  0.00  0.00    +0.004 A 
ATOM     22  C   UNL     1       5.010   0.747  23.055  0.00  0.00    +0.002 A 
ENDBRANCH   5  10
BRANCH   2   9
ATOM      9  C   UNL     1      -3.679   0.590  24.568  0.00  0.00    +0.119 C 
BRANCH   9  11
ATOM     11  C   UNL     1      -2.944   1.850  24.943  0.00  0.00    -0.032 A 
ATOM     14  C   UNL     1      -1.743   1.774  25.649  0.00  0.00    +0.023 A 
ATOM     15  C   UNL     1      -3.465   3.093  24.583  0.00  0.00    +0.005 A 
ATOM     18  C   UNL     1      -1.063   2.943  25.995  0.00  0.00    +0.052 A 
ATOM     19  C   UNL     1      -2.784   4.261  24.929  0.00  0.00    +0.002 A 
ATOM     20  C   UNL     1      -1.584   4.186  25.635  0.00  0.00    +0.019 A 
BRANCH  18  23
ATOM      4  N   UNL     1       1.166   2.804  27.304  0.00  0.00    -0.191 NA
ATOM     23  C   UNL     1       0.167   2.866  26.717  0.00  0.00    +0.099 C 
ENDBRANCH  18  23
ENDBRANCH   9  11
ENDBRANCH   2   9
TORSDOF 4
ENDMDL
MODEL 8
REMARK VINA RESULT:      -1.2      1.649      6.276
REMARK  Name = 51137057
REMARK  4 active torsions:
REMARK  status: ('A' for Active; 'I' for Inactive)
REMARK    1  A    between atoms: N_2  and  C_9
REMARK    2  A    between atoms: C_5  and  C_10
REMARK    3  A    between atoms: C_9  and  C_11
REMARK    4  A    between atoms: C_18  and  C_23
REMARK                            x       y       z     vdW  Elec       q    Type
REMARK                         _______ _______ _______ _____ _____    ______ ____
ROOT
ATOM      2  N   UNL     1       0.570   1.340  23.529  0.00  0.00    -0.297 NA
ATOM      5  C   UNL     1      -1.145   2.895  23.900  0.00  0.00    +0.090 C 
ATOM      6  C   UNL     1      -0.050   3.072  24.966  0.00  0.00    +0.029 C 
ATOM      7  C   UNL     1      -0.861   1.523  23.276  0.00  0.00    +0.097 C 
ATOM      8  C   UNL     1       0.770   1.790  24.906  0.00  0.00    +0.085 C 
ENDROOT
BRANCH   5  10
ATOM      1  O   UNL     1      -3.240   1.859  24.594  0.00  0.00    -0.439 OA
ATOM      3  N   UNL     1      -3.221   4.122  24.716  0.00  0.00    -0.213 NA
ATOM     10  C   UNL     1      -2.560   3.026  24.416  0.00  0.00    +0.201 A 
ATOM     12  C   UNL     1      -4.459   2.265  25.056  0.00  0.00    +0.155 A 
ATOM     13  C   UNL     1      -4.443   3.650  25.129  0.00  0.00    +0.110 A 
ATOM     16  C   UNL     1      -5.542   1.466  25.400  0.00  0.00    +0.048 A 
ATOM     17  C   UNL     1      -5.592   4.318  25.581  0.00  0.00    +0.031 A 
ATOM     21  C   UNL     1      -6.679   2.148  25.847  0.00  0.00    +0.004 A 
ATOM     22  C   UNL     1      -6.705   3.545  25.937  0.00  0.00    +0.002 A 
ENDBRANCH   5  10
BRANCH   2   9
ATOM      9  C   UNL     1       0.997  -0.037  23.328  0.00  0.00    +0.119 C 
BRANCH   9  11
ATOM     11  C   UNL     1       0.085  -1.014  24.020  0.00  0.00    -0.032 A 
ATOM     14  C   UNL     1      -1.283  -1.006  23.746  0.00  0.00    +0.023 A 
ATOM     15  C   UNL     1       0.608  -1.928  24.935  0.00  0.00    +0.005 A 
ATOM     18  C   UNL     1      -2.128  -1.913  24.387  0.00  0.00    +0.052 A 
ATOM     19  C   UNL     1      -0.238  -2.835  25.576  0.00  0.00    +0.002 A 
ATOM     20  C   UNL     1      -1.605  -2.827  25.302  0.00  0.00    +0.019 A 
BRANCH  18  23
ATOM      4  N   UNL     1      -4.667  -1.901  23.879  0.00  0.00    -0.191 NA
ATOM     23  C   UNL     1      -3.528  -1.906  24.106  0.00  0.00    +0.099 C 
ENDBRANCH  18  23
ENDBRANCH   9  11
ENDBRANCH   2   9
TORSDOF 4
ENDMDL
MODEL 9
REMARK VINA RESULT:      -1.0      4.068      6.492
REMARK  Name = 51137057
REMARK  4 active torsions:
REMARK  status: ('A' for Active; 'I' for Inactive)
REMARK    1  A    between atoms: N_2  and  C_9
REMARK    2  A    between atoms: C_5  and  C_10
REMARK    3  A    between atoms: C_9  and  C_11
REMARK    4  A    between atoms: C_18  and  C_23
REMARK                            x       y       z     vdW  Elec       q    Type
REMARK                         _______ _______ _______ _____ _____    ______ ____
ROOT
ATOM      2  N   UNL     1      -1.244   1.049  24.289  0.00  0.00    -0.297 NA
ATOM      5  C   UNL     1       0.655   0.383  23.086  0.00  0.00    +0.090 C 
ATOM      6  C   UNL     1      -0.147  -0.860  23.509  0.00  0.00    +0.029 C 
ATOM      7  C   UNL     1       0.103   1.518  23.958  0.00  0.00    +0.097 C 
ATOM      8  C   UNL     1      -1.081  -0.369  24.608  0.00  0.00    +0.085 C 
ENDROOT
BRANCH   5  10
ATOM      1  O   UNL     1       2.609  -0.999  23.548  0.00  0.00    -0.439 OA
ATOM      3  N   UNL     1       3.083   1.144  22.983  0.00  0.00    -0.213 NA
ATOM     10  C   UNL     1       2.156   0.235  23.191  0.00  0.00    +0.201 A 
ATOM     12  C   UNL     1       3.967  -0.849  23.566  0.00  0.00    +0.155 A 
ATOM     13  C   UNL     1       4.252   0.463  23.219  0.00  0.00    +0.110 A 
ATOM     16  C   UNL     1       4.920  -1.813  23.870  0.00  0.00    +0.048 A 
ATOM     17  C   UNL     1       5.593   0.873  23.165  0.00  0.00    +0.031 A 
ATOM     21  C   UNL     1       6.251  -1.387  23.811  0.00  0.00    +0.004 A 
ATOM     22  C   UNL     1       6.583  -0.072  23.466  0.00  0.00    +0.002 A 
ENDBRANCH   5  10
BRANCH   2   9
ATOM      9  C   UNL     1      -1.839   1.799  25.385  0.00  0.00    +0.119 C 
BRANCH   9  11
ATOM     11  C   UNL     1      -3.336   1.892  25.253  0.00  0.00    -0.032 A 
ATOM     14  C   UNL     1      -3.979   3.117  25.438  0.00  0.00    +0.023 A 
ATOM     15  C   UNL     1      -4.081   0.753  24.945  0.00  0.00    +0.005 A 
ATOM     18  C   UNL     1      -5.366   3.202  25.316  0.00  0.00    +0.052 A 
ATOM     19  C   UNL     1      -5.468   0.839  24.822  0.00  0.00    +0.002 A 
ATOM     20  C   UNL     1      -6.110   2.063  25.007  0.00  0.00    +0.019 A 
BRANCH  18  23
ATOM      4  N   UNL     1      -6.560   5.474  25.657  0.00  0.00    -0.191 NA
ATOM     23  C   UNL     1      -6.025   4.455  25.504  0.00  0.00    +0.099 C 
ENDBRANCH  18  23
ENDBRANCH   9  11
ENDBRANCH   2   9
TORSDOF 4
ENDMDL
MODEL 10
REMARK VINA RESULT:      -0.1      3.783      6.320
REMARK  Name = 51137057
REMARK  4 active torsions:
REMARK  status: ('A' for Active; 'I' for Inactive)
REMARK    1  A    between atoms: N_2  and  C_9
REMARK    2  A    between atoms: C_5  and  C_10
REMARK    3  A    between atoms: C_9  and  C_11
REMARK    4  A    between atoms: C_18  and  C_23
REMARK                            x       y       z     vdW  Elec       q    Type
REMARK                         _______ _______ _______ _____ _____    ______ ____
ROOT
ATOM      2  N   UNL     1       0.324  -0.754  23.772  0.00  0.00    -0.297 NA
ATOM      5  C   UNL     1      -1.370  -0.013  25.213  0.00  0.00    +0.090 C 
ATOM      6  C   UNL     1      -1.572  -1.508  24.907  0.00  0.00    +0.029 C 
ATOM      7  C   UNL     1      -0.384   0.473  24.143  0.00  0.00    +0.097 C 
ATOM      8  C   UNL     1      -0.718  -1.776  23.675  0.00  0.00    +0.085 C 
ENDROOT
BRANCH   5  10
ATOM      1  O   UNL     1      -2.481   2.150  25.382  0.00  0.00    -0.439 OA
ATOM      3  N   UNL     1      -3.885   0.382  25.189  0.00  0.00    -0.213 NA
ATOM     10  C   UNL     1      -2.642   0.803  25.257  0.00  0.00    +0.201 A 
ATOM     12  C   UNL     1      -3.761   2.626  25.394  0.00  0.00    +0.155 A 
ATOM     13  C   UNL     1      -4.617   1.541  25.276  0.00  0.00    +0.110 A 
ATOM     16  C   UNL     1      -4.171   3.949  25.504  0.00  0.00    +0.048 A 
ATOM     17  C   UNL     1      -6.001   1.768  25.262  0.00  0.00    +0.031 A 
ATOM     21  C   UNL     1      -5.554   4.158  25.490  0.00  0.00    +0.004 A 
ATOM     22  C   UNL     1      -6.453   3.091  25.371  0.00  0.00    +0.002 A 
ENDBRANCH   5  10
BRANCH   2   9
ATOM      9  C   UNL     1       1.074  -0.608  22.533  0.00  0.00    +0.119 C 
BRANCH   9  11
ATOM     11  C   UNL     1       2.464  -0.081  22.777  0.00  0.00    -0.032 A 
ATOM     14  C   UNL     1       3.414  -0.886  23.406  0.00  0.00    +0.023 A 
ATOM     15  C   UNL     1       2.800   1.211  22.375  0.00  0.00    +0.005 A 
ATOM     18  C   UNL     1       4.702  -0.397  23.632  0.00  0.00    +0.052 A 
ATOM     19  C   UNL     1       4.087   1.699  22.600  0.00  0.00    +0.002 A 
ATOM     20  C   UNL     1       5.038   0.896  23.228  0.00  0.00    +0.019 A 
BRANCH  18  23
ATOM      4  N   UNL     1       6.468  -1.889  24.797  0.00  0.00    -0.191 NA
ATOM     23  C   UNL     1       5.676  -1.220  24.274  0.00  0.00    +0.099 C 
ENDBRANCH  18  23
ENDBRANCH   9  11
ENDBRANCH   2   9
TORSDOF 4
ENDMDL
