MODEL 1
REMARK VINA RESULT:      -0.7      0.000      0.000
REMARK  Name = 11865720
REMARK  10 active torsions:
REMARK  status: ('A' for Active; 'I' for Inactive)
REMARK    1  A    between atoms: O_2  and  C_11
REMARK    2  A    between atoms: O_3  and  C_13
REMARK    3  A    between atoms: O_6  and  C_24
REMARK    4  A    between atoms: O_6  and  C_28
REMARK    5  A    between atoms: N_8  and  C_12
REMARK    6  A    between atoms: N_9  and  C_20
REMARK    7  A    between atoms: C_15  and  C_17
REMARK    8  A    between atoms: C_18  and  C_19
REMARK    9  A    between atoms: C_20  and  C_21
REMARK   10  A    between atoms: C_21  and  C_26
REMARK                            x       y       z     vdW  Elec       q    Type
REMARK                         _______ _______ _______ _____ _____    ______ ____
ROOT
ATOM     11  C   UNL     1      -1.699  -1.429  25.101  0.00  0.00    +0.167 C 
ATOM     12  C   UNL     1      -0.901  -0.157  25.448  0.00  0.00    +0.128 C 
ATOM     13  C   UNL     1      -0.783  -2.539  24.568  0.00  0.00    +0.149 C 
ATOM     14  C   UNL     1       0.039  -2.077  23.353  0.00  0.00    +0.074 C 
ATOM     15  C   UNL     1       0.526  -0.661  23.465  0.00  0.00    +0.015 C 
ATOM     16  C   UNL     1       0.120   0.207  24.405  0.00  0.00    +0.006 C 
ENDROOT
BRANCH  15  17
ATOM      4  O   UNL     1       1.414  -0.444  21.301  0.00  0.00    -0.271 OA
ATOM      9  N   UNL     1       2.556   0.516  23.093  0.00  0.00    -0.311 N 
ATOM     17  C   UNL     1       1.528  -0.196  22.502  0.00  0.00    +0.240 C 
ATOM     32  H   UNL     1       2.548   0.673  24.096  0.00  0.00    +0.149 HD
BRANCH   9  20
ATOM     20  C   UNL     1       3.661   1.074  22.347  0.00  0.00    +0.113 C 
BRANCH  20  21
ATOM     21  C   UNL     1       4.954   0.304  22.572  0.00  0.00    +0.114 C 
BRANCH  21  26
ATOM      7  O   UNL     1       5.394   0.573  24.945  0.00  0.00    -0.276 OA
ATOM     10  N   UNL     1       4.980  -1.535  24.126  0.00  0.00    -0.329 N 
ATOM     26  C   UNL     1       5.133  -0.170  24.004  0.00  0.00    +0.212 C 
ATOM     33  H   UNL     1       5.075  -1.991  25.027  0.00  0.00    +0.145 HD
ATOM     34  H   UNL     1       4.767  -2.130  23.332  0.00  0.00    +0.145 HD
ENDBRANCH  21  26
ENDBRANCH  20  21
ENDBRANCH   9  20
ENDBRANCH  15  17
BRANCH  12   8
ATOM      5  O   UNL     1      -1.745   1.762  23.487  0.00  0.00    -0.270 OA
ATOM      8  N   UNL     1      -1.770   0.973  25.666  0.00  0.00    -0.302 N 
ATOM     18  C   UNL     1      -2.124   1.850  24.651  0.00  0.00    +0.246 C 
ATOM     29  H   UNL     1      -2.096   1.156  26.612  0.00  0.00    +0.150 HD
BRANCH  18  19
ATOM      1 BR   UNL     1      -0.723   4.726  24.801  0.00  0.00    -0.050 Br
ATOM     19  C   UNL     1      -3.006   2.978  25.045  0.00  0.00    +0.054 A 
ATOM     22  C   UNL     1      -4.346   2.695  25.310  0.00  0.00    +0.059 A 
ATOM     23  C   UNL     1      -2.535   4.286  25.152  0.00  0.00    +0.030 A 
ATOM     24  C   UNL     1      -5.215   3.721  25.682  0.00  0.00    +0.121 A 
ATOM     25  C   UNL     1      -3.404   5.313  25.525  0.00  0.00    +0.019 A 
ATOM     27  C   UNL     1      -4.744   5.029  25.790  0.00  0.00    +0.047 A 
BRANCH  24   6
ATOM      6  O   UNL     1      -6.522   3.445  25.940  0.00  0.00    -0.495 OA
ATOM     28  C   UNL     1      -6.836   2.117  26.357  0.00  0.00    +0.277 C 
ENDBRANCH  24   6
ENDBRANCH  18  19
ENDBRANCH  12   8
BRANCH  11   2
ATOM      2  O   UNL     1      -2.678  -1.124  24.106  0.00  0.00    -0.387 OA
ATOM     30  H   UNL     1      -2.461  -0.249  23.740  0.00  0.00    +0.210 HD
ENDBRANCH  11   2
BRANCH  13   3
ATOM      3  O   UNL     1       0.086  -2.997  25.601  0.00  0.00    -0.389 OA
ATOM     31  H   UNL     1      -0.456  -3.479  26.249  0.00  0.00    +0.210 HD
ENDBRANCH  13   3
TORSDOF 9
ENDMDL
MODEL 2
REMARK VINA RESULT:       0.6      2.556      7.598
REMARK  Name = 11865720
REMARK  10 active torsions:
REMARK  status: ('A' for Active; 'I' for Inactive)
REMARK    1  A    between atoms: O_2  and  C_11
REMARK    2  A    between atoms: O_3  and  C_13
REMARK    3  A    between atoms: O_6  and  C_24
REMARK    4  A    between atoms: O_6  and  C_28
REMARK    5  A    between atoms: N_8  and  C_12
REMARK    6  A    between atoms: N_9  and  C_20
REMARK    7  A    between atoms: C_15  and  C_17
REMARK    8  A    between atoms: C_18  and  C_19
REMARK    9  A    between atoms: C_20  and  C_21
REMARK   10  A    between atoms: C_21  and  C_26
REMARK                            x       y       z     vdW  Elec       q    Type
REMARK                         _______ _______ _______ _____ _____    ______ ____
ROOT
ATOM     11  C   UNL     1      -1.262   4.063  25.245  0.00  0.00    +0.167 C 
ATOM     12  C   UNL     1      -0.975   2.554  25.369  0.00  0.00    +0.128 C 
ATOM     13  C   UNL     1      -2.623   4.428  25.852  0.00  0.00    +0.149 C 
ATOM     14  C   UNL     1      -3.770   3.614  25.232  0.00  0.00    +0.074 C 
ATOM     15  C   UNL     1      -3.406   2.183  24.956  0.00  0.00    +0.015 C 
ATOM     16  C   UNL     1      -2.159   1.693  25.022  0.00  0.00    +0.006 C 
ENDROOT
BRANCH  15  17
ATOM      4  O   UNL     1      -5.663   1.594  24.674  0.00  0.00    -0.271 OA
ATOM      9  N   UNL     1      -4.016   0.004  24.231  0.00  0.00    -0.311 N 
ATOM     17  C   UNL     1      -4.482   1.250  24.612  0.00  0.00    +0.240 C 
ATOM     32  H   UNL     1      -3.016  -0.172  24.204  0.00  0.00    +0.149 HD
BRANCH   9  20
ATOM     20  C   UNL     1      -4.888  -1.083  23.848  0.00  0.00    +0.113 C 
BRANCH  20  21
ATOM     21  C   UNL     1      -4.173  -2.426  23.862  0.00  0.00    +0.114 C 
BRANCH  21  26
ATOM      7  O   UNL     1      -3.175  -2.310  26.073  0.00  0.00    -0.276 OA
ATOM     10  N   UNL     1      -1.826  -2.774  24.270  0.00  0.00    -0.329 N 
ATOM     26  C   UNL     1      -3.037  -2.494  24.867  0.00  0.00    +0.212 C 
ATOM     33  H   UNL     1      -0.977  -2.846  24.821  0.00  0.00    +0.145 HD
ATOM     34  H   UNL     1      -1.735  -2.919  23.270  0.00  0.00    +0.145 HD
ENDBRANCH  21  26
ENDBRANCH  20  21
ENDBRANCH   9  20
ENDBRANCH  15  17
BRANCH  12   8
ATOM      5  O   UNL     1      -0.269  -0.122  24.606  0.00  0.00    -0.270 OA
ATOM      8  N   UNL     1       0.146   2.158  24.552  0.00  0.00    -0.302 N 
ATOM     18  C   UNL     1       0.408   0.833  24.236  0.00  0.00    +0.246 C 
ATOM     29  H   UNL     1       0.794   2.877  24.238  0.00  0.00    +0.150 HD
BRANCH  18  19
ATOM      1 BR   UNL     1      -0.118  -0.446  21.346  0.00  0.00    -0.050 Br
ATOM     19  C   UNL     1       1.617   0.589  23.407  0.00  0.00    +0.054 A 
ATOM     22  C   UNL     1       2.856   0.932  23.948  0.00  0.00    +0.059 A 
ATOM     23  C   UNL     1       1.541   0.037  22.129  0.00  0.00    +0.030 A 
ATOM     24  C   UNL     1       4.020   0.724  23.209  0.00  0.00    +0.121 A 
ATOM     25  C   UNL     1       2.707  -0.172  21.390  0.00  0.00    +0.019 A 
ATOM     27  C   UNL     1       3.946   0.171  21.931  0.00  0.00    +0.047 A 
BRANCH  24   6
ATOM      6  O   UNL     1       5.230   1.059  23.736  0.00  0.00    -0.495 OA
ATOM     28  C   UNL     1       6.142  -0.005  23.997  0.00  0.00    +0.277 C 
ENDBRANCH  24   6
ENDBRANCH  18  19
ENDBRANCH  12   8
BRANCH  11   2
ATOM      2  O   UNL     1      -1.259   4.440  23.866  0.00  0.00    -0.387 OA
ATOM     30  H   UNL     1      -1.610   3.689  23.357  0.00  0.00    +0.210 HD
ENDBRANCH  11   2
BRANCH  13   3
ATOM      3  O   UNL     1      -2.596   4.239  27.265  0.00  0.00    -0.389 OA
ATOM     31  H   UNL     1      -3.512   4.286  27.586  0.00  0.00    +0.210 HD
ENDBRANCH  13   3
TORSDOF 9
ENDMDL
MODEL 3
REMARK VINA RESULT:       0.9      2.218      7.067
REMARK  Name = 11865720
REMARK  10 active torsions:
REMARK  status: ('A' for Active; 'I' for Inactive)
REMARK    1  A    between atoms: O_2  and  C_11
REMARK    2  A    between atoms: O_3  and  C_13
REMARK    3  A    between atoms: O_6  and  C_24
REMARK    4  A    between atoms: O_6  and  C_28
REMARK    5  A    between atoms: N_8  and  C_12
REMARK    6  A    between atoms: N_9  and  C_20
REMARK    7  A    between atoms: C_15  and  C_17
REMARK    8  A    between atoms: C_18  and  C_19
REMARK    9  A    between atoms: C_20  and  C_21
REMARK   10  A    between atoms: C_21  and  C_26
REMARK                            x       y       z     vdW  Elec       q    Type
REMARK                         _______ _______ _______ _____ _____    ______ ____
ROOT
ATOM     11  C   UNL     1      -1.947  -2.416  24.639  0.00  0.00    +0.167 C 
ATOM     12  C   UNL     1      -1.920  -1.312  23.564  0.00  0.00    +0.128 C 
ATOM     13  C   UNL     1      -3.369  -2.657  25.161  0.00  0.00    +0.149 C 
ATOM     14  C   UNL     1      -4.014  -1.370  25.702  0.00  0.00    +0.074 C 
ATOM     15  C   UNL     1      -3.686  -0.151  24.888  0.00  0.00    +0.015 C 
ATOM     16  C   UNL     1      -2.756  -0.113  23.921  0.00  0.00    +0.006 C 
ENDROOT
BRANCH  15  17
ATOM      4  O   UNL     1      -5.523   1.043  25.738  0.00  0.00    -0.271 OA
ATOM      9  N   UNL     1      -3.814   2.212  24.666  0.00  0.00    -0.311 N 
ATOM     17  C   UNL     1      -4.442   1.078  25.147  0.00  0.00    +0.240 C 
ATOM     32  H   UNL     1      -2.914   2.129  24.200  0.00  0.00    +0.149 HD
BRANCH   9  20
ATOM     20  C   UNL     1      -4.367   3.540  24.800  0.00  0.00    +0.113 C 
BRANCH  20  21
ATOM     21  C   UNL     1      -3.638   4.364  25.851  0.00  0.00    +0.114 C 
BRANCH  21  26
ATOM      7  O   UNL     1      -1.492   3.283  26.200  0.00  0.00    -0.276 OA
ATOM     10  N   UNL     1      -1.544   5.339  25.172  0.00  0.00    -0.329 N 
ATOM     26  C   UNL     1      -2.127   4.242  25.771  0.00  0.00    +0.212 C 
ATOM     33  H   UNL     1      -0.538   5.395  25.054  0.00  0.00    +0.145 HD
ATOM     34  H   UNL     1      -2.089   6.123  24.828  0.00  0.00    +0.145 HD
ENDBRANCH  21  26
ENDBRANCH  20  21
ENDBRANCH   9  20
ENDBRANCH  15  17
BRANCH  12   8
ATOM      5  O   UNL     1      -0.336   0.490  25.141  0.00  0.00    -0.270 OA
ATOM      8  N   UNL     1      -0.574  -0.875  23.284  0.00  0.00    -0.302 N 
ATOM     18  C   UNL     1       0.114   0.001  24.109  0.00  0.00    +0.246 C 
ATOM     29  H   UNL     1      -0.134  -1.189  22.422  0.00  0.00    +0.150 HD
BRANCH  18  19
ATOM      1 BR   UNL     1       0.539   3.080  23.335  0.00  0.00    -0.050 Br
ATOM     19  C   UNL     1       1.483   0.373  23.666  0.00  0.00    +0.054 A 
ATOM     22  C   UNL     1       2.449  -0.631  23.626  0.00  0.00    +0.059 A 
ATOM     23  C   UNL     1       1.815   1.676  23.298  0.00  0.00    +0.030 A 
ATOM     24  C   UNL     1       3.749  -0.333  23.219  0.00  0.00    +0.121 A 
ATOM     25  C   UNL     1       3.116   1.976  22.889  0.00  0.00    +0.019 A 
ATOM     27  C   UNL     1       4.083   0.970  22.850  0.00  0.00    +0.047 A 
BRANCH  24   6
ATOM      6  O   UNL     1       4.693  -1.313  23.181  0.00  0.00    -0.495 OA
ATOM     28  C   UNL     1       5.710  -1.273  24.180  0.00  0.00    +0.277 C 
ENDBRANCH  24   6
ENDBRANCH  18  19
ENDBRANCH  12   8
BRANCH  11   2
ATOM      2  O   UNL     1      -1.114  -2.036  25.737  0.00  0.00    -0.387 OA
ATOM     30  H   UNL     1      -0.191  -2.193  25.472  0.00  0.00    +0.210 HD
ENDBRANCH  11   2
BRANCH  13   3
ATOM      3  O   UNL     1      -4.182  -3.216  24.131  0.00  0.00    -0.389 OA
ATOM     31  H   UNL     1      -4.167  -4.182  24.236  0.00  0.00    +0.210 HD
ENDBRANCH  13   3
TORSDOF 9
ENDMDL
MODEL 4
REMARK VINA RESULT:       2.0      2.045      7.610
REMARK  Name = 11865720
REMARK  10 active torsions:
REMARK  status: ('A' for Active; 'I' for Inactive)
REMARK    1  A    between atoms: O_2  and  C_11
REMARK    2  A    between atoms: O_3  and  C_13
REMARK    3  A    between atoms: O_6  and  C_24
REMARK    4  A    between atoms: O_6  and  C_28
REMARK    5  A    between atoms: N_8  and  C_12
REMARK    6  A    between atoms: N_9  and  C_20
REMARK    7  A    between atoms: C_15  and  C_17
REMARK    8  A    between atoms: C_18  and  C_19
REMARK    9  A    between atoms: C_20  and  C_21
REMARK   10  A    between atoms: C_21  and  C_26
REMARK                            x       y       z     vdW  Elec       q    Type
REMARK                         _______ _______ _______ _____ _____    ______ ____
ROOT
ATOM     11  C   UNL     1      -1.493  -1.909  25.350  0.00  0.00    +0.167 C 
ATOM     12  C   UNL     1      -1.209  -1.054  24.099  0.00  0.00    +0.128 C 
ATOM     13  C   UNL     1      -2.996  -2.164  25.526  0.00  0.00    +0.149 C 
ATOM     14  C   UNL     1      -3.802  -0.856  25.579  0.00  0.00    +0.074 C 
ATOM     15  C   UNL     1      -3.303   0.193  24.626  0.00  0.00    +0.015 C 
ATOM     16  C   UNL     1      -2.147   0.112  23.950  0.00  0.00    +0.006 C 
ENDROOT
BRANCH  15  17
ATOM      4  O   UNL     1      -4.158   1.935  23.302  0.00  0.00    -0.271 OA
ATOM      9  N   UNL     1      -4.858   1.752  25.518  0.00  0.00    -0.311 N 
ATOM     17  C   UNL     1      -4.139   1.375  24.398  0.00  0.00    +0.240 C 
ATOM     32  H   UNL     1      -4.776   1.212  26.375  0.00  0.00    +0.149 HD
BRANCH   9  20
ATOM     20  C   UNL     1      -5.750   2.889  25.539  0.00  0.00    +0.113 C 
BRANCH  20  21
ATOM     21  C   UNL     1      -5.002   4.210  25.436  0.00  0.00    +0.114 C 
BRANCH  21  26
ATOM      7  O   UNL     1      -3.138   3.839  26.947  0.00  0.00    -0.276 OA
ATOM     10  N   UNL     1      -2.699   4.351  24.749  0.00  0.00    -0.329 N 
ATOM     26  C   UNL     1      -3.536   4.103  25.817  0.00  0.00    +0.212 C 
ATOM     33  H   UNL     1      -1.691   4.317  24.859  0.00  0.00    +0.145 HD
ATOM     34  H   UNL     1      -3.051   4.571  23.824  0.00  0.00    +0.145 HD
ENDBRANCH  21  26
ENDBRANCH  20  21
ENDBRANCH   9  20
ENDBRANCH  15  17
BRANCH  12   8
ATOM      5  O   UNL     1       0.482  -0.742  21.799  0.00  0.00    -0.270 OA
ATOM      8  N   UNL     1       0.149  -0.566  24.086  0.00  0.00    -0.302 N 
ATOM     18  C   UNL     1       0.890  -0.450  22.920  0.00  0.00    +0.246 C 
ATOM     29  H   UNL     1       0.591  -0.345  24.975  0.00  0.00    +0.150 HD
BRANCH  18  19
ATOM      1 BR   UNL     1       1.218   2.723  23.214  0.00  0.00    -0.050 Br
ATOM     19  C   UNL     1       2.282   0.044  23.080  0.00  0.00    +0.054 A 
ATOM     22  C   UNL     1       3.309  -0.899  23.089  0.00  0.00    +0.059 A 
ATOM     23  C   UNL     1       2.577   1.399  23.218  0.00  0.00    +0.030 A 
ATOM     24  C   UNL     1       4.633  -0.487  23.238  0.00  0.00    +0.121 A 
ATOM     25  C   UNL     1       3.902   1.813  23.367  0.00  0.00    +0.019 A 
ATOM     27  C   UNL     1       4.930   0.869  23.377  0.00  0.00    +0.047 A 
BRANCH  24   6
ATOM      6  O   UNL     1       5.636  -1.407  23.248  0.00  0.00    -0.495 OA
ATOM     28  C   UNL     1       6.956  -0.931  22.992  0.00  0.00    +0.277 C 
ENDBRANCH  24   6
ENDBRANCH  18  19
ENDBRANCH  12   8
BRANCH  11   2
ATOM      2  O   UNL     1      -1.002  -1.236  26.511  0.00  0.00    -0.387 OA
ATOM     30  H   UNL     1      -1.303  -1.738  27.289  0.00  0.00    +0.210 HD
ENDBRANCH  11   2
BRANCH  13   3
ATOM      3  O   UNL     1      -3.480  -2.995  24.473  0.00  0.00    -0.389 OA
ATOM     31  H   UNL     1      -2.838  -3.713  24.347  0.00  0.00    +0.210 HD
ENDBRANCH  13   3
TORSDOF 9
ENDMDL
MODEL 5
REMARK VINA RESULT:       2.9      2.178      4.675
REMARK  Name = 11865720
REMARK  10 active torsions:
REMARK  status: ('A' for Active; 'I' for Inactive)
REMARK    1  A    between atoms: O_2  and  C_11
REMARK    2  A    between atoms: O_3  and  C_13
REMARK    3  A    between atoms: O_6  and  C_24
REMARK    4  A    between atoms: O_6  and  C_28
REMARK    5  A    between atoms: N_8  and  C_12
REMARK    6  A    between atoms: N_9  and  C_20
REMARK    7  A    between atoms: C_15  and  C_17
REMARK    8  A    between atoms: C_18  and  C_19
REMARK    9  A    between atoms: C_20  and  C_21
REMARK   10  A    between atoms: C_21  and  C_26
REMARK                            x       y       z     vdW  Elec       q    Type
REMARK                         _______ _______ _______ _____ _____    ______ ____
ROOT
ATOM     11  C   UNL     1       1.158   1.656  23.487  0.00  0.00    +0.167 C 
ATOM     12  C   UNL     1      -0.288   1.291  23.098  0.00  0.00    +0.128 C 
ATOM     13  C   UNL     1       2.116   0.479  23.257  0.00  0.00    +0.149 C 
ATOM     14  C   UNL     1       1.666  -0.788  24.003  0.00  0.00    +0.074 C 
ATOM     15  C   UNL     1       0.177  -0.990  23.993  0.00  0.00    +0.015 C 
ATOM     16  C   UNL     1      -0.709  -0.070  23.581  0.00  0.00    +0.006 C 
ENDROOT
BRANCH  15  17
ATOM      4  O   UNL     1       0.307  -3.008  25.188  0.00  0.00    -0.271 OA
ATOM      9  N   UNL     1      -1.607  -2.559  23.935  0.00  0.00    -0.311 N 
ATOM     17  C   UNL     1      -0.349  -2.283  24.440  0.00  0.00    +0.240 C 
ATOM     32  H   UNL     1      -2.066  -1.883  23.331  0.00  0.00    +0.149 HD
BRANCH   9  20
ATOM     20  C   UNL     1      -2.329  -3.774  24.233  0.00  0.00    +0.113 C 
BRANCH  20  21
ATOM     21  C   UNL     1      -3.694  -3.497  24.847  0.00  0.00    +0.114 C 
BRANCH  21  26
ATOM      7  O   UNL     1      -4.643  -1.442  23.969  0.00  0.00    -0.276 OA
ATOM     10  N   UNL     1      -3.630  -1.402  26.032  0.00  0.00    -0.329 N 
ATOM     26  C   UNL     1      -4.053  -2.022  24.875  0.00  0.00    +0.212 C 
ATOM     33  H   UNL     1      -3.799  -0.414  26.187  0.00  0.00    +0.145 HD
ATOM     34  H   UNL     1      -3.140  -1.902  26.767  0.00  0.00    +0.145 HD
ENDBRANCH  21  26
ENDBRANCH  20  21
ENDBRANCH   9  20
ENDBRANCH  15  17
BRANCH  12   8
ATOM      5  O   UNL     1      -1.725   1.214  25.582  0.00  0.00    -0.270 OA
ATOM      8  N   UNL     1      -1.231   2.271  23.579  0.00  0.00    -0.302 N 
ATOM     18  C   UNL     1      -1.879   2.147  24.799  0.00  0.00    +0.246 C 
ATOM     29  H   UNL     1      -1.461   3.057  22.976  0.00  0.00    +0.150 HD
BRANCH  18  19
ATOM      1 BR   UNL     1      -0.665   5.109  24.909  0.00  0.00    -0.050 Br
ATOM     19  C   UNL     1      -2.841   3.228  25.137  0.00  0.00    +0.054 A 
ATOM     22  C   UNL     1      -4.168   2.868  25.372  0.00  0.00    +0.059 A 
ATOM     23  C   UNL     1      -2.455   4.565  25.221  0.00  0.00    +0.030 A 
ATOM     24  C   UNL     1      -5.109   3.845  25.692  0.00  0.00    +0.121 A 
ATOM     25  C   UNL     1      -3.397   5.544  25.541  0.00  0.00    +0.019 A 
ATOM     27  C   UNL     1      -4.724   5.183  25.777  0.00  0.00    +0.047 A 
BRANCH  24   6
ATOM      6  O   UNL     1      -6.404   3.495  25.920  0.00  0.00    -0.495 OA
ATOM     28  C   UNL     1      -6.670   2.115  26.167  0.00  0.00    +0.277 C 
ENDBRANCH  24   6
ENDBRANCH  18  19
ENDBRANCH  12   8
BRANCH  11   2
ATOM      2  O   UNL     1       1.204   2.022  24.868  0.00  0.00    -0.387 OA
ATOM     30  H   UNL     1       0.429   2.581  25.049  0.00  0.00    +0.210 HD
ENDBRANCH  11   2
BRANCH  13   3
ATOM      3  O   UNL     1       2.235   0.210  21.862  0.00  0.00    -0.389 OA
ATOM     31  H   UNL     1       3.016  -0.356  21.738  0.00  0.00    +0.210 HD
ENDBRANCH  13   3
TORSDOF 9
ENDMDL
