MODEL 1
REMARK VINA RESULT:       8.3      0.000      0.000
REMARK  Name = 26762206
REMARK  5 active torsions:
REMARK  status: ('A' for Active; 'I' for Inactive)
REMARK    1  A    between atoms: N_8  and  C_13
REMARK    2  A    between atoms: N_10  and  C_28
REMARK    3  A    between atoms: C_12  and  C_17
REMARK    4  A    between atoms: C_17  and  C_19
REMARK    5  A    between atoms: C_19  and  C_20
REMARK                            x       y       z     vdW  Elec       q    Type
REMARK                         _______ _______ _______ _____ _____    ______ ____
ROOT
ATOM      3  O   UNL     1      -3.964  -1.073  26.067  0.00  0.00    -0.274 OA
ATOM      6  N   UNL     1      -3.587   1.610  23.956  0.00  0.00    -0.285 NA
ATOM      7  N   UNL     1      -5.253   0.840  25.933  0.00  0.00    -0.313 N 
ATOM     11  C   UNL     1      -3.959   0.198  24.002  0.00  0.00    +0.145 C 
ATOM     12  C   UNL     1      -4.715   2.522  24.168  0.00  0.00    +0.075 C 
ATOM     13  C   UNL     1      -1.955   0.555  22.682  0.00  0.00    +0.090 C 
ATOM     14  C   UNL     1      -2.702  -0.506  23.504  0.00  0.00    +0.052 C 
ATOM     15  C   UNL     1      -2.861   1.787  22.703  0.00  0.00    +0.107 C 
ATOM     16  C   UNL     1      -5.788   1.888  25.081  0.00  0.00    +0.123 C 
ATOM     18  C   UNL     1      -4.357  -0.098  25.436  0.00  0.00    +0.230 C 
ATOM     36  H   UNL     1      -5.615   0.729  26.875  0.00  0.00    +0.149 HD
ENDROOT
BRANCH  13   8
ATOM      5  O   UNL     1       0.543  -0.632  21.931  0.00  0.00    -0.252 OA
ATOM      8  N   UNL     1      -0.657   0.839  23.250  0.00  0.00    -0.295 N 
ATOM     10  N   UNL     1       1.615   0.686  23.551  0.00  0.00    -0.267 N 
ATOM     21  C   UNL     1       0.520   0.211  22.823  0.00  0.00    +0.304 C 
ATOM     37  H   UNL     1      -0.581   1.590  23.929  0.00  0.00    +0.151 HD
ATOM     38  H   UNL     1       1.425   1.390  24.260  0.00  0.00    +0.156 HD
BRANCH  10  28
ATOM      1  F   UNL     1       3.534   2.449  22.564  0.00  0.00    -0.203 F 
ATOM      2  F   UNL     1       6.930  -0.809  23.055  0.00  0.00    -0.205 F 
ATOM     28  C   UNL     1       2.971   0.306  23.423  0.00  0.00    +0.070 A 
ATOM     31  C   UNL     1       3.907   1.213  22.926  0.00  0.00    +0.147 A 
ATOM     32  C   UNL     1       3.372  -0.976  23.797  0.00  0.00    +0.029 A 
ATOM     33  C   UNL     1       5.246   0.836  22.801  0.00  0.00    +0.078 A 
ATOM     34  C   UNL     1       4.709  -1.353  23.672  0.00  0.00    +0.040 A 
ATOM     35  C   UNL     1       5.647  -0.447  23.175  0.00  0.00    +0.126 A 
ENDBRANCH  10  28
ENDBRANCH  13   8
BRANCH  12  17
ATOM     17  C   UNL     1      -4.187   3.817  24.791  0.00  0.00    +0.029 C 
BRANCH  17  19
ATOM     19  C   UNL     1      -2.669   3.836  24.889  0.00  0.00    +0.098 C 
BRANCH  19  20
ATOM      4  O   UNL     1      -3.007   3.877  27.235  0.00  0.00    -0.275 OA
ATOM      9  N   UNL     1      -0.895   3.250  26.464  0.00  0.00    -0.271 N 
ATOM     20  C   UNL     1      -2.214   3.659  26.319  0.00  0.00    +0.220 C 
ATOM     22  C   UNL     1       0.054   2.988  25.361  0.00  0.00    +0.118 C 
ATOM     23  C   UNL     1      -0.232   3.015  27.686  0.00  0.00    +0.039 A 
ATOM     24  C   UNL     1       1.385   2.556  25.984  0.00  0.00    +0.056 C 
ATOM     25  C   UNL     1       1.084   2.615  27.446  0.00  0.00    -0.024 A 
ATOM     26  C   UNL     1      -0.710   3.130  28.984  0.00  0.00    +0.024 A 
ATOM     27  C   UNL     1       1.949   2.321  28.489  0.00  0.00    +0.005 A 
ATOM     29  C   UNL     1       0.156   2.836  30.041  0.00  0.00    +0.002 A 
ATOM     30  C   UNL     1       1.477   2.434  29.796  0.00  0.00    +0.000 A 
ENDBRANCH  19  20
ENDBRANCH  17  19
ENDBRANCH  12  17
TORSDOF 5
ENDMDL
MODEL 2
REMARK VINA RESULT:       8.6      3.424      7.753
REMARK  Name = 26762206
REMARK  5 active torsions:
REMARK  status: ('A' for Active; 'I' for Inactive)
REMARK    1  A    between atoms: N_8  and  C_13
REMARK    2  A    between atoms: N_10  and  C_28
REMARK    3  A    between atoms: C_12  and  C_17
REMARK    4  A    between atoms: C_17  and  C_19
REMARK    5  A    between atoms: C_19  and  C_20
REMARK                            x       y       z     vdW  Elec       q    Type
REMARK                         _______ _______ _______ _____ _____    ______ ____
ROOT
ATOM      3  O   UNL     1       5.498   1.056  23.980  0.00  0.00    -0.274 OA
ATOM      6  N   UNL     1       2.546  -0.659  23.606  0.00  0.00    -0.285 NA
ATOM      7  N   UNL     1       5.042  -1.147  24.506  0.00  0.00    -0.313 N 
ATOM     11  C   UNL     1       3.651  -0.053  22.867  0.00  0.00    +0.145 C 
ATOM     12  C   UNL     1       2.780  -2.059  23.970  0.00  0.00    +0.075 C 
ATOM     13  C   UNL     1       1.544   1.053  22.396  0.00  0.00    +0.090 C 
ATOM     14  C   UNL     1       3.064   1.272  22.394  0.00  0.00    +0.052 C 
ATOM     15  C   UNL     1       1.352  -0.407  22.807  0.00  0.00    +0.107 C 
ATOM     16  C   UNL     1       4.285  -2.343  24.179  0.00  0.00    +0.123 C 
ATOM     18  C   UNL     1       4.814   0.048  23.836  0.00  0.00    +0.230 C 
ATOM     36  H   UNL     1       5.816  -1.209  25.160  0.00  0.00    +0.149 HD
ENDROOT
BRANCH  13   8
ATOM      5  O   UNL     1      -1.279   1.465  22.667  0.00  0.00    -0.252 OA
ATOM      8  N   UNL     1       0.886   1.956  23.312  0.00  0.00    -0.295 N 
ATOM     10  N   UNL     1      -0.850   3.037  24.357  0.00  0.00    -0.267 N 
ATOM     21  C   UNL     1      -0.505   2.098  23.381  0.00  0.00    +0.304 C 
ATOM     37  H   UNL     1       1.453   2.445  23.999  0.00  0.00    +0.151 HD
ATOM     38  H   UNL     1      -0.084   3.474  24.865  0.00  0.00    +0.156 HD
BRANCH  10  28
ATOM      1  F   UNL     1      -1.506   3.535  27.019  0.00  0.00    -0.203 F 
ATOM      2  F   UNL     1      -5.930   4.704  25.820  0.00  0.00    -0.205 F 
ATOM     28  C   UNL     1      -2.146   3.462  24.732  0.00  0.00    +0.070 A 
ATOM     31  C   UNL     1      -2.442   3.703  26.074  0.00  0.00    +0.147 A 
ATOM     32  C   UNL     1      -3.128   3.641  23.758  0.00  0.00    +0.029 A 
ATOM     33  C   UNL     1      -3.721   4.123  26.442  0.00  0.00    +0.078 A 
ATOM     34  C   UNL     1      -4.406   4.060  24.126  0.00  0.00    +0.040 A 
ATOM     35  C   UNL     1      -4.703   4.302  25.468  0.00  0.00    +0.126 A 
ENDBRANCH  10  28
ENDBRANCH  13   8
BRANCH  12  17
ATOM     17  C   UNL     1       2.000  -2.369  25.250  0.00  0.00    +0.029 C 
BRANCH  17  19
ATOM     19  C   UNL     1       0.582  -2.840  24.965  0.00  0.00    +0.098 C 
BRANCH  19  20
ATOM      4  O   UNL     1      -0.059  -0.725  25.823  0.00  0.00    -0.275 OA
ATOM      9  N   UNL     1      -1.692  -1.979  24.725  0.00  0.00    -0.271 N 
ATOM     20  C   UNL     1      -0.418  -1.735  25.219  0.00  0.00    +0.220 C 
ATOM     22  C   UNL     1      -2.120  -3.194  23.999  0.00  0.00    +0.118 C 
ATOM     23  C   UNL     1      -2.799  -1.112  24.830  0.00  0.00    +0.039 A 
ATOM     24  C   UNL     1      -3.600  -3.027  23.640  0.00  0.00    +0.056 C 
ATOM     25  C   UNL     1      -3.915  -1.686  24.217  0.00  0.00    -0.024 A 
ATOM     26  C   UNL     1      -2.886   0.138  25.426  0.00  0.00    +0.024 A 
ATOM     27  C   UNL     1      -5.136  -1.030  24.184  0.00  0.00    +0.005 A 
ATOM     29  C   UNL     1      -4.114   0.806  25.398  0.00  0.00    +0.002 A 
ATOM     30  C   UNL     1      -5.231   0.228  24.780  0.00  0.00    +0.000 A 
ENDBRANCH  19  20
ENDBRANCH  17  19
ENDBRANCH  12  17
TORSDOF 5
ENDMDL
MODEL 3
REMARK VINA RESULT:       8.9      2.405      4.439
REMARK  Name = 26762206
REMARK  5 active torsions:
REMARK  status: ('A' for Active; 'I' for Inactive)
REMARK    1  A    between atoms: N_8  and  C_13
REMARK    2  A    between atoms: N_10  and  C_28
REMARK    3  A    between atoms: C_12  and  C_17
REMARK    4  A    between atoms: C_17  and  C_19
REMARK    5  A    between atoms: C_19  and  C_20
REMARK                            x       y       z     vdW  Elec       q    Type
REMARK                         _______ _______ _______ _____ _____    ______ ____
ROOT
ATOM      3  O   UNL     1      -3.599   6.246  23.587  0.00  0.00    -0.274 OA
ATOM      6  N   UNL     1      -3.458   3.307  25.358  0.00  0.00    -0.285 NA
ATOM      7  N   UNL     1      -5.349   4.936  24.337  0.00  0.00    -0.313 N 
ATOM     11  C   UNL     1      -3.219   4.745  25.453  0.00  0.00    +0.145 C 
ATOM     12  C   UNL     1      -4.827   2.913  25.704  0.00  0.00    +0.075 C 
ATOM     13  C   UNL     1      -1.169   3.477  25.725  0.00  0.00    +0.090 C 
ATOM     14  C   UNL     1      -1.706   4.854  25.309  0.00  0.00    +0.052 C 
ATOM     15  C   UNL     1      -2.404   2.679  26.148  0.00  0.00    +0.107 C 
ATOM     16  C   UNL     1      -5.837   4.032  25.364  0.00  0.00    +0.123 C 
ATOM     18  C   UNL     1      -4.037   5.391  24.351  0.00  0.00    +0.230 C 
ATOM     36  H   UNL     1      -6.000   5.321  23.660  0.00  0.00    +0.149 HD
ENDROOT
BRANCH  13   8
ATOM      5  O   UNL     1       1.465   2.352  25.808  0.00  0.00    -0.252 OA
ATOM      8  N   UNL     1      -0.468   2.836  24.637  0.00  0.00    -0.295 N 
ATOM     10  N   UNL     1       1.241   1.755  23.549  0.00  0.00    -0.267 N 
ATOM     21  C   UNL     1       0.823   2.310  24.761  0.00  0.00    +0.304 C 
ATOM     37  H   UNL     1      -0.967   2.682  23.765  0.00  0.00    +0.151 HD
ATOM     38  H   UNL     1       0.585   1.801  22.772  0.00  0.00    +0.156 HD
BRANCH  10  28
ATOM      1  F   UNL     1       1.460  -0.188  21.563  0.00  0.00    -0.203 F 
ATOM      2  F   UNL     1       6.082  -0.702  22.428  0.00  0.00    -0.205 F 
ATOM     28  C   UNL     1       2.475   1.126  23.262  0.00  0.00    +0.070 A 
ATOM     31  C   UNL     1       2.551   0.158  22.261  0.00  0.00    +0.147 A 
ATOM     32  C   UNL     1       3.618   1.478  23.980  0.00  0.00    +0.029 A 
ATOM     33  C   UNL     1       3.770  -0.461  21.980  0.00  0.00    +0.078 A 
ATOM     34  C   UNL     1       4.836   0.860  23.699  0.00  0.00    +0.040 A 
ATOM     35  C   UNL     1       4.913  -0.109  22.698  0.00  0.00    +0.126 A 
ENDBRANCH  10  28
ENDBRANCH  13   8
BRANCH  12  17
ATOM     17  C   UNL     1      -5.176   1.634  24.939  0.00  0.00    +0.029 C 
BRANCH  17  19
ATOM     19  C   UNL     1      -4.575   1.611  23.542  0.00  0.00    +0.098 C 
BRANCH  19  20
ATOM      4  O   UNL     1      -2.287   1.563  22.925  0.00  0.00    -0.275 OA
ATOM      9  N   UNL     1      -3.061  -0.145  24.315  0.00  0.00    -0.271 N 
ATOM     20  C   UNL     1      -3.188   1.012  23.558  0.00  0.00    +0.220 C 
ATOM     22  C   UNL     1      -4.146  -0.804  25.074  0.00  0.00    +0.118 C 
ATOM     23  C   UNL     1      -1.879  -0.892  24.491  0.00  0.00    +0.039 A 
ATOM     24  C   UNL     1      -3.552  -2.038  25.760  0.00  0.00    +0.056 C 
ATOM     25  C   UNL     1      -2.126  -1.991  25.317  0.00  0.00    -0.024 A 
ATOM     26  C   UNL     1      -0.610  -0.669  23.974  0.00  0.00    +0.024 A 
ATOM     27  C   UNL     1      -1.121  -2.887  25.645  0.00  0.00    +0.005 A 
ATOM     29  C   UNL     1       0.410  -1.568  24.300  0.00  0.00    +0.002 A 
ATOM     30  C   UNL     1       0.158  -2.669  25.130  0.00  0.00    +0.000 A 
ENDBRANCH  19  20
ENDBRANCH  17  19
ENDBRANCH  12  17
TORSDOF 5
ENDMDL
MODEL 4
REMARK VINA RESULT:       9.4      3.287      5.888
REMARK  Name = 26762206
REMARK  5 active torsions:
REMARK  status: ('A' for Active; 'I' for Inactive)
REMARK    1  A    between atoms: N_8  and  C_13
REMARK    2  A    between atoms: N_10  and  C_28
REMARK    3  A    between atoms: C_12  and  C_17
REMARK    4  A    between atoms: C_17  and  C_19
REMARK    5  A    between atoms: C_19  and  C_20
REMARK                            x       y       z     vdW  Elec       q    Type
REMARK                         _______ _______ _______ _____ _____    ______ ____
ROOT
ATOM      3  O   UNL     1      -2.077  -1.481  27.662  0.00  0.00    -0.274 OA
ATOM      6  N   UNL     1      -1.800  -2.091  24.294  0.00  0.00    -0.285 NA
ATOM      7  N   UNL     1      -3.608  -2.491  26.256  0.00  0.00    -0.313 N 
ATOM     11  C   UNL     1      -1.286  -2.487  25.603  0.00  0.00    +0.145 C 
ATOM     12  C   UNL     1      -2.976  -2.856  23.868  0.00  0.00    +0.075 C 
ATOM     13  C   UNL     1       0.442  -1.482  24.227  0.00  0.00    +0.090 C 
ATOM     14  C   UNL     1       0.046  -1.752  25.686  0.00  0.00    +0.052 C 
ATOM     15  C   UNL     1      -0.656  -2.140  23.389  0.00  0.00    +0.107 C 
ATOM     16  C   UNL     1      -3.817  -3.317  25.080  0.00  0.00    +0.123 C 
ATOM     18  C   UNL     1      -2.333  -2.076  26.620  0.00  0.00    +0.230 C 
ATOM     36  H   UNL     1      -4.388  -2.298  26.876  0.00  0.00    +0.149 HD
ENDROOT
BRANCH  13   8
ATOM      5  O   UNL     1      -1.134   0.594  25.417  0.00  0.00    -0.252 OA
ATOM      8  N   UNL     1       0.538  -0.066  23.963  0.00  0.00    -0.295 N 
ATOM     10  N   UNL     1       0.046   2.171  24.139  0.00  0.00    -0.267 N 
ATOM     21  C   UNL     1      -0.274   0.887  24.590  0.00  0.00    +0.304 C 
ATOM     37  H   UNL     1       1.286   0.264  23.360  0.00  0.00    +0.151 HD
ATOM     38  H   UNL     1       0.789   2.243  23.448  0.00  0.00    +0.156 HD
BRANCH  10  28
ATOM      1  F   UNL     1       0.637   4.551  22.817  0.00  0.00    -0.203 F 
ATOM      2  F   UNL     1      -2.258   6.976  25.666  0.00  0.00    -0.205 F 
ATOM     28  C   UNL     1      -0.541   3.398  24.528  0.00  0.00    +0.070 A 
ATOM     31  C   UNL     1      -0.224   4.572  23.844  0.00  0.00    +0.147 A 
ATOM     32  C   UNL     1      -1.439   3.433  25.594  0.00  0.00    +0.029 A 
ATOM     33  C   UNL     1      -0.804   5.782  24.229  0.00  0.00    +0.078 A 
ATOM     34  C   UNL     1      -2.018   4.642  25.979  0.00  0.00    +0.040 A 
ATOM     35  C   UNL     1      -1.702   5.816  25.296  0.00  0.00    +0.126 A 
ENDBRANCH  10  28
ENDBRANCH  13   8
BRANCH  12  17
ATOM     17  C   UNL     1      -3.821  -1.980  22.940  0.00  0.00    +0.029 C 
BRANCH  17  19
ATOM     19  C   UNL     1      -3.389  -0.521  22.968  0.00  0.00    +0.098 C 
BRANCH  19  20
ATOM      4  O   UNL     1      -4.787  -0.336  24.873  0.00  0.00    -0.275 OA
ATOM      9  N   UNL     1      -4.185   1.640  23.785  0.00  0.00    -0.271 N 
ATOM     20  C   UNL     1      -4.194   0.264  23.977  0.00  0.00    +0.220 C 
ATOM     22  C   UNL     1      -3.471   2.357  22.707  0.00  0.00    +0.118 C 
ATOM     23  C   UNL     1      -4.853   2.590  24.584  0.00  0.00    +0.039 A 
ATOM     24  C   UNL     1      -3.735   3.855  22.889  0.00  0.00    +0.056 C 
ATOM     25  C   UNL     1      -4.617   3.877  24.094  0.00  0.00    -0.024 A 
ATOM     26  C   UNL     1      -5.650   2.396  25.703  0.00  0.00    +0.024 A 
ATOM     27  C   UNL     1      -5.166   4.993  24.707  0.00  0.00    +0.005 A 
ATOM     29  C   UNL     1      -6.208   3.516  26.327  0.00  0.00    +0.002 A 
ATOM     30  C   UNL     1      -5.967   4.806  25.833  0.00  0.00    +0.000 A 
ENDBRANCH  19  20
ENDBRANCH  17  19
ENDBRANCH  12  17
TORSDOF 5
ENDMDL
MODEL 5
REMARK VINA RESULT:       9.4      2.520      4.551
REMARK  Name = 26762206
REMARK  5 active torsions:
REMARK  status: ('A' for Active; 'I' for Inactive)
REMARK    1  A    between atoms: N_8  and  C_13
REMARK    2  A    between atoms: N_10  and  C_28
REMARK    3  A    between atoms: C_12  and  C_17
REMARK    4  A    between atoms: C_17  and  C_19
REMARK    5  A    between atoms: C_19  and  C_20
REMARK                            x       y       z     vdW  Elec       q    Type
REMARK                         _______ _______ _______ _____ _____    ______ ____
ROOT
ATOM      3  O   UNL     1      -4.358   6.031  23.059  0.00  0.00    -0.274 OA
ATOM      6  N   UNL     1      -3.441   3.762  25.469  0.00  0.00    -0.285 NA
ATOM      7  N   UNL     1      -5.720   4.759  24.426  0.00  0.00    -0.313 N 
ATOM     11  C   UNL     1      -3.459   5.187  25.147  0.00  0.00    +0.145 C 
ATOM     12  C   UNL     1      -4.655   3.298  26.147  0.00  0.00    +0.075 C 
ATOM     13  C   UNL     1      -1.194   4.343  25.358  0.00  0.00    +0.090 C 
ATOM     14  C   UNL     1      -2.025   5.458  24.707  0.00  0.00    +0.052 C 
ATOM     15  C   UNL     1      -2.192   3.535  26.188  0.00  0.00    +0.107 C 
ATOM     16  C   UNL     1      -5.889   4.124  25.721  0.00  0.00    +0.123 C 
ATOM     18  C   UNL     1      -4.524   5.376  24.083  0.00  0.00    +0.230 C 
ATOM     36  H   UNL     1      -6.518   4.844  23.803  0.00  0.00    +0.149 HD
ENDROOT
BRANCH  13   8
ATOM      5  O   UNL     1       1.051   2.608  25.761  0.00  0.00    -0.252 OA
ATOM      8  N   UNL     1      -0.544   3.524  24.361  0.00  0.00    -0.295 N 
ATOM     10  N   UNL     1       0.965   2.030  23.487  0.00  0.00    -0.267 N 
ATOM     21  C   UNL     1       0.552   2.700  24.642  0.00  0.00    +0.304 C 
ATOM     37  H   UNL     1      -0.955   3.475  23.433  0.00  0.00    +0.151 HD
ATOM     38  H   UNL     1       0.442   2.217  22.635  0.00  0.00    +0.156 HD
BRANCH  10  28
ATOM      1  F   UNL     1       0.505  -0.697  23.143  0.00  0.00    -0.203 F 
ATOM      2  F   UNL     1       5.152  -1.565  22.958  0.00  0.00    -0.205 F 
ATOM     28  C   UNL     1       2.032   1.111  23.353  0.00  0.00    +0.070 A 
ATOM     31  C   UNL     1       1.768  -0.248  23.181  0.00  0.00    +0.147 A 
ATOM     32  C   UNL     1       3.350   1.566  23.390  0.00  0.00    +0.029 A 
ATOM     33  C   UNL     1       2.823  -1.153  23.048  0.00  0.00    +0.078 A 
ATOM     34  C   UNL     1       4.404   0.661  23.257  0.00  0.00    +0.040 A 
ATOM     35  C   UNL     1       4.140  -0.698  23.085  0.00  0.00    +0.126 A 
ENDBRANCH  10  28
ENDBRANCH  13   8
BRANCH  12  17
ATOM     17  C   UNL     1      -4.867   1.819  25.813  0.00  0.00    +0.029 C 
BRANCH  17  19
ATOM     19  C   UNL     1      -4.592   1.510  24.349  0.00  0.00    +0.098 C 
BRANCH  19  20
ATOM      4  O   UNL     1      -4.723  -0.711  23.530  0.00  0.00    -0.275 OA
ATOM      9  N   UNL     1      -2.848  -0.142  24.799  0.00  0.00    -0.271 N 
ATOM     20  C   UNL     1      -4.067   0.103  24.180  0.00  0.00    +0.220 C 
ATOM     22  C   UNL     1      -2.063   0.838  25.579  0.00  0.00    +0.118 C 
ATOM     23  C   UNL     1      -2.149  -1.367  24.792  0.00  0.00    +0.039 A 
ATOM     24  C   UNL     1      -0.792   0.135  26.066  0.00  0.00    +0.056 C 
ATOM     25  C   UNL     1      -0.961  -1.243  25.514  0.00  0.00    -0.024 A 
ATOM     26  C   UNL     1      -2.491  -2.572  24.195  0.00  0.00    +0.024 A 
ATOM     27  C   UNL     1      -0.089  -2.311  25.658  0.00  0.00    +0.005 A 
ATOM     29  C   UNL     1      -1.618  -3.656  24.336  0.00  0.00    +0.002 A 
ATOM     30  C   UNL     1      -0.425  -3.527  25.061  0.00  0.00    +0.000 A 
ENDBRANCH  19  20
ENDBRANCH  17  19
ENDBRANCH  12  17
TORSDOF 5
ENDMDL
MODEL 6
REMARK VINA RESULT:      10.2      2.050      3.915
REMARK  Name = 26762206
REMARK  5 active torsions:
REMARK  status: ('A' for Active; 'I' for Inactive)
REMARK    1  A    between atoms: N_8  and  C_13
REMARK    2  A    between atoms: N_10  and  C_28
REMARK    3  A    between atoms: C_12  and  C_17
REMARK    4  A    between atoms: C_17  and  C_19
REMARK    5  A    between atoms: C_19  and  C_20
REMARK                            x       y       z     vdW  Elec       q    Type
REMARK                         _______ _______ _______ _____ _____    ______ ____
ROOT
ATOM      3  O   UNL     1      -4.883   0.831  24.185  0.00  0.00    -0.274 OA
ATOM      6  N   UNL     1      -2.199   2.970  24.298  0.00  0.00    -0.285 NA
ATOM      7  N   UNL     1      -4.393   2.437  25.773  0.00  0.00    -0.313 N 
ATOM     11  C   UNL     1      -3.432   2.675  23.573  0.00  0.00    +0.145 C 
ATOM     12  C   UNL     1      -2.386   3.882  25.430  0.00  0.00    +0.075 C 
ATOM     13  C   UNL     1      -1.477   2.399  22.164  0.00  0.00    +0.090 C 
ATOM     14  C   UNL     1      -2.936   1.948  22.329  0.00  0.00    +0.052 C 
ATOM     15  C   UNL     1      -1.243   3.411  23.287  0.00  0.00    +0.107 C 
ATOM     16  C   UNL     1      -3.794   3.732  26.047  0.00  0.00    +0.123 C 
ATOM     18  C   UNL     1      -4.300   1.859  24.513  0.00  0.00    +0.230 C 
ATOM     36  H   UNL     1      -4.973   1.996  26.479  0.00  0.00    +0.149 HD
ENDROOT
BRANCH  13   8
ATOM      5  O   UNL     1       1.218   2.453  23.137  0.00  0.00    -0.252 OA
ATOM      8  N   UNL     1      -0.569   1.279  22.257  0.00  0.00    -0.295 N 
ATOM     10  N   UNL     1       1.375   0.148  22.720  0.00  0.00    -0.267 N 
ATOM     21  C   UNL     1       0.738   1.391  22.747  0.00  0.00    +0.304 C 
ATOM     37  H   UNL     1      -0.922   0.352  22.041  0.00  0.00    +0.151 HD
ATOM     38  H   UNL     1       0.835  -0.638  22.366  0.00  0.00    +0.156 HD
BRANCH  10  28
ATOM      1  F   UNL     1       3.436   2.013  22.516  0.00  0.00    -0.203 F 
ATOM      2  F   UNL     1       6.541  -1.064  24.327  0.00  0.00    -0.205 F 
ATOM     28  C   UNL     1       2.694  -0.159  23.129  0.00  0.00    +0.070 A 
ATOM     31  C   UNL     1       3.703   0.797  23.014  0.00  0.00    +0.147 A 
ATOM     32  C   UNL     1       2.984  -1.420  23.650  0.00  0.00    +0.029 A 
ATOM     33  C   UNL     1       5.004   0.491  23.418  0.00  0.00    +0.078 A 
ATOM     34  C   UNL     1       4.284  -1.726  24.054  0.00  0.00    +0.040 A 
ATOM     35  C   UNL     1       5.294  -0.770  23.939  0.00  0.00    +0.126 A 
ENDBRANCH  10  28
ENDBRANCH  13   8
BRANCH  12  17
ATOM     17  C   UNL     1      -1.313   3.583  26.481  0.00  0.00    +0.029 C 
BRANCH  17  19
ATOM     19  C   UNL     1      -1.455   2.189  27.073  0.00  0.00    +0.098 C 
BRANCH  19  20
ATOM      4  O   UNL     1       0.038   1.274  25.475  0.00  0.00    -0.275 OA
ATOM      9  N   UNL     1      -1.899   0.063  25.955  0.00  0.00    -0.271 N 
ATOM     20  C   UNL     1      -1.023   1.132  26.084  0.00  0.00    +0.220 C 
ATOM     22  C   UNL     1      -3.172  -0.104  26.688  0.00  0.00    +0.118 C 
ATOM     23  C   UNL     1      -1.729  -1.048  25.102  0.00  0.00    +0.039 A 
ATOM     24  C   UNL     1      -3.801  -1.427  26.235  0.00  0.00    +0.056 C 
ATOM     25  C   UNL     1      -2.807  -1.924  25.238  0.00  0.00    -0.024 A 
ATOM     26  C   UNL     1      -0.694  -1.332  24.222  0.00  0.00    +0.024 A 
ATOM     27  C   UNL     1      -2.878  -3.099  24.504  0.00  0.00    +0.005 A 
ATOM     29  C   UNL     1      -0.758  -2.514  23.478  0.00  0.00    +0.002 A 
ATOM     30  C   UNL     1      -1.841  -3.392  23.618  0.00  0.00    +0.000 A 
ENDBRANCH  19  20
ENDBRANCH  17  19
ENDBRANCH  12  17
TORSDOF 5
ENDMDL
MODEL 7
REMARK VINA RESULT:      10.3      3.147      5.980
REMARK  Name = 26762206
REMARK  5 active torsions:
REMARK  status: ('A' for Active; 'I' for Inactive)
REMARK    1  A    between atoms: N_8  and  C_13
REMARK    2  A    between atoms: N_10  and  C_28
REMARK    3  A    between atoms: C_12  and  C_17
REMARK    4  A    between atoms: C_17  and  C_19
REMARK    5  A    between atoms: C_19  and  C_20
REMARK                            x       y       z     vdW  Elec       q    Type
REMARK                         _______ _______ _______ _____ _____    ______ ____
ROOT
ATOM      3  O   UNL     1      -3.098   4.106  28.057  0.00  0.00    -0.274 OA
ATOM      6  N   UNL     1      -3.936   3.661  24.756  0.00  0.00    -0.285 NA
ATOM      7  N   UNL     1      -2.049   4.958  26.183  0.00  0.00    -0.313 N 
ATOM     11  C   UNL     1      -4.362   4.302  25.998  0.00  0.00    +0.145 C 
ATOM     12  C   UNL     1      -3.045   4.493  23.941  0.00  0.00    +0.075 C 
ATOM     13  C   UNL     1      -5.951   2.622  25.264  0.00  0.00    +0.090 C 
ATOM     14  C   UNL     1      -5.453   3.369  26.510  0.00  0.00    +0.052 C 
ATOM     15  C   UNL     1      -5.161   3.219  24.099  0.00  0.00    +0.107 C 
ATOM     16  C   UNL     1      -2.197   5.439  24.820  0.00  0.00    +0.123 C 
ATOM     18  C   UNL     1      -3.127   4.417  26.871  0.00  0.00    +0.230 C 
ATOM     36  H   UNL     1      -1.173   5.111  26.674  0.00  0.00    +0.149 HD
ENDROOT
BRANCH  13   8
ATOM      5  O   UNL     1      -3.936   1.080  23.931  0.00  0.00    -0.252 OA
ATOM      8  N   UNL     1      -5.731   1.199  25.384  0.00  0.00    -0.295 N 
ATOM     10  N   UNL     1      -4.747  -0.842  25.008  0.00  0.00    -0.267 N 
ATOM     21  C   UNL     1      -4.719   0.520  24.695  0.00  0.00    +0.304 C 
ATOM     37  H   UNL     1      -6.277   0.681  26.066  0.00  0.00    +0.151 HD
ATOM     38  H   UNL     1      -5.462  -1.148  25.663  0.00  0.00    +0.156 HD
BRANCH  10  28
ATOM      1  F   UNL     1      -2.127  -1.105  25.919  0.00  0.00    -0.203 F 
ATOM      2  F   UNL     1      -1.413  -4.841  23.105  0.00  0.00    -0.205 F 
ATOM     28  C   UNL     1      -3.894  -1.861  24.523  0.00  0.00    +0.070 A 
ATOM     31  C   UNL     1      -2.588  -1.966  25.000  0.00  0.00    +0.147 A 
ATOM     32  C   UNL     1      -4.363  -2.763  23.568  0.00  0.00    +0.029 A 
ATOM     33  C   UNL     1      -1.749  -2.973  24.521  0.00  0.00    +0.078 A 
ATOM     34  C   UNL     1      -3.524  -3.770  23.089  0.00  0.00    +0.040 A 
ATOM     35  C   UNL     1      -2.217  -3.875  23.566  0.00  0.00    +0.126 A 
ENDBRANCH  10  28
ENDBRANCH  13   8
BRANCH  12  17
ATOM     17  C   UNL     1      -2.135   3.576  23.120  0.00  0.00    +0.029 C 
BRANCH  17  19
ATOM     19  C   UNL     1      -1.428   2.539  23.980  0.00  0.00    +0.098 C 
BRANCH  19  20
ATOM      4  O   UNL     1       0.662   3.585  23.584  0.00  0.00    -0.275 OA
ATOM      9  N   UNL     1       0.611   1.251  23.587  0.00  0.00    -0.271 N 
ATOM     20  C   UNL     1       0.056   2.519  23.696  0.00  0.00    +0.220 C 
ATOM     22  C   UNL     1      -0.120  -0.026  23.722  0.00  0.00    +0.118 C 
ATOM     23  C   UNL     1       1.966   0.962  23.328  0.00  0.00    +0.039 A 
ATOM     24  C   UNL     1       0.889  -1.164  23.534  0.00  0.00    +0.056 C 
ATOM     25  C   UNL     1       2.161  -0.421  23.289  0.00  0.00    -0.024 A 
ATOM     26  C   UNL     1       3.030   1.830  23.125  0.00  0.00    +0.024 A 
ATOM     27  C   UNL     1       3.412  -0.966  23.049  0.00  0.00    +0.005 A 
ATOM     29  C   UNL     1       4.295   1.288  22.881  0.00  0.00    +0.002 A 
ATOM     30  C   UNL     1       4.487  -0.100  22.844  0.00  0.00    +0.000 A 
ENDBRANCH  19  20
ENDBRANCH  17  19
ENDBRANCH  12  17
TORSDOF 5
ENDMDL
MODEL 8
REMARK VINA RESULT:      10.9      2.825      5.471
REMARK  Name = 26762206
REMARK  5 active torsions:
REMARK  status: ('A' for Active; 'I' for Inactive)
REMARK    1  A    between atoms: N_8  and  C_13
REMARK    2  A    between atoms: N_10  and  C_28
REMARK    3  A    between atoms: C_12  and  C_17
REMARK    4  A    between atoms: C_17  and  C_19
REMARK    5  A    between atoms: C_19  and  C_20
REMARK                            x       y       z     vdW  Elec       q    Type
REMARK                         _______ _______ _______ _____ _____    ______ ____
ROOT
ATOM      3  O   UNL     1      -0.103  -2.910  24.962  0.00  0.00    -0.274 OA
ATOM      6  N   UNL     1      -2.042  -0.155  24.293  0.00  0.00    -0.285 NA
ATOM      7  N   UNL     1      -2.401  -2.707  25.089  0.00  0.00    -0.313 N 
ATOM     11  C   UNL     1      -1.196  -1.172  23.673  0.00  0.00    +0.145 C 
ATOM     12  C   UNL     1      -3.450  -0.548  24.403  0.00  0.00    +0.075 C 
ATOM     13  C   UNL     1      -0.265   1.053  23.408  0.00  0.00    +0.090 C 
ATOM     14  C   UNL     1       0.117  -0.435  23.443  0.00  0.00    +0.052 C 
ATOM     15  C   UNL     1      -1.788   1.076  23.553  0.00  0.00    +0.107 C 
ATOM     16  C   UNL     1      -3.597  -2.079  24.556  0.00  0.00    +0.123 C 
ATOM     18  C   UNL     1      -1.140  -2.337  24.642  0.00  0.00    +0.230 C 
ATOM     36  H   UNL     1      -2.492  -3.497  25.721  0.00  0.00    +0.149 HD
ENDROOT
BRANCH  13   8
ATOM      5  O   UNL     1      -0.652   0.690  26.224  0.00  0.00    -0.252 OA
ATOM      8  N   UNL     1       0.383   1.786  24.471  0.00  0.00    -0.295 N 
ATOM     10  N   UNL     1       0.905   2.402  26.620  0.00  0.00    -0.267 N 
ATOM     21  C   UNL     1       0.137   1.545  25.828  0.00  0.00    +0.304 C 
ATOM     37  H   UNL     1       1.115   2.445  24.226  0.00  0.00    +0.151 HD
ATOM     38  H   UNL     1       1.513   3.056  26.133  0.00  0.00    +0.156 HD
BRANCH  10  28
ATOM      1  F   UNL     1       3.306   2.209  28.021  0.00  0.00    -0.203 F 
ATOM      2  F   UNL     1       1.054   2.690  32.154  0.00  0.00    -0.205 F 
ATOM     28  C   UNL     1       0.945   2.475  28.033  0.00  0.00    +0.070 A 
ATOM     31  C   UNL     1       2.164   2.375  28.704  0.00  0.00    +0.147 A 
ATOM     32  C   UNL     1      -0.236   2.649  28.753  0.00  0.00    +0.029 A 
ATOM     33  C   UNL     1       2.201   2.447  30.097  0.00  0.00    +0.078 A 
ATOM     34  C   UNL     1      -0.199   2.721  30.146  0.00  0.00    +0.040 A 
ATOM     35  C   UNL     1       1.020   2.621  30.818  0.00  0.00    +0.126 A 
ENDBRANCH  10  28
ENDBRANCH  13   8
BRANCH  12  17
ATOM     17  C   UNL     1      -4.066   0.167  25.608  0.00  0.00    +0.029 C 
BRANCH  17  19
ATOM     19  C   UNL     1      -5.338   0.919  25.248  0.00  0.00    +0.098 C 
BRANCH  19  20
ATOM      4  O   UNL     1      -5.647   2.471  23.484  0.00  0.00    -0.275 OA
ATOM      9  N   UNL     1      -4.020   2.969  25.082  0.00  0.00    -0.271 N 
ATOM     20  C   UNL     1      -5.022   2.198  24.509  0.00  0.00    +0.220 C 
ATOM     22  C   UNL     1      -3.273   2.638  26.314  0.00  0.00    +0.118 C 
ATOM     23  C   UNL     1      -3.542   4.201  24.590  0.00  0.00    +0.039 A 
ATOM     24  C   UNL     1      -2.275   3.772  26.573  0.00  0.00    +0.056 C 
ATOM     25  C   UNL     1      -2.534   4.690  25.424  0.00  0.00    -0.024 A 
ATOM     26  C   UNL     1      -3.933   4.911  23.464  0.00  0.00    +0.024 A 
ATOM     27  C   UNL     1      -1.897   5.892  25.157  0.00  0.00    +0.005 A 
ATOM     29  C   UNL     1      -3.295   6.124  23.186  0.00  0.00    +0.002 A 
ATOM     30  C   UNL     1      -2.285   6.613  24.027  0.00  0.00    +0.000 A 
ENDBRANCH  19  20
ENDBRANCH  17  19
ENDBRANCH  12  17
TORSDOF 5
ENDMDL
MODEL 9
REMARK VINA RESULT:      11.7      2.923      5.692
REMARK  Name = 26762206
REMARK  5 active torsions:
REMARK  status: ('A' for Active; 'I' for Inactive)
REMARK    1  A    between atoms: N_8  and  C_13
REMARK    2  A    between atoms: N_10  and  C_28
REMARK    3  A    between atoms: C_12  and  C_17
REMARK    4  A    between atoms: C_17  and  C_19
REMARK    5  A    between atoms: C_19  and  C_20
REMARK                            x       y       z     vdW  Elec       q    Type
REMARK                         _______ _______ _______ _____ _____    ______ ____
ROOT
ATOM      3  O   UNL     1      -2.933   4.217  27.523  0.00  0.00    -0.274 OA
ATOM      6  N   UNL     1      -4.533   3.569  24.553  0.00  0.00    -0.285 NA
ATOM      7  N   UNL     1      -2.599   5.214  25.465  0.00  0.00    -0.313 N 
ATOM     11  C   UNL     1      -4.719   4.143  25.884  0.00  0.00    +0.145 C 
ATOM     12  C   UNL     1      -4.060   4.535  23.558  0.00  0.00    +0.075 C 
ATOM     13  C   UNL     1      -6.115   2.188  25.547  0.00  0.00    +0.090 C 
ATOM     14  C   UNL     1      -5.444   3.036  26.638  0.00  0.00    +0.052 C 
ATOM     15  C   UNL     1      -5.789   2.899  24.233  0.00  0.00    +0.107 C 
ATOM     16  C   UNL     1      -3.192   5.636  24.208  0.00  0.00    +0.123 C 
ATOM     18  C   UNL     1      -3.336   4.497  26.398  0.00  0.00    +0.230 C 
ATOM     36  H   UNL     1      -1.667   5.533  25.709  0.00  0.00    +0.149 HD
ENDROOT
BRANCH  13   8
ATOM      5  O   UNL     1      -3.377   1.365  25.352  0.00  0.00    -0.252 OA
ATOM      8  N   UNL     1      -5.617   0.832  25.558  0.00  0.00    -0.295 N 
ATOM     10  N   UNL     1      -4.077  -0.871  25.496  0.00  0.00    -0.267 N 
ATOM     21  C   UNL     1      -4.257   0.514  25.457  0.00  0.00    +0.304 C 
ATOM     37  H   UNL     1      -6.273   0.077  25.734  0.00  0.00    +0.151 HD
ATOM     38  H   UNL     1      -4.915  -1.441  25.588  0.00  0.00    +0.156 HD
BRANCH  10  28
ATOM      1  F   UNL     1      -3.921  -3.346  24.226  0.00  0.00    -0.203 F 
ATOM      2  F   UNL     1       0.693  -3.682  25.216  0.00  0.00    -0.205 F 
ATOM     28  C   UNL     1      -2.861  -1.590  25.424  0.00  0.00    +0.070 A 
ATOM     31  C   UNL     1      -2.817  -2.827  24.780  0.00  0.00    +0.147 A 
ATOM     32  C   UNL     1      -1.705  -1.060  25.996  0.00  0.00    +0.029 A 
ATOM     33  C   UNL     1      -1.615  -3.534  24.710  0.00  0.00    +0.078 A 
ATOM     34  C   UNL     1      -0.504  -1.767  25.926  0.00  0.00    +0.040 A 
ATOM     35  C   UNL     1      -0.459  -3.004  25.282  0.00  0.00    +0.126 A 
ENDBRANCH  10  28
ENDBRANCH  13   8
BRANCH  12  17
ATOM     17  C   UNL     1      -3.254   3.786  22.493  0.00  0.00    +0.029 C 
BRANCH  17  19
ATOM     19  C   UNL     1      -3.500   2.286  22.529  0.00  0.00    +0.098 C 
BRANCH  19  20
ATOM      4  O   UNL     1      -2.294   0.913  21.019  0.00  0.00    -0.275 OA
ATOM      9  N   UNL     1      -1.200   1.588  22.967  0.00  0.00    -0.271 N 
ATOM     20  C   UNL     1      -2.273   1.523  22.088  0.00  0.00    +0.220 C 
ATOM     22  C   UNL     1      -1.178   2.322  24.250  0.00  0.00    +0.118 C 
ATOM     23  C   UNL     1       0.053   0.967  22.789  0.00  0.00    +0.039 A 
ATOM     24  C   UNL     1       0.205   2.122  24.878  0.00  0.00    +0.056 C 
ATOM     25  C   UNL     1       0.886   1.253  23.873  0.00  0.00    -0.024 A 
ATOM     26  C   UNL     1       0.503   0.173  21.744  0.00  0.00    +0.024 A 
ATOM     27  C   UNL     1       2.179   0.757  23.939  0.00  0.00    +0.005 A 
ATOM     29  C   UNL     1       1.805  -0.332  21.803  0.00  0.00    +0.002 A 
ATOM     30  C   UNL     1       2.639  -0.042  22.892  0.00  0.00    +0.000 A 
ENDBRANCH  19  20
ENDBRANCH  17  19
ENDBRANCH  12  17
TORSDOF 5
ENDMDL
