MODEL 1
REMARK VINA RESULT:      -4.4      0.000      0.000
REMARK  Name = 26744397
REMARK  5 active torsions:
REMARK  status: ('A' for Active; 'I' for Inactive)
REMARK    1  A    between atoms: O_2  and  C_10
REMARK    2  A    between atoms: N_4  and  C_12
REMARK    3  A    between atoms: C_8  and  C_13
REMARK    4  A    between atoms: C_12  and  C_14
REMARK    5  A    between atoms: C_15  and  C_18
REMARK                            x       y       z     vdW  Elec       q    Type
REMARK                         _______ _______ _______ _____ _____    ______ ____
ROOT
ATOM      4  N   UNL     1      -4.841   1.633  25.033  0.00  0.00    -0.285 NA
ATOM      8  C   UNL     1      -3.994   2.578  24.275  0.00  0.00    +0.149 C 
ATOM      9  C   UNL     1      -4.351   3.965  24.839  0.00  0.00    +0.061 C 
ATOM     10  C   UNL     1      -5.438   3.703  25.874  0.00  0.00    +0.130 C 
ATOM     11  C   UNL     1      -6.032   2.377  25.436  0.00  0.00    +0.116 C 
ENDROOT
BRANCH   8  13
ATOM      3  O   UNL     1      -1.933   2.531  25.588  0.00  0.00    -0.336 OA
ATOM      5  N   UNL     1      -1.706   1.750  23.501  0.00  0.00    -0.190 NA
ATOM      6  N   UNL     1      -0.589   2.157  25.456  0.00  0.00    -0.056 NA
ATOM     13  C   UNL     1      -2.518   2.259  24.392  0.00  0.00    +0.245 A 
ATOM     15  C   UNL     1      -0.534   1.707  24.198  0.00  0.00    +0.202 A 
BRANCH  15  18
ATOM      1  F   UNL     1       4.156  -0.232  21.918  0.00  0.00    -0.205 F 
ATOM     18  C   UNL     1       0.675   1.207  23.610  0.00  0.00    +0.023 A 
ATOM     21  C   UNL     1       0.680  -0.034  22.973  0.00  0.00    +0.014 A 
ATOM     22  C   UNL     1       1.846   1.962  23.675  0.00  0.00    +0.014 A 
ATOM     23  C   UNL     1       1.855  -0.520  22.401  0.00  0.00    +0.039 A 
ATOM     24  C   UNL     1       3.022   1.476  23.104  0.00  0.00    +0.039 A 
ATOM     25  C   UNL     1       3.027   0.235  22.466  0.00  0.00    +0.123 A 
ENDBRANCH  15  18
ENDBRANCH   8  13
BRANCH  10   2
ATOM      2  O   UNL     1      -6.400   4.739  25.864  0.00  0.00    -0.390 OA
ATOM     26  H   UNL     1      -6.043   5.464  25.323  0.00  0.00    +0.210 HD
ENDBRANCH  10   2
BRANCH   4  12
ATOM     12  C   UNL     1      -5.175   0.431  24.280  0.00  0.00    +0.122 C 
BRANCH  12  14
ATOM      7  N   UNL     1      -2.463  -1.600  25.970  0.00  0.00    -0.263 NA
ATOM     14  C   UNL     1      -4.231  -0.702  24.587  0.00  0.00    -0.015 A 
ATOM     16  C   UNL     1      -4.229  -1.861  23.818  0.00  0.00    +0.008 A 
ATOM     17  C   UNL     1      -3.337  -0.621  25.642  0.00  0.00    +0.115 A 
ATOM     19  C   UNL     1      -3.344  -2.889  24.125  0.00  0.00    +0.020 A 
ATOM     20  C   UNL     1      -2.489  -2.711  25.201  0.00  0.00    +0.111 A 
ENDBRANCH  12  14
ENDBRANCH   4  12
TORSDOF 5
ENDMDL
MODEL 2
REMARK VINA RESULT:      -4.1      1.819      2.395
REMARK  Name = 26744397
REMARK  5 active torsions:
REMARK  status: ('A' for Active; 'I' for Inactive)
REMARK    1  A    between atoms: O_2  and  C_10
REMARK    2  A    between atoms: N_4  and  C_12
REMARK    3  A    between atoms: C_8  and  C_13
REMARK    4  A    between atoms: C_12  and  C_14
REMARK    5  A    between atoms: C_15  and  C_18
REMARK                            x       y       z     vdW  Elec       q    Type
REMARK                         _______ _______ _______ _____ _____    ______ ____
ROOT
ATOM      4  N   UNL     1      -2.756   1.938  24.735  0.00  0.00    -0.285 NA
ATOM      8  C   UNL     1      -1.688   2.500  23.883  0.00  0.00    +0.149 C 
ATOM      9  C   UNL     1      -1.249   3.789  24.600  0.00  0.00    +0.061 C 
ATOM     10  C   UNL     1      -2.157   3.892  25.819  0.00  0.00    +0.130 C 
ATOM     11  C   UNL     1      -3.370   3.070  25.427  0.00  0.00    +0.116 C 
ENDROOT
BRANCH   8  13
ATOM      3  O   UNL     1      -0.886   0.241  23.407  0.00  0.00    -0.336 OA
ATOM      5  N   UNL     1       0.745   1.748  23.694  0.00  0.00    -0.190 NA
ATOM      6  N   UNL     1       0.320  -0.455  23.247  0.00  0.00    -0.056 NA
ATOM     13  C   UNL     1      -0.546   1.530  23.667  0.00  0.00    +0.245 A 
ATOM     15  C   UNL     1       1.234   0.502  23.431  0.00  0.00    +0.202 A 
BRANCH  15  18
ATOM      1  F   UNL     1       6.701  -0.491  23.146  0.00  0.00    -0.205 F 
ATOM     18  C   UNL     1       2.644   0.246  23.358  0.00  0.00    +0.023 A 
ATOM     21  C   UNL     1       3.147  -1.001  23.732  0.00  0.00    +0.014 A 
ATOM     22  C   UNL     1       3.511   1.242  22.911  0.00  0.00    +0.014 A 
ATOM     23  C   UNL     1       4.517  -1.249  23.660  0.00  0.00    +0.039 A 
ATOM     24  C   UNL     1       4.882   0.994  22.840  0.00  0.00    +0.039 A 
ATOM     25  C   UNL     1       5.385  -0.252  23.214  0.00  0.00    +0.123 A 
ENDBRANCH  15  18
ENDBRANCH   8  13
BRANCH  10   2
ATOM      2  O   UNL     1      -2.497   5.240  26.079  0.00  0.00    -0.390 OA
ATOM     26  H   UNL     1      -2.016   5.514  26.878  0.00  0.00    +0.210 HD
ENDBRANCH  10   2
BRANCH   4  12
ATOM     12  C   UNL     1      -3.734   1.155  23.991  0.00  0.00    +0.122 C 
BRANCH  12  14
ATOM      7  N   UNL     1      -3.237  -1.979  26.053  0.00  0.00    -0.263 NA
ATOM     14  C   UNL     1      -3.698  -0.299  24.377  0.00  0.00    -0.015 A 
ATOM     16  C   UNL     1      -4.068  -1.290  23.474  0.00  0.00    +0.008 A 
ATOM     17  C   UNL     1      -3.294  -0.692  25.642  0.00  0.00    +0.115 A 
ATOM     19  C   UNL     1      -4.022  -2.626  23.860  0.00  0.00    +0.020 A 
ATOM     20  C   UNL     1      -3.603  -2.915  25.149  0.00  0.00    +0.111 A 
ENDBRANCH  12  14
ENDBRANCH   4  12
TORSDOF 5
ENDMDL
MODEL 3
REMARK VINA RESULT:      -2.7      2.411      4.494
REMARK  Name = 26744397
REMARK  5 active torsions:
REMARK  status: ('A' for Active; 'I' for Inactive)
REMARK    1  A    between atoms: O_2  and  C_10
REMARK    2  A    between atoms: N_4  and  C_12
REMARK    3  A    between atoms: C_8  and  C_13
REMARK    4  A    between atoms: C_12  and  C_14
REMARK    5  A    between atoms: C_15  and  C_18
REMARK                            x       y       z     vdW  Elec       q    Type
REMARK                         _______ _______ _______ _____ _____    ______ ____
ROOT
ATOM      4  N   UNL     1      -3.053  -0.127  24.710  0.00  0.00    -0.285 NA
ATOM      8  C   UNL     1      -1.959  -1.120  24.740  0.00  0.00    +0.149 C 
ATOM      9  C   UNL     1      -2.523  -2.351  24.008  0.00  0.00    +0.061 C 
ATOM     10  C   UNL     1      -3.954  -1.972  23.644  0.00  0.00    +0.130 C 
ATOM     11  C   UNL     1      -4.300  -0.888  24.647  0.00  0.00    +0.116 C 
ENDROOT
BRANCH   8  13
ATOM      3  O   UNL     1      -0.823   0.371  23.173  0.00  0.00    -0.336 OA
ATOM      5  N   UNL     1       0.558  -0.946  24.346  0.00  0.00    -0.190 NA
ATOM      6  N   UNL     1       0.474   0.688  22.747  0.00  0.00    -0.056 NA
ATOM     13  C   UNL     1      -0.683  -0.599  24.114  0.00  0.00    +0.245 A 
ATOM     15  C   UNL     1       1.231  -0.131  23.483  0.00  0.00    +0.202 A 
BRANCH  15  18
ATOM      1  F   UNL     1       6.781  -0.232  23.096  0.00  0.00    -0.205 F 
ATOM     18  C   UNL     1       2.662  -0.157  23.383  0.00  0.00    +0.023 A 
ATOM     21  C   UNL     1       3.372  -1.273  23.827  0.00  0.00    +0.014 A 
ATOM     22  C   UNL     1       3.343   0.933  22.843  0.00  0.00    +0.014 A 
ATOM     23  C   UNL     1       4.762  -1.299  23.729  0.00  0.00    +0.039 A 
ATOM     24  C   UNL     1       4.734   0.908  22.745  0.00  0.00    +0.039 A 
ATOM     25  C   UNL     1       5.445  -0.208  23.189  0.00  0.00    +0.123 A 
ENDBRANCH  15  18
ENDBRANCH   8  13
BRANCH  10   2
ATOM      2  O   UNL     1      -4.813  -3.090  23.760  0.00  0.00    -0.390 OA
ATOM     26  H   UNL     1      -4.603  -3.697  23.031  0.00  0.00    +0.210 HD
ENDBRANCH  10   2
BRANCH   4  12
ATOM     12  C   UNL     1      -3.028   0.791  25.840  0.00  0.00    +0.122 C 
BRANCH  12  14
ATOM      7  N   UNL     1      -3.270   4.266  24.359  0.00  0.00    -0.263 NA
ATOM     14  C   UNL     1      -2.646   2.186  25.421  0.00  0.00    -0.015 A 
ATOM     16  C   UNL     1      -1.375   2.689  25.679  0.00  0.00    +0.008 A 
ATOM     17  C   UNL     1      -3.548   3.006  24.764  0.00  0.00    +0.115 A 
ATOM     19  C   UNL     1      -1.051   3.981  25.277  0.00  0.00    +0.020 A 
ATOM     20  C   UNL     1      -2.025   4.722  24.626  0.00  0.00    +0.111 A 
ENDBRANCH  12  14
ENDBRANCH   4  12
TORSDOF 5
ENDMDL
MODEL 4
REMARK VINA RESULT:      -2.5     15.584     17.409
REMARK  Name = 26744397
REMARK  5 active torsions:
REMARK  status: ('A' for Active; 'I' for Inactive)
REMARK    1  A    between atoms: O_2  and  C_10
REMARK    2  A    between atoms: N_4  and  C_12
REMARK    3  A    between atoms: C_8  and  C_13
REMARK    4  A    between atoms: C_12  and  C_14
REMARK    5  A    between atoms: C_15  and  C_18
REMARK                            x       y       z     vdW  Elec       q    Type
REMARK                         _______ _______ _______ _____ _____    ______ ____
ROOT
ATOM      4  N   UNL     1      -8.170 -10.586  10.938  0.00  0.00    -0.285 NA
ATOM      8  C   UNL     1      -7.490  -9.569  11.766  0.00  0.00    +0.149 C 
ATOM      9  C   UNL     1      -8.357  -9.449  13.033  0.00  0.00    +0.061 C 
ATOM     10  C   UNL     1      -9.524 -10.403  12.804  0.00  0.00    +0.130 C 
ATOM     11  C   UNL     1      -9.586 -10.529  11.294  0.00  0.00    +0.116 C 
ENDROOT
BRANCH   8  13
ATOM      3  O   UNL     1      -5.326 -10.443  11.043  0.00  0.00    -0.336 OA
ATOM      5  N   UNL     1      -5.390  -9.829  13.196  0.00  0.00    -0.190 NA
ATOM      6  N   UNL     1      -4.048 -10.699  11.560  0.00  0.00    -0.056 NA
ATOM     13  C   UNL     1      -6.053  -9.933  12.071  0.00  0.00    +0.245 A 
ATOM     15  C   UNL     1      -4.167 -10.312  12.833  0.00  0.00    +0.202 A 
BRANCH  15  18
ATOM      1  F   UNL     1       0.043 -10.622  16.457  0.00  0.00    -0.205 F 
ATOM     18  C   UNL     1      -3.081 -10.392  13.767  0.00  0.00    +0.023 A 
ATOM     21  C   UNL     1      -1.770 -10.190  13.334  0.00  0.00    +0.014 A 
ATOM     22  C   UNL     1      -3.336 -10.670  15.110  0.00  0.00    +0.014 A 
ATOM     23  C   UNL     1      -0.716 -10.268  14.242  0.00  0.00    +0.039 A 
ATOM     24  C   UNL     1      -2.281 -10.748  16.019  0.00  0.00    +0.039 A 
ATOM     25  C   UNL     1      -0.970 -10.547  15.585  0.00  0.00    +0.123 A 
ENDBRANCH  15  18
ENDBRANCH   8  13
BRANCH  10   2
ATOM      2  O   UNL     1     -10.720  -9.867  13.337  0.00  0.00    -0.390 OA
ATOM     26  H   UNL     1     -10.479  -9.101  13.884  0.00  0.00    +0.210 HD
ENDBRANCH  10   2
BRANCH   4  12
ATOM     12  C   UNL     1      -7.957 -10.399   9.509  0.00  0.00    +0.122 C 
BRANCH  12  14
ATOM      7  N   UNL     1     -10.126  -7.434   8.595  0.00  0.00    -0.263 NA
ATOM     14  C   UNL     1      -8.361  -9.020   9.057  0.00  0.00    -0.015 A 
ATOM     16  C   UNL     1      -7.407  -8.078   8.689  0.00  0.00    +0.008 A 
ATOM     17  C   UNL     1      -9.695  -8.653   8.993  0.00  0.00    +0.115 A 
ATOM     19  C   UNL     1      -7.811  -6.813   8.274  0.00  0.00    +0.020 A 
ATOM     20  C   UNL     1      -9.170  -6.544   8.246  0.00  0.00    +0.111 A 
ENDBRANCH  12  14
ENDBRANCH   4  12
TORSDOF 5
ENDMDL
MODEL 5
REMARK VINA RESULT:      -2.4      3.274      6.495
REMARK  Name = 26744397
REMARK  5 active torsions:
REMARK  status: ('A' for Active; 'I' for Inactive)
REMARK    1  A    between atoms: O_2  and  C_10
REMARK    2  A    between atoms: N_4  and  C_12
REMARK    3  A    between atoms: C_8  and  C_13
REMARK    4  A    between atoms: C_12  and  C_14
REMARK    5  A    between atoms: C_15  and  C_18
REMARK                            x       y       z     vdW  Elec       q    Type
REMARK                         _______ _______ _______ _____ _____    ______ ____
ROOT
ATOM      4  N   UNL     1       0.854  -0.750  23.727  0.00  0.00    -0.285 NA
ATOM      8  C   UNL     1       0.768   0.675  24.108  0.00  0.00    +0.149 C 
ATOM      9  C   UNL     1       1.843   1.376  23.257  0.00  0.00    +0.061 C 
ATOM     10  C   UNL     1       2.510   0.258  22.464  0.00  0.00    +0.130 C 
ATOM     11  C   UNL     1       2.232  -0.980  23.296  0.00  0.00    +0.116 C 
ENDROOT
BRANCH   8  13
ATOM      3  O   UNL     1      -1.144   1.116  22.652  0.00  0.00    -0.336 OA
ATOM      5  N   UNL     1      -1.396   1.871  24.746  0.00  0.00    -0.190 NA
ATOM      6  N   UNL     1      -2.410   1.716  22.701  0.00  0.00    -0.056 NA
ATOM     13  C   UNL     1      -0.615   1.251  23.897  0.00  0.00    +0.245 A 
ATOM     15  C   UNL     1      -2.484   2.138  23.967  0.00  0.00    +0.202 A 
BRANCH  15  18
ATOM      1  F   UNL     1      -6.933   4.806  25.977  0.00  0.00    -0.205 F 
ATOM     18  C   UNL     1      -3.631   2.825  24.485  0.00  0.00    +0.023 A 
ATOM     21  C   UNL     1      -4.767   2.106  24.857  0.00  0.00    +0.014 A 
ATOM     22  C   UNL     1      -3.611   4.213  24.618  0.00  0.00    +0.014 A 
ATOM     23  C   UNL     1      -5.882   2.775  25.361  0.00  0.00    +0.039 A 
ATOM     24  C   UNL     1      -4.726   4.883  25.122  0.00  0.00    +0.039 A 
ATOM     25  C   UNL     1      -5.862   4.163  25.493  0.00  0.00    +0.123 A 
ENDBRANCH  15  18
ENDBRANCH   8  13
BRANCH  10   2
ATOM      2  O   UNL     1       3.897   0.500  22.328  0.00  0.00    -0.390 OA
ATOM     26  H   UNL     1       4.112   0.443  21.382  0.00  0.00    +0.210 HD
ENDBRANCH  10   2
BRANCH   4  12
ATOM     12  C   UNL     1       0.456  -1.656  24.796  0.00  0.00    +0.122 C 
BRANCH  12  14
ATOM      7  N   UNL     1      -3.151  -2.598  24.138  0.00  0.00    -0.263 NA
ATOM     14  C   UNL     1      -1.041  -1.730  24.939  0.00  0.00    -0.015 A 
ATOM     16  C   UNL     1      -1.700  -1.037  25.948  0.00  0.00    +0.008 A 
ATOM     17  C   UNL     1      -1.804  -2.489  24.068  0.00  0.00    +0.115 A 
ATOM     19  C   UNL     1      -3.084  -1.123  26.053  0.00  0.00    +0.020 A 
ATOM     20  C   UNL     1      -3.757  -1.910  25.132  0.00  0.00    +0.111 A 
ENDBRANCH  12  14
ENDBRANCH   4  12
TORSDOF 5
ENDMDL
MODEL 6
REMARK VINA RESULT:      -1.6      3.278      3.766
REMARK  Name = 26744397
REMARK  5 active torsions:
REMARK  status: ('A' for Active; 'I' for Inactive)
REMARK    1  A    between atoms: O_2  and  C_10
REMARK    2  A    between atoms: N_4  and  C_12
REMARK    3  A    between atoms: C_8  and  C_13
REMARK    4  A    between atoms: C_12  and  C_14
REMARK    5  A    between atoms: C_15  and  C_18
REMARK                            x       y       z     vdW  Elec       q    Type
REMARK                         _______ _______ _______ _____ _____    ______ ____
ROOT
ATOM      4  N   UNL     1      -3.982   1.892  24.650  0.00  0.00    -0.285 NA
ATOM      8  C   UNL     1      -3.184   3.135  24.615  0.00  0.00    +0.149 C 
ATOM      9  C   UNL     1      -4.044   4.176  25.355  0.00  0.00    +0.061 C 
ATOM     10  C   UNL     1      -5.324   3.437  25.728  0.00  0.00    +0.130 C 
ATOM     11  C   UNL     1      -5.383   2.302  24.724  0.00  0.00    +0.116 C 
ENDROOT
BRANCH   8  13
ATOM      3  O   UNL     1      -0.771   2.843  24.367  0.00  0.00    -0.336 OA
ATOM      5  N   UNL     1      -1.469   2.913  26.494  0.00  0.00    -0.190 NA
ATOM      6  N   UNL     1       0.376   2.698  25.159  0.00  0.00    -0.056 NA
ATOM     13  C   UNL     1      -1.812   2.963  25.231  0.00  0.00    +0.245 A 
ATOM     15  C   UNL     1      -0.118   2.749  26.399  0.00  0.00    +0.202 A 
BRANCH  15  18
ATOM      1  F   UNL     1       3.099   2.330  30.920  0.00  0.00    -0.205 F 
ATOM     18  C   UNL     1       0.711   2.641  27.565  0.00  0.00    +0.023 A 
ATOM     21  C   UNL     1       0.150   2.280  28.790  0.00  0.00    +0.014 A 
ATOM     22  C   UNL     1       2.079   2.896  27.473  0.00  0.00    +0.014 A 
ATOM     23  C   UNL     1       0.956   2.175  29.922  0.00  0.00    +0.039 A 
ATOM     24  C   UNL     1       2.886   2.791  28.606  0.00  0.00    +0.039 A 
ATOM     25  C   UNL     1       2.324   2.431  29.831  0.00  0.00    +0.123 A 
ENDBRANCH  15  18
ENDBRANCH   8  13
BRANCH  10   2
ATOM      2  O   UNL     1      -6.446   4.292  25.621  0.00  0.00    -0.390 OA
ATOM     26  H   UNL     1      -7.143   3.934  26.196  0.00  0.00    +0.210 HD
ENDBRANCH  10   2
BRANCH   4  12
ATOM     12  C   UNL     1      -3.727   1.013  23.517  0.00  0.00    +0.122 C 
BRANCH  12  14
ATOM      7  N   UNL     1      -1.497  -1.778  24.768  0.00  0.00    -0.263 NA
ATOM     14  C   UNL     1      -3.274  -0.354  23.958  0.00  0.00    -0.015 A 
ATOM     16  C   UNL     1      -4.154  -1.431  23.970  0.00  0.00    +0.008 A 
ATOM     17  C   UNL     1      -1.969  -0.578  24.362  0.00  0.00    +0.115 A 
ATOM     19  C   UNL     1      -3.706  -2.682  24.381  0.00  0.00    +0.020 A 
ATOM     20  C   UNL     1      -2.380  -2.802  24.767  0.00  0.00    +0.111 A 
ENDBRANCH  12  14
ENDBRANCH   4  12
TORSDOF 5
ENDMDL
MODEL 7
REMARK VINA RESULT:      -1.5     16.452     17.729
REMARK  Name = 26744397
REMARK  5 active torsions:
REMARK  status: ('A' for Active; 'I' for Inactive)
REMARK    1  A    between atoms: O_2  and  C_10
REMARK    2  A    between atoms: N_4  and  C_12
REMARK    3  A    between atoms: C_8  and  C_13
REMARK    4  A    between atoms: C_12  and  C_14
REMARK    5  A    between atoms: C_15  and  C_18
REMARK                            x       y       z     vdW  Elec       q    Type
REMARK                         _______ _______ _______ _____ _____    ______ ____
ROOT
ATOM      4  N   UNL     1      -8.251 -10.680  10.963  0.00  0.00    -0.285 NA
ATOM      8  C   UNL     1      -7.627  -9.635  11.801  0.00  0.00    +0.149 C 
ATOM      9  C   UNL     1      -8.426  -9.656  13.117  0.00  0.00    +0.061 C 
ATOM     10  C   UNL     1      -9.505 -10.711  12.907  0.00  0.00    +0.130 C 
ATOM     11  C   UNL     1      -9.643 -10.781  11.398  0.00  0.00    +0.116 C 
ENDROOT
BRANCH   8  13
ATOM      3  O   UNL     1      -5.802 -10.732  13.000  0.00  0.00    -0.336 OA
ATOM      5  N   UNL     1      -5.126  -9.349  11.372  0.00  0.00    -0.190 NA
ATOM      6  N   UNL     1      -4.401 -10.781  13.003  0.00  0.00    -0.056 NA
ATOM     13  C   UNL     1      -6.146  -9.866  12.011  0.00  0.00    +0.245 A 
ATOM     15  C   UNL     1      -4.078  -9.940  12.016  0.00  0.00    +0.202 A 
BRANCH  15  18
ATOM      1  F   UNL     1       1.195  -8.889  10.587  0.00  0.00    -0.205 F 
ATOM     18  C   UNL     1      -2.718  -9.669  11.648  0.00  0.00    +0.023 A 
ATOM     21  C   UNL     1      -1.672 -10.166  12.425  0.00  0.00    +0.014 A 
ATOM     22  C   UNL     1      -2.442  -8.908  10.512  0.00  0.00    +0.014 A 
ATOM     23  C   UNL     1      -0.351  -9.903  12.067  0.00  0.00    +0.039 A 
ATOM     24  C   UNL     1      -1.120  -8.645  10.153  0.00  0.00    +0.039 A 
ATOM     25  C   UNL     1      -0.074  -9.142  10.931  0.00  0.00    +0.123 A 
ENDBRANCH  15  18
ENDBRANCH   8  13
BRANCH  10   2
ATOM      2  O   UNL     1     -10.715 -10.321  13.528  0.00  0.00    -0.390 OA
ATOM     26  H   UNL     1     -11.441 -10.772  13.063  0.00  0.00    +0.210 HD
ENDBRANCH  10   2
BRANCH   4  12
ATOM     12  C   UNL     1      -8.141 -10.414   9.535  0.00  0.00    +0.122 C 
BRANCH  12  14
ATOM      7  N   UNL     1     -10.594  -7.641   8.746  0.00  0.00    -0.263 NA
ATOM     14  C   UNL     1      -8.681  -9.055   9.175  0.00  0.00    -0.015 A 
ATOM     16  C   UNL     1      -7.826  -7.984   8.937  0.00  0.00    +0.008 A 
ATOM     17  C   UNL     1     -10.044  -8.834   9.067  0.00  0.00    +0.115 A 
ATOM     19  C   UNL     1      -8.355  -6.742   8.604  0.00  0.00    +0.020 A 
ATOM     20  C   UNL     1      -9.733  -6.624   8.523  0.00  0.00    +0.111 A 
ENDBRANCH  12  14
ENDBRANCH   4  12
TORSDOF 5
ENDMDL
MODEL 8
REMARK VINA RESULT:      -1.2      1.954      4.036
REMARK  Name = 26744397
REMARK  5 active torsions:
REMARK  status: ('A' for Active; 'I' for Inactive)
REMARK    1  A    between atoms: O_2  and  C_10
REMARK    2  A    between atoms: N_4  and  C_12
REMARK    3  A    between atoms: C_8  and  C_13
REMARK    4  A    between atoms: C_12  and  C_14
REMARK    5  A    between atoms: C_15  and  C_18
REMARK                            x       y       z     vdW  Elec       q    Type
REMARK                         _______ _______ _______ _____ _____    ______ ____
ROOT
ATOM      4  N   UNL     1      -4.195   2.554  25.328  0.00  0.00    -0.285 NA
ATOM      8  C   UNL     1      -4.112   1.100  25.580  0.00  0.00    +0.149 C 
ATOM      9  C   UNL     1      -5.398   0.520  24.962  0.00  0.00    +0.061 C 
ATOM     10  C   UNL     1      -6.160   1.727  24.430  0.00  0.00    +0.130 C 
ATOM     11  C   UNL     1      -5.618   2.880  25.254  0.00  0.00    +0.116 C 
ENDROOT
BRANCH   8  13
ATOM      3  O   UNL     1      -2.766  -0.873  25.065  0.00  0.00    -0.336 OA
ATOM      5  N   UNL     1      -1.822   1.063  24.451  0.00  0.00    -0.190 NA
ATOM      6  N   UNL     1      -1.535  -1.206  24.482  0.00  0.00    -0.056 NA
ATOM     13  C   UNL     1      -2.855   0.481  25.006  0.00  0.00    +0.245 A 
ATOM     15  C   UNL     1      -1.039  -0.012  24.147  0.00  0.00    +0.202 A 
BRANCH  15  18
ATOM      1  F   UNL     1       3.901   0.583  21.656  0.00  0.00    -0.205 F 
ATOM     18  C   UNL     1       0.235   0.142  23.505  0.00  0.00    +0.023 A 
ATOM     21  C   UNL     1       1.158   1.064  23.998  0.00  0.00    +0.014 A 
ATOM     22  C   UNL     1       0.550  -0.632  22.388  0.00  0.00    +0.014 A 
ATOM     23  C   UNL     1       2.396   1.213  23.374  0.00  0.00    +0.039 A 
ATOM     24  C   UNL     1       1.788  -0.483  21.763  0.00  0.00    +0.039 A 
ATOM     25  C   UNL     1       2.712   0.439  22.256  0.00  0.00    +0.123 A 
ENDBRANCH  15  18
ENDBRANCH   8  13
BRANCH  10   2
ATOM      2  O   UNL     1      -7.553   1.560  24.611  0.00  0.00    -0.390 OA
ATOM     26  H   UNL     1      -7.921   1.241  23.769  0.00  0.00    +0.210 HD
ENDBRANCH  10   2
BRANCH   4  12
ATOM     12  C   UNL     1      -3.502   3.351  26.332  0.00  0.00    +0.122 C 
BRANCH  12  14
ATOM      7  N   UNL     1       0.097   3.943  25.321  0.00  0.00    -0.263 NA
ATOM     14  C   UNL     1      -2.277   4.020  25.767  0.00  0.00    -0.015 A 
ATOM     16  C   UNL     1      -2.352   5.284  25.192  0.00  0.00    +0.008 A 
ATOM     17  C   UNL     1      -1.041   3.398  25.807  0.00  0.00    +0.115 A 
ATOM     19  C   UNL     1      -1.203   5.878  24.681  0.00  0.00    +0.020 A 
ATOM     20  C   UNL     1      -0.014   5.172  24.769  0.00  0.00    +0.111 A 
ENDBRANCH  12  14
ENDBRANCH   4  12
TORSDOF 5
ENDMDL
MODEL 9
REMARK VINA RESULT:      -1.0     15.840     17.459
REMARK  Name = 26744397
REMARK  5 active torsions:
REMARK  status: ('A' for Active; 'I' for Inactive)
REMARK    1  A    between atoms: O_2  and  C_10
REMARK    2  A    between atoms: N_4  and  C_12
REMARK    3  A    between atoms: C_8  and  C_13
REMARK    4  A    between atoms: C_12  and  C_14
REMARK    5  A    between atoms: C_15  and  C_18
REMARK                            x       y       z     vdW  Elec       q    Type
REMARK                         _______ _______ _______ _____ _____    ______ ____
ROOT
ATOM      4  N   UNL     1      -6.380 -10.479  10.412  0.00  0.00    -0.285 NA
ATOM      8  C   UNL     1      -5.737  -9.400  11.191  0.00  0.00    +0.149 C 
ATOM      9  C   UNL     1      -6.377  -9.489  12.588  0.00  0.00    +0.061 C 
ATOM     10  C   UNL     1      -7.398 -10.615  12.485  0.00  0.00    +0.130 C 
ATOM     11  C   UNL     1      -7.703 -10.681  11.000  0.00  0.00    +0.116 C 
ENDROOT
BRANCH   8  13
ATOM      3  O   UNL     1      -3.723 -10.780  11.073  0.00  0.00    -0.336 OA
ATOM      5  N   UNL     1      -3.320  -8.599  11.386  0.00  0.00    -0.190 NA
ATOM      6  N   UNL     1      -2.330 -10.647  11.141  0.00  0.00    -0.056 NA
ATOM     13  C   UNL     1      -4.229  -9.528  11.227  0.00  0.00    +0.245 A 
ATOM     15  C   UNL     1      -2.171  -9.333  11.327  0.00  0.00    +0.202 A 
BRANCH  15  18
ATOM      1  F   UNL     1       2.838  -6.965  11.825  0.00  0.00    -0.205 F 
ATOM     18  C   UNL     1      -0.880  -8.723  11.455  0.00  0.00    +0.023 A 
ATOM     21  C   UNL     1       0.146  -9.067  10.574  0.00  0.00    +0.014 A 
ATOM     22  C   UNL     1      -0.649  -7.785  12.461  0.00  0.00    +0.014 A 
ATOM     23  C   UNL     1       1.401  -8.473  10.698  0.00  0.00    +0.039 A 
ATOM     24  C   UNL     1       0.607  -7.191  12.586  0.00  0.00    +0.039 A 
ATOM     25  C   UNL     1       1.632  -7.535  11.705  0.00  0.00    +0.123 A 
ENDBRANCH  15  18
ENDBRANCH   8  13
BRANCH  10   2
ATOM      2  O   UNL     1      -8.552 -10.317  13.246  0.00  0.00    -0.390 OA
ATOM     26  H   UNL     1      -9.326 -10.479  12.680  0.00  0.00    +0.210 HD
ENDBRANCH  10   2
BRANCH   4  12
ATOM     12  C   UNL     1      -6.452 -10.193   8.986  0.00  0.00    +0.122 C 
BRANCH  12  14
ATOM      7  N   UNL     1      -7.846  -6.717   8.432  0.00  0.00    -0.263 NA
ATOM     14  C   UNL     1      -7.426  -9.084   8.685  0.00  0.00    -0.015 A 
ATOM     16  C   UNL     1      -8.758  -9.359   8.395  0.00  0.00    +0.008 A 
ATOM     17  C   UNL     1      -7.024  -7.759   8.691  0.00  0.00    +0.115 A 
ATOM     19  C   UNL     1      -9.634  -8.314   8.124  0.00  0.00    +0.020 A 
ATOM     20  C   UNL     1      -9.133  -7.022   8.155  0.00  0.00    +0.111 A 
ENDBRANCH  12  14
ENDBRANCH   4  12
TORSDOF 5
ENDMDL
