MODEL 1
REMARK VINA RESULT:      -2.4      0.000      0.000
REMARK  Name = 75537079
REMARK  5 active torsions:
REMARK  status: ('A' for Active; 'I' for Inactive)
REMARK    1  A    between atoms: N_3  and  C_14
REMARK    2  A    between atoms: N_4  and  C_15
REMARK    3  A    between atoms: N_5  and  C_22
REMARK    4  A    between atoms: C_14  and  C_16
REMARK    5  A    between atoms: C_15  and  C_17
REMARK                            x       y       z     vdW  Elec       q    Type
REMARK                         _______ _______ _______ _____ _____    ______ ____
ROOT
ATOM      1  O   UNL     1      -0.176  -1.410  23.874  0.00  0.00    -0.252 OA
ATOM      2  N   UNL     1      -0.498   0.722  24.803  0.00  0.00    -0.278 N 
ATOM      3  N   UNL     1      -1.852   3.027  25.680  0.00  0.00    -0.295 NA
ATOM      4  N   UNL     1       1.204   0.434  23.367  0.00  0.00    -0.278 N 
ATOM      8  C   UNL     1       0.205   1.989  24.814  0.00  0.00    +0.109 C 
ATOM      9  C   UNL     1      -0.782   3.147  24.669  0.00  0.00    +0.109 C 
ATOM     10  C   UNL     1       1.210   1.855  23.672  0.00  0.00    +0.133 C 
ATOM     11  C   UNL     1      -1.658   0.549  25.652  0.00  0.00    +0.125 C 
ATOM     12  C   UNL     1      -2.589   1.757  25.521  0.00  0.00    +0.104 C 
ATOM     13  C   UNL     1       0.138  -0.235  24.002  0.00  0.00    +0.306 C 
ENDROOT
BRANCH   3  14
ATOM     14  C   UNL     1      -2.769   4.163  25.589  0.00  0.00    +0.122 C 
BRANCH  14  16
ATOM      5  N   UNL     1      -6.035   2.609  25.039  0.00  0.00    -0.274 N 
ATOM      7  N   UNL     1      -6.479   3.716  25.659  0.00  0.00    -0.180 NA
ATOM     16  C   UNL     1      -4.202   3.716  25.472  0.00  0.00    +0.004 A 
ATOM     18  C   UNL     1      -4.679   2.560  24.902  0.00  0.00    +0.112 A 
ATOM     19  C   UNL     1      -5.355   4.388  25.921  0.00  0.00    +0.139 A 
ATOM     22  C   UNL     1      -6.976   1.612  24.590  0.00  0.00    +0.172 C 
ENDBRANCH  14  16
ENDBRANCH   3  14
BRANCH   4  15
ATOM     15  C   UNL     1       2.111  -0.145  22.401  0.00  0.00    +0.164 C 
BRANCH  15  17
ATOM      6  N   UNL     1       3.776  -1.492  23.555  0.00  0.00    -0.258 NA
ATOM     17  C   UNL     1       3.499  -0.309  22.962  0.00  0.00    +0.059 A 
ATOM     20  C   UNL     1       4.405   0.733  22.847  0.00  0.00    +0.025 A 
ATOM     21  C   UNL     1       5.678   0.548  23.374  0.00  0.00    +0.003 A 
ATOM     23  C   UNL     1       5.024  -1.634  24.056  0.00  0.00    +0.111 A 
ATOM     24  C   UNL     1       6.002  -0.655  23.993  0.00  0.00    +0.020 A 
ENDBRANCH  15  17
ENDBRANCH   4  15
TORSDOF 4
ENDMDL
MODEL 2
REMARK VINA RESULT:      -1.9      1.474      1.977
REMARK  Name = 75537079
REMARK  5 active torsions:
REMARK  status: ('A' for Active; 'I' for Inactive)
REMARK    1  A    between atoms: N_3  and  C_14
REMARK    2  A    between atoms: N_4  and  C_15
REMARK    3  A    between atoms: N_5  and  C_22
REMARK    4  A    between atoms: C_14  and  C_16
REMARK    5  A    between atoms: C_15  and  C_17
REMARK                            x       y       z     vdW  Elec       q    Type
REMARK                         _______ _______ _______ _____ _____    ______ ____
ROOT
ATOM      1  O   UNL     1       1.217  -1.983  24.474  0.00  0.00    -0.252 OA
ATOM      2  N   UNL     1      -0.612  -0.532  24.732  0.00  0.00    -0.278 N 
ATOM      3  N   UNL     1      -3.266   0.297  25.153  0.00  0.00    -0.295 NA
ATOM      4  N   UNL     1       0.846  -0.122  23.073  0.00  0.00    -0.278 N 
ATOM      8  C   UNL     1      -1.055   0.723  24.161  0.00  0.00    +0.109 C 
ATOM      9  C   UNL     1      -2.563   0.694  23.916  0.00  0.00    +0.109 C 
ATOM     10  C   UNL     1      -0.203   0.869  22.902  0.00  0.00    +0.133 C 
ATOM     11  C   UNL     1      -1.328  -1.088  25.860  0.00  0.00    +0.125 C 
ATOM     12  C   UNL     1      -2.835  -1.044  25.598  0.00  0.00    +0.104 C 
ATOM     13  C   UNL     1       0.568  -1.002  24.139  0.00  0.00    +0.306 C 
ENDROOT
BRANCH   3  14
ATOM     14  C   UNL     1      -4.714   0.324  24.947  0.00  0.00    +0.122 C 
BRANCH  14  16
ATOM      5  N   UNL     1      -5.830   3.750  25.578  0.00  0.00    -0.274 N 
ATOM      7  N   UNL     1      -6.607   3.150  26.495  0.00  0.00    -0.180 NA
ATOM     16  C   UNL     1      -5.316   1.636  25.372  0.00  0.00    +0.004 A 
ATOM     18  C   UNL     1      -5.038   2.888  24.878  0.00  0.00    +0.112 A 
ATOM     19  C   UNL     1      -6.289   1.859  26.365  0.00  0.00    +0.139 A 
ATOM     22  C   UNL     1      -5.891   5.182  25.413  0.00  0.00    +0.172 C 
ENDBRANCH  14  16
ENDBRANCH   3  14
BRANCH   4  15
ATOM     15  C   UNL     1       1.944  -0.243  22.141  0.00  0.00    +0.164 C 
BRANCH  15  17
ATOM      6  N   UNL     1       3.707  -1.357  23.394  0.00  0.00    -0.258 NA
ATOM     17  C   UNL     1       3.279  -0.202  22.837  0.00  0.00    +0.059 A 
ATOM     20  C   UNL     1       3.989   0.988  22.874  0.00  0.00    +0.025 A 
ATOM     21  C   UNL     1       5.218   0.992  23.524  0.00  0.00    +0.003 A 
ATOM     23  C   UNL     1       4.906  -1.314  24.016  0.00  0.00    +0.111 A 
ATOM     24  C   UNL     1       5.693  -0.177  24.109  0.00  0.00    +0.020 A 
ENDBRANCH  15  17
ENDBRANCH   4  15
TORSDOF 4
ENDMDL
MODEL 3
REMARK VINA RESULT:      -1.3      1.591      2.397
REMARK  Name = 75537079
REMARK  5 active torsions:
REMARK  status: ('A' for Active; 'I' for Inactive)
REMARK    1  A    between atoms: N_3  and  C_14
REMARK    2  A    between atoms: N_4  and  C_15
REMARK    3  A    between atoms: N_5  and  C_22
REMARK    4  A    between atoms: C_14  and  C_16
REMARK    5  A    between atoms: C_15  and  C_17
REMARK                            x       y       z     vdW  Elec       q    Type
REMARK                         _______ _______ _______ _____ _____    ______ ____
ROOT
ATOM      1  O   UNL     1       0.699  -1.378  22.284  0.00  0.00    -0.252 OA
ATOM      2  N   UNL     1      -0.770  -0.769  24.012  0.00  0.00    -0.278 N 
ATOM      3  N   UNL     1      -3.199  -0.353  25.369  0.00  0.00    -0.295 NA
ATOM      4  N   UNL     1       0.940   0.606  23.535  0.00  0.00    -0.278 N 
ATOM      8  C   UNL     1      -0.841   0.263  25.025  0.00  0.00    +0.109 C 
ATOM      9  C   UNL     1      -2.273   0.779  25.160  0.00  0.00    +0.109 C 
ATOM     10  C   UNL     1       0.174   1.303  24.554  0.00  0.00    +0.133 C 
ATOM     11  C   UNL     1      -1.731  -1.852  24.036  0.00  0.00    +0.125 C 
ATOM     12  C   UNL     1      -3.143  -1.296  24.233  0.00  0.00    +0.104 C 
ATOM     13  C   UNL     1       0.337  -0.614  23.168  0.00  0.00    +0.306 C 
ENDROOT
BRANCH   3  14
ATOM     14  C   UNL     1      -4.565   0.134  25.559  0.00  0.00    +0.122 C 
BRANCH  14  16
ATOM      5  N   UNL     1      -5.237   3.713  25.210  0.00  0.00    -0.274 N 
ATOM      7  N   UNL     1      -4.369   3.606  24.189  0.00  0.00    -0.180 NA
ATOM     16  C   UNL     1      -4.687   1.599  25.232  0.00  0.00    +0.004 A 
ATOM     18  C   UNL     1      -5.462   2.539  25.867  0.00  0.00    +0.112 A 
ATOM     19  C   UNL     1      -4.037   2.313  24.208  0.00  0.00    +0.139 A 
ATOM     22  C   UNL     1      -5.831   4.992  25.515  0.00  0.00    +0.172 C 
ENDBRANCH  14  16
ENDBRANCH   3  14
BRANCH   4  15
ATOM     15  C   UNL     1       2.091   1.207  22.899  0.00  0.00    +0.164 C 
BRANCH  15  17
ATOM      6  N   UNL     1       4.483   1.263  23.342  0.00  0.00    -0.258 NA
ATOM     17  C   UNL     1       3.369   0.500  23.266  0.00  0.00    +0.059 A 
ATOM     20  C   UNL     1       3.345  -0.865  23.505  0.00  0.00    +0.025 A 
ATOM     21  C   UNL     1       4.541  -1.487  23.843  0.00  0.00    +0.003 A 
ATOM     23  C   UNL     1       5.626   0.623  23.674  0.00  0.00    +0.111 A 
ATOM     24  C   UNL     1       5.709  -0.736  23.931  0.00  0.00    +0.020 A 
ENDBRANCH  15  17
ENDBRANCH   4  15
TORSDOF 4
ENDMDL
MODEL 4
REMARK VINA RESULT:      -0.3      1.623      2.175
REMARK  Name = 75537079
REMARK  5 active torsions:
REMARK  status: ('A' for Active; 'I' for Inactive)
REMARK    1  A    between atoms: N_3  and  C_14
REMARK    2  A    between atoms: N_4  and  C_15
REMARK    3  A    between atoms: N_5  and  C_22
REMARK    4  A    between atoms: C_14  and  C_16
REMARK    5  A    between atoms: C_15  and  C_17
REMARK                            x       y       z     vdW  Elec       q    Type
REMARK                         _______ _______ _______ _____ _____    ______ ____
ROOT
ATOM      1  O   UNL     1       1.246   1.635  25.392  0.00  0.00    -0.252 OA
ATOM      2  N   UNL     1      -0.599   2.654  24.356  0.00  0.00    -0.278 N 
ATOM      3  N   UNL     1      -3.074   3.968  24.104  0.00  0.00    -0.295 NA
ATOM      4  N   UNL     1       0.176   0.731  23.494  0.00  0.00    -0.278 N 
ATOM      8  C   UNL     1      -1.382   2.454  23.155  0.00  0.00    +0.109 C 
ATOM      9  C   UNL     1      -2.868   2.662  23.446  0.00  0.00    +0.109 C 
ATOM     10  C   UNL     1      -1.007   1.041  22.710  0.00  0.00    +0.133 C 
ATOM     11  C   UNL     1      -0.828   3.836  25.161  0.00  0.00    +0.125 C 
ATOM     12  C   UNL     1      -2.329   4.040  25.378  0.00  0.00    +0.104 C 
ATOM     13  C   UNL     1       0.386   1.672  24.523  0.00  0.00    +0.306 C 
ENDROOT
BRANCH   3  14
ATOM     14  C   UNL     1      -4.499   4.204  24.334  0.00  0.00    +0.122 C 
BRANCH  14  16
ATOM      5  N   UNL     1      -6.224   1.763  26.443  0.00  0.00    -0.274 N 
ATOM      7  N   UNL     1      -5.880   0.917  25.457  0.00  0.00    -0.180 NA
ATOM     16  C   UNL     1      -5.153   3.041  25.032  0.00  0.00    +0.004 A 
ATOM     18  C   UNL     1      -5.813   3.047  26.237  0.00  0.00    +0.112 A 
ATOM     19  C   UNL     1      -5.226   1.703  24.598  0.00  0.00    +0.139 A 
ATOM     22  C   UNL     1      -6.963   1.274  27.582  0.00  0.00    +0.172 C 
ENDBRANCH  14  16
ENDBRANCH   3  14
BRANCH   4  15
ATOM     15  C   UNL     1       0.926  -0.490  23.298  0.00  0.00    +0.164 C 
BRANCH  15  17
ATOM      6  N   UNL     1       3.210  -1.186  23.766  0.00  0.00    -0.258 NA
ATOM     17  C   UNL     1       2.409  -0.234  23.236  0.00  0.00    +0.059 A 
ATOM     20  C   UNL     1       2.873   0.935  22.654  0.00  0.00    +0.025 A 
ATOM     21  C   UNL     1       4.247   1.139  22.612  0.00  0.00    +0.003 A 
ATOM     23  C   UNL     1       4.540  -0.952  23.706  0.00  0.00    +0.111 A 
ATOM     24  C   UNL     1       5.104   0.183  23.146  0.00  0.00    +0.020 A 
ENDBRANCH  15  17
ENDBRANCH   4  15
TORSDOF 4
ENDMDL
MODEL 5
REMARK VINA RESULT:      -0.3      1.813      8.832
REMARK  Name = 75537079
REMARK  5 active torsions:
REMARK  status: ('A' for Active; 'I' for Inactive)
REMARK    1  A    between atoms: N_3  and  C_14
REMARK    2  A    between atoms: N_4  and  C_15
REMARK    3  A    between atoms: N_5  and  C_22
REMARK    4  A    between atoms: C_14  and  C_16
REMARK    5  A    between atoms: C_15  and  C_17
REMARK                            x       y       z     vdW  Elec       q    Type
REMARK                         _______ _______ _______ _____ _____    ______ ____
ROOT
ATOM      1  O   UNL     1      -1.575   3.989  25.054  0.00  0.00    -0.252 OA
ATOM      2  N   UNL     1      -0.612   1.978  24.314  0.00  0.00    -0.278 N 
ATOM      3  N   UNL     1       1.310   0.226  23.244  0.00  0.00    -0.295 NA
ATOM      4  N   UNL     1      -2.735   2.421  23.728  0.00  0.00    -0.278 N 
ATOM      8  C   UNL     1      -1.056   0.783  23.627  0.00  0.00    +0.109 C 
ATOM      9  C   UNL     1      -0.014   0.341  22.600  0.00  0.00    +0.109 C 
ATOM     10  C   UNL     1      -2.407   1.184  23.039  0.00  0.00    +0.133 C 
ATOM     11  C   UNL     1       0.730   2.027  24.856  0.00  0.00    +0.125 C 
ATOM     12  C   UNL     1       1.733   1.521  23.817  0.00  0.00    +0.104 C 
ATOM     13  C   UNL     1      -1.633   2.929  24.447  0.00  0.00    +0.306 C 
ENDROOT
BRANCH   3  14
ATOM     14  C   UNL     1       2.304  -0.254  22.283  0.00  0.00    +0.122 C 
BRANCH  14  16
ATOM      5  N   UNL     1       5.744  -0.165  23.521  0.00  0.00    -0.274 N 
ATOM      7  N   UNL     1       5.359  -1.271  24.180  0.00  0.00    -0.180 NA
ATOM     16  C   UNL     1       3.661  -0.415  22.915  0.00  0.00    +0.004 A 
ATOM     18  C   UNL     1       4.765   0.387  22.750  0.00  0.00    +0.112 A 
ATOM     19  C   UNL     1       4.086  -1.419  23.805  0.00  0.00    +0.139 A 
ATOM     22  C   UNL     1       7.093   0.327  23.674  0.00  0.00    +0.172 C 
ENDBRANCH  14  16
ENDBRANCH   3  14
BRANCH   4  15
ATOM     15  C   UNL     1      -4.003   3.089  23.540  0.00  0.00    +0.164 C 
BRANCH  15  17
ATOM      6  N   UNL     1      -5.410   3.800  25.394  0.00  0.00    -0.258 NA
ATOM     17  C   UNL     1      -4.977   2.763  24.642  0.00  0.00    +0.059 A 
ATOM     20  C   UNL     1      -5.375   1.449  24.830  0.00  0.00    +0.025 A 
ATOM     21  C   UNL     1      -6.275   1.182  25.854  0.00  0.00    +0.003 A 
ATOM     23  C   UNL     1      -6.285   3.502  26.380  0.00  0.00    +0.111 A 
ATOM     24  C   UNL     1      -6.744   2.223  26.650  0.00  0.00    +0.020 A 
ENDBRANCH  15  17
ENDBRANCH   4  15
TORSDOF 4
ENDMDL
MODEL 6
REMARK VINA RESULT:       0.1      1.816      8.444
REMARK  Name = 75537079
REMARK  5 active torsions:
REMARK  status: ('A' for Active; 'I' for Inactive)
REMARK    1  A    between atoms: N_3  and  C_14
REMARK    2  A    between atoms: N_4  and  C_15
REMARK    3  A    between atoms: N_5  and  C_22
REMARK    4  A    between atoms: C_14  and  C_16
REMARK    5  A    between atoms: C_15  and  C_17
REMARK                            x       y       z     vdW  Elec       q    Type
REMARK                         _______ _______ _______ _____ _____    ______ ____
ROOT
ATOM      1  O   UNL     1      -2.704  -1.128  26.610  0.00  0.00    -0.252 OA
ATOM      2  N   UNL     1      -1.479  -0.888  24.621  0.00  0.00    -0.278 N 
ATOM      3  N   UNL     1       0.705  -0.349  22.932  0.00  0.00    -0.295 NA
ATOM      4  N   UNL     1      -3.564  -0.056  24.693  0.00  0.00    -0.278 N 
ATOM      8  C   UNL     1      -1.731  -0.423  23.273  0.00  0.00    +0.109 C 
ATOM      9  C   UNL     1      -0.552   0.408  22.767  0.00  0.00    +0.109 C 
ATOM     10  C   UNL     1      -3.049   0.341  23.394  0.00  0.00    +0.133 C 
ATOM     11  C   UNL     1      -0.210  -1.514  24.928  0.00  0.00    +0.125 C 
ATOM     12  C   UNL     1       0.938  -0.681  24.352  0.00  0.00    +0.104 C 
ATOM     13  C   UNL     1      -2.597  -0.744  25.454  0.00  0.00    +0.306 C 
ENDROOT
BRANCH   3  14
ATOM     14  C   UNL     1       1.833   0.412  22.396  0.00  0.00    +0.122 C 
BRANCH  14  16
ATOM      5  N   UNL     1       5.234  -0.261  23.561  0.00  0.00    -0.274 N 
ATOM      7  N   UNL     1       4.709  -1.456  23.880  0.00  0.00    -0.180 NA
ATOM     16  C   UNL     1       3.148  -0.080  22.937  0.00  0.00    +0.004 A 
ATOM     18  C   UNL     1       4.341   0.599  22.993  0.00  0.00    +0.112 A 
ATOM     19  C   UNL     1       3.435  -1.340  23.496  0.00  0.00    +0.139 A 
ATOM     22  C   UNL     1       6.627   0.005  23.830  0.00  0.00    +0.172 C 
ENDBRANCH  14  16
ENDBRANCH   3  14
BRANCH   4  15
ATOM     15  C   UNL     1      -4.867   0.362  25.161  0.00  0.00    +0.164 C 
BRANCH  15  17
ATOM      6  N   UNL     1      -3.776   2.532  25.316  0.00  0.00    -0.258 NA
ATOM     17  C   UNL     1      -4.948   1.856  25.333  0.00  0.00    +0.059 A 
ATOM     20  C   UNL     1      -6.187   2.455  25.495  0.00  0.00    +0.025 A 
ATOM     21  C   UNL     1      -6.226   3.836  25.650  0.00  0.00    +0.003 A 
ATOM     23  C   UNL     1      -3.855   3.873  25.469  0.00  0.00    +0.111 A 
ATOM     24  C   UNL     1      -5.042   4.566  25.639  0.00  0.00    +0.020 A 
ENDBRANCH  15  17
ENDBRANCH   4  15
TORSDOF 4
ENDMDL
MODEL 7
REMARK VINA RESULT:       0.5      1.976      3.338
REMARK  Name = 75537079
REMARK  5 active torsions:
REMARK  status: ('A' for Active; 'I' for Inactive)
REMARK    1  A    between atoms: N_3  and  C_14
REMARK    2  A    between atoms: N_4  and  C_15
REMARK    3  A    between atoms: N_5  and  C_22
REMARK    4  A    between atoms: C_14  and  C_16
REMARK    5  A    between atoms: C_15  and  C_17
REMARK                            x       y       z     vdW  Elec       q    Type
REMARK                         _______ _______ _______ _____ _____    ______ ____
ROOT
ATOM      1  O   UNL     1      -1.492  -3.295  23.496  0.00  0.00    -0.252 OA
ATOM      2  N   UNL     1      -2.650  -1.618  24.664  0.00  0.00    -0.278 N 
ATOM      3  N   UNL     1      -4.442   0.500  25.125  0.00  0.00    -0.295 NA
ATOM      4  N   UNL     1      -0.438  -1.816  25.001  0.00  0.00    -0.278 N 
ATOM      8  C   UNL     1      -2.356  -0.664  25.713  0.00  0.00    +0.109 C 
ATOM      9  C   UNL     1      -3.004   0.685  25.404  0.00  0.00    +0.109 C 
ATOM     10  C   UNL     1      -0.829  -0.645  25.768  0.00  0.00    +0.133 C 
ATOM     11  C   UNL     1      -4.016  -1.770  24.208  0.00  0.00    +0.125 C 
ATOM     12  C   UNL     1      -4.644  -0.396  23.968  0.00  0.00    +0.104 C 
ATOM     13  C   UNL     1      -1.524  -2.364  24.289  0.00  0.00    +0.306 C 
ENDROOT
BRANCH   3  14
ATOM     14  C   UNL     1      -5.085   1.792  24.886  0.00  0.00    +0.122 C 
BRANCH  14  16
ATOM      5  N   UNL     1      -2.573   4.429  25.233  0.00  0.00    -0.274 N 
ATOM      7  N   UNL     1      -3.296   4.743  26.322  0.00  0.00    -0.180 NA
ATOM     16  C   UNL     1      -4.173   2.942  25.224  0.00  0.00    +0.004 A 
ATOM     18  C   UNL     1      -3.057   3.358  24.540  0.00  0.00    +0.112 A 
ATOM     19  C   UNL     1      -4.271   3.831  26.311  0.00  0.00    +0.139 A 
ATOM     22  C   UNL     1      -1.405   5.207  24.899  0.00  0.00    +0.172 C 
ENDBRANCH  14  16
ENDBRANCH   3  14
BRANCH   4  15
ATOM     15  C   UNL     1       0.942  -2.233  24.892  0.00  0.00    +0.164 C 
BRANCH  15  17
ATOM      6  N   UNL     1       1.036  -0.408  23.286  0.00  0.00    -0.258 NA
ATOM     17  C   UNL     1       1.738  -1.314  24.004  0.00  0.00    +0.059 A 
ATOM     20  C   UNL     1       3.118  -1.436  23.964  0.00  0.00    +0.025 A 
ATOM     21  C   UNL     1       3.823  -0.571  23.134  0.00  0.00    +0.003 A 
ATOM     23  C   UNL     1       1.756   0.414  22.491  0.00  0.00    +0.111 A 
ATOM     24  C   UNL     1       3.137   0.374  22.380  0.00  0.00    +0.020 A 
ENDBRANCH  15  17
ENDBRANCH   4  15
TORSDOF 4
ENDMDL
