MODEL 1
REMARK VINA RESULT:      -2.1      0.000      0.000
REMARK  Name = 38028418
REMARK  14 active torsions:
REMARK  status: ('A' for Active; 'I' for Inactive)
REMARK    1  A    between atoms: S_1  and  N_6
REMARK    2  A    between atoms: S_1  and  C_22
REMARK    3  A    between atoms: O_5  and  C_29
REMARK    4  A    between atoms: O_5  and  C_34
REMARK    5  A    between atoms: N_6  and  C_16
REMARK    6  A    between atoms: N_7  and  C_23
REMARK    7  A    between atoms: C_9  and  C_13
REMARK    8  A    between atoms: C_10  and  C_16
REMARK    9  A    between atoms: C_12  and  C_17
REMARK   10  A    between atoms: C_13  and  C_18
REMARK   11  A    between atoms: C_13  and  C_19
REMARK   12  A    between atoms: C_14  and  C_20
REMARK   13  A    between atoms: C_17  and  C_21
REMARK   14  A    between atoms: C_23  and  C_26
REMARK                            x       y       z     vdW  Elec       q    Type
REMARK                         _______ _______ _______ _____ _____    ______ ____
ROOT
ATOM      9  C   UNL     1      -2.155   3.675  25.013  0.00  0.00    +0.000 C 
ATOM     10  C   UNL     1      -3.341   3.872  24.036  0.00  0.00    +0.030 C 
ATOM     11  C   UNL     1      -0.895   3.249  24.246  0.00  0.00    +0.012 C 
ATOM     12  C   UNL     1      -1.104   1.940  23.463  0.00  0.00    +0.023 C 
ATOM     14  C   UNL     1      -2.400   1.954  22.678  0.00  0.00    -0.073 C 
ATOM     15  C   UNL     1      -3.383   2.834  22.940  0.00  0.00    -0.023 C 
ATOM     20  C   UNL     1      -2.523   0.963  21.554  0.00  0.00    +0.039 C 
ENDROOT
BRANCH   9  13
ATOM     13  C   UNL     1      -1.867   4.945  25.821  0.00  0.00    -0.013 C 
ATOM     18  C   UNL     1      -1.291   6.031  24.917  0.00  0.00    +0.007 C 
ATOM     19  C   UNL     1      -3.134   5.433  26.514  0.00  0.00    +0.007 C 
ENDBRANCH   9  13
BRANCH  10  16
ATOM     16  C   UNL     1      -4.679   3.879  24.784  0.00  0.00    +0.113 C 
BRANCH  16   6
ATOM      6  N   UNL     1      -4.693   2.773  25.755  0.00  0.00    -0.189 NA
ATOM     35  H   UNL     1      -3.804   2.556  26.222  0.00  0.00    +0.148 HD
BRANCH   6   1
ATOM      1  S   UNL     1      -5.839   1.521  25.612  0.00  0.00    +0.058 S 
ATOM      3  O   UNL     1      -6.634   1.734  24.417  0.00  0.00    -0.153 OA
ATOM      4  O   UNL     1      -6.489   1.323  26.893  0.00  0.00    -0.153 OA
BRANCH   1  22
ATOM     22  C   UNL     1      -4.805   0.116  25.335  0.00  0.00    +0.105 A 
ATOM     24  C   UNL     1      -4.821  -0.532  24.100  0.00  0.00    +0.032 A 
ATOM     25  C   UNL     1      -3.971  -0.349  26.354  0.00  0.00    +0.032 A 
ATOM     27  C   UNL     1      -4.006  -1.641  23.882  0.00  0.00    +0.047 A 
ATOM     28  C   UNL     1      -3.155  -1.458  26.135  0.00  0.00    +0.047 A 
ATOM     29  C   UNL     1      -3.171  -2.105  24.899  0.00  0.00    +0.120 A 
BRANCH  29   5
ATOM      5  O   UNL     1      -2.376  -3.188  24.687  0.00  0.00    -0.495 OA
ATOM     34  C   UNL     1      -2.192  -3.602  23.335  0.00  0.00    +0.277 C 
ENDBRANCH  29   5
ENDBRANCH   1  22
ENDBRANCH   6   1
ENDBRANCH  16   6
ENDBRANCH  10  16
BRANCH  12  17
ATOM     17  C   UNL     1      -1.038   0.722  24.392  0.00  0.00    +0.103 C 
BRANCH  17  21
ATOM      2  O   UNL     1       0.164  -1.375  24.477  0.00  0.00    -0.276 OA
ATOM      7  N   UNL     1       0.707   0.190  22.847  0.00  0.00    -0.311 N 
ATOM     21  C   UNL     1      -0.007  -0.285  23.937  0.00  0.00    +0.214 C 
ATOM     36  H   UNL     1       0.490   1.107  22.467  0.00  0.00    +0.149 HD
BRANCH   7  23
ATOM     23  C   UNL     1       1.759  -0.562  22.204  0.00  0.00    +0.141 C 
BRANCH  23  26
ATOM      8  N   UNL     1       4.896   1.236  23.312  0.00  0.00    -0.263 NA
ATOM     26  C   UNL     1       3.098  -0.308  22.836  0.00  0.00    -0.012 A 
ATOM     30  C   UNL     1       3.778  -1.319  23.505  0.00  0.00    +0.008 A 
ATOM     31  C   UNL     1       3.694   0.941  22.768  0.00  0.00    +0.115 A 
ATOM     32  C   UNL     1       5.016  -1.053  24.079  0.00  0.00    +0.020 A 
ATOM     33  C   UNL     1       5.527   0.229  23.955  0.00  0.00    +0.111 A 
ENDBRANCH  23  26
ENDBRANCH   7  23
ENDBRANCH  17  21
ENDBRANCH  12  17
TORSDOF 10
ENDMDL
MODEL 2
REMARK VINA RESULT:       0.1      2.303      7.171
REMARK  Name = 38028418
REMARK  14 active torsions:
REMARK  status: ('A' for Active; 'I' for Inactive)
REMARK    1  A    between atoms: S_1  and  N_6
REMARK    2  A    between atoms: S_1  and  C_22
REMARK    3  A    between atoms: O_5  and  C_29
REMARK    4  A    between atoms: O_5  and  C_34
REMARK    5  A    between atoms: N_6  and  C_16
REMARK    6  A    between atoms: N_7  and  C_23
REMARK    7  A    between atoms: C_9  and  C_13
REMARK    8  A    between atoms: C_10  and  C_16
REMARK    9  A    between atoms: C_12  and  C_17
REMARK   10  A    between atoms: C_13  and  C_18
REMARK   11  A    between atoms: C_13  and  C_19
REMARK   12  A    between atoms: C_14  and  C_20
REMARK   13  A    between atoms: C_17  and  C_21
REMARK   14  A    between atoms: C_23  and  C_26
REMARK                            x       y       z     vdW  Elec       q    Type
REMARK                         _______ _______ _______ _____ _____    ______ ____
ROOT
ATOM      9  C   UNL     1      -3.370  -0.933  24.970  0.00  0.00    +0.000 C 
ATOM     10  C   UNL     1      -2.193  -0.187  24.294  0.00  0.00    +0.030 C 
ATOM     11  C   UNL     1      -4.676  -0.679  24.205  0.00  0.00    +0.012 C 
ATOM     12  C   UNL     1      -5.027   0.820  24.133  0.00  0.00    +0.023 C 
ATOM     14  C   UNL     1      -3.831   1.658  23.728  0.00  0.00    -0.073 C 
ATOM     15  C   UNL     1      -2.573   1.186  23.794  0.00  0.00    -0.023 C 
ATOM     20  C   UNL     1      -4.117   3.037  23.200  0.00  0.00    +0.039 C 
ENDROOT
BRANCH   9  13
ATOM     13  C   UNL     1      -3.109  -2.441  25.064  0.00  0.00    -0.013 C 
ATOM     18  C   UNL     1      -4.123  -3.209  24.224  0.00  0.00    +0.007 C 
ATOM     19  C   UNL     1      -1.685  -2.762  24.622  0.00  0.00    +0.007 C 
ENDBRANCH   9  13
BRANCH  10  16
ATOM     16  C   UNL     1      -0.993  -0.071  25.241  0.00  0.00    +0.113 C 
BRANCH  16   6
ATOM      6  N   UNL     1       0.208  -0.581  24.561  0.00  0.00    -0.189 NA
ATOM     35  H   UNL     1       0.920  -1.029  25.151  0.00  0.00    +0.148 HD
BRANCH   6   1
ATOM      1  S   UNL     1       0.718   0.111  23.090  0.00  0.00    +0.058 S 
ATOM      3  O   UNL     1       0.350   1.514  23.068  0.00  0.00    -0.153 OA
ATOM      4  O   UNL     1       0.334  -0.761  21.996  0.00  0.00    -0.153 OA
BRANCH   1  22
ATOM     22  C   UNL     1       2.476   0.011  23.236  0.00  0.00    +0.105 A 
ATOM     24  C   UNL     1       3.072  -1.157  23.712  0.00  0.00    +0.032 A 
ATOM     25  C   UNL     1       3.269   1.102  22.878  0.00  0.00    +0.032 A 
ATOM     27  C   UNL     1       4.460  -1.235  23.828  0.00  0.00    +0.047 A 
ATOM     28  C   UNL     1       4.657   1.023  22.993  0.00  0.00    +0.047 A 
ATOM     29  C   UNL     1       5.253  -0.145  23.468  0.00  0.00    +0.120 A 
BRANCH  29   5
ATOM      5  O   UNL     1       6.606  -0.221  23.582  0.00  0.00    -0.495 OA
ATOM     34  C   UNL     1       7.304  -0.940  22.567  0.00  0.00    +0.277 C 
ENDBRANCH  29   5
ENDBRANCH   1  22
ENDBRANCH   6   1
ENDBRANCH  16   6
ENDBRANCH  10  16
BRANCH  12  17
ATOM     17  C   UNL     1      -5.620   1.314  25.457  0.00  0.00    +0.103 C 
BRANCH  17  21
ATOM      2  O   UNL     1      -5.941   3.711  25.502  0.00  0.00    -0.276 OA
ATOM      7  N   UNL     1      -3.975   2.804  26.344  0.00  0.00    -0.311 N 
ATOM     21  C   UNL     1      -5.229   2.743  25.756  0.00  0.00    +0.214 C 
ATOM     36  H   UNL     1      -3.461   1.945  26.518  0.00  0.00    +0.149 HD
BRANCH   7  23
ATOM     23  C   UNL     1      -3.346   4.044  26.735  0.00  0.00    +0.141 C 
BRANCH  23  26
ATOM      8  N   UNL     1       0.084   3.612  25.202  0.00  0.00    -0.263 NA
ATOM     26  C   UNL     1      -2.108   4.324  25.933  0.00  0.00    -0.012 A 
ATOM     30  C   UNL     1      -1.979   5.499  25.200  0.00  0.00    +0.008 A 
ATOM     31  C   UNL     1      -1.057   3.421  25.901  0.00  0.00    +0.115 A 
ATOM     32  C   UNL     1      -0.820   5.731  24.468  0.00  0.00    +0.020 A 
ATOM     33  C   UNL     1       0.173   4.765  24.502  0.00  0.00    +0.111 A 
ENDBRANCH  23  26
ENDBRANCH   7  23
ENDBRANCH  17  21
ENDBRANCH  12  17
TORSDOF 10
ENDMDL
MODEL 3
REMARK VINA RESULT:       1.3      2.281      7.039
REMARK  Name = 38028418
REMARK  14 active torsions:
REMARK  status: ('A' for Active; 'I' for Inactive)
REMARK    1  A    between atoms: S_1  and  N_6
REMARK    2  A    between atoms: S_1  and  C_22
REMARK    3  A    between atoms: O_5  and  C_29
REMARK    4  A    between atoms: O_5  and  C_34
REMARK    5  A    between atoms: N_6  and  C_16
REMARK    6  A    between atoms: N_7  and  C_23
REMARK    7  A    between atoms: C_9  and  C_13
REMARK    8  A    between atoms: C_10  and  C_16
REMARK    9  A    between atoms: C_12  and  C_17
REMARK   10  A    between atoms: C_13  and  C_18
REMARK   11  A    between atoms: C_13  and  C_19
REMARK   12  A    between atoms: C_14  and  C_20
REMARK   13  A    between atoms: C_17  and  C_21
REMARK   14  A    between atoms: C_23  and  C_26
REMARK                            x       y       z     vdW  Elec       q    Type
REMARK                         _______ _______ _______ _____ _____    ______ ____
ROOT
ATOM      9  C   UNL     1      -2.386   2.201  23.626  0.00  0.00    +0.000 C 
ATOM     10  C   UNL     1      -1.030   2.922  23.823  0.00  0.00    +0.030 C 
ATOM     11  C   UNL     1      -3.512   3.225  23.422  0.00  0.00    +0.012 C 
ATOM     12  C   UNL     1      -3.643   4.192  24.613  0.00  0.00    +0.023 C 
ATOM     14  C   UNL     1      -2.297   4.743  25.042  0.00  0.00    -0.073 C 
ATOM     15  C   UNL     1      -1.140   4.169  24.667  0.00  0.00    -0.023 C 
ATOM     20  C   UNL     1      -2.311   5.995  25.872  0.00  0.00    +0.039 C 
ENDROOT
BRANCH   9  13
ATOM     13  C   UNL     1      -2.348   1.229  22.441  0.00  0.00    -0.013 C 
ATOM     18  C   UNL     1      -3.466   0.199  22.562  0.00  0.00    +0.007 C 
ATOM     19  C   UNL     1      -2.454   1.992  21.125  0.00  0.00    +0.007 C 
ENDBRANCH   9  13
BRANCH  10  16
ATOM     16  C   UNL     1       0.014   1.980  24.437  0.00  0.00    +0.113 C 
BRANCH  16   6
ATOM      6  N   UNL     1       1.026   1.655  23.420  0.00  0.00    -0.189 NA
ATOM     35  H   UNL     1       1.236   2.384  22.726  0.00  0.00    +0.148 HD
BRANCH   6   1
ATOM      1  S   UNL     1       1.305   0.034  22.976  0.00  0.00    +0.058 S 
ATOM      3  O   UNL     1       1.061  -0.122  21.555  0.00  0.00    -0.153 OA
ATOM      4  O   UNL     1       0.648  -0.840  23.929  0.00  0.00    -0.153 OA
BRANCH   1  22
ATOM     22  C   UNL     1       3.044  -0.119  23.251  0.00  0.00    +0.105 A 
ATOM     24  C   UNL     1       3.580  -1.337  23.670  0.00  0.00    +0.032 A 
ATOM     25  C   UNL     1       3.882   0.978  23.049  0.00  0.00    +0.032 A 
ATOM     27  C   UNL     1       4.952  -1.458  23.888  0.00  0.00    +0.047 A 
ATOM     28  C   UNL     1       5.254   0.857  23.266  0.00  0.00    +0.047 A 
ATOM     29  C   UNL     1       5.790  -0.360  23.685  0.00  0.00    +0.120 A 
BRANCH  29   5
ATOM      5  O   UNL     1       7.129  -0.478  23.898  0.00  0.00    -0.495 OA
ATOM     34  C   UNL     1       7.958  -0.633  22.748  0.00  0.00    +0.277 C 
ENDBRANCH  29   5
ENDBRANCH   1  22
ENDBRANCH   6   1
ENDBRANCH  16   6
ENDBRANCH  10  16
BRANCH  12  17
ATOM     17  C   UNL     1      -4.363   3.526  25.791  0.00  0.00    +0.103 C 
BRANCH  17  21
ATOM      2  O   UNL     1      -6.181   2.281  24.795  0.00  0.00    -0.276 OA
ATOM      7  N   UNL     1      -4.388   1.136  25.731  0.00  0.00    -0.311 N 
ATOM     21  C   UNL     1      -5.098   2.273  25.373  0.00  0.00    +0.214 C 
ATOM     36  H   UNL     1      -3.495   1.232  26.205  0.00  0.00    +0.149 HD
BRANCH   7  23
ATOM     23  C   UNL     1      -4.855  -0.204  25.457  0.00  0.00    +0.141 C 
BRANCH  23  26
ATOM      8  N   UNL     1      -1.389  -1.715  25.554  0.00  0.00    -0.263 NA
ATOM     26  C   UNL     1      -3.719  -1.157  25.224  0.00  0.00    -0.012 A 
ATOM     30  C   UNL     1      -3.902  -2.325  24.491  0.00  0.00    +0.008 A 
ATOM     31  C   UNL     1      -2.454  -0.900  25.730  0.00  0.00    +0.115 A 
ATOM     32  C   UNL     1      -2.831  -3.188  24.290  0.00  0.00    +0.020 A 
ATOM     33  C   UNL     1      -1.606  -2.840  24.838  0.00  0.00    +0.111 A 
ENDBRANCH  23  26
ENDBRANCH   7  23
ENDBRANCH  17  21
ENDBRANCH  12  17
TORSDOF 10
ENDMDL
