MODEL 1
REMARK VINA RESULT:      -5.3      0.000      0.000
REMARK  Name = 11883315
REMARK  5 active torsions:
REMARK  status: ('A' for Active; 'I' for Inactive)
REMARK    1  A    between atoms: S_1  and  N_7
REMARK    2  A    between atoms: S_1  and  C_15
REMARK    3  A    between atoms: O_4  and  C_11
REMARK    4  A    between atoms: O_4  and  C_14
REMARK    5  A    between atoms: N_7  and  C_10
REMARK                            x       y       z     vdW  Elec       q    Type
REMARK                         _______ _______ _______ _____ _____    ______ ____
ROOT
ATOM      2  O   UNL     1      -2.930   2.863  23.793  0.00  0.00    -0.370 OA
ATOM      3  O   UNL     1      -0.571   1.565  25.280  0.00  0.00    -0.370 OA
ATOM      8  C   UNL     1      -1.968   1.214  25.204  0.00  0.00    +0.170 C 
ATOM      9  C   UNL     1      -2.746   2.515  25.175  0.00  0.00    +0.179 C 
ATOM     10  C   UNL     1      -2.268   0.581  23.868  0.00  0.00    +0.133 C 
ATOM     11  C   UNL     1      -1.812   3.473  25.873  0.00  0.00    +0.175 C 
ATOM     12  C   UNL     1      -2.473   1.782  22.965  0.00  0.00    +0.183 C 
ATOM     13  C   UNL     1      -0.456   2.990  25.410  0.00  0.00    +0.194 C 
ENDROOT
BRANCH  11   4
ATOM      4  O   UNL     1      -2.036   4.824  25.539  0.00  0.00    -0.375 OA
ATOM     14  C   UNL     1      -0.930   5.392  24.842  0.00  0.00    +0.194 C 
ENDBRANCH  11   4
BRANCH  10   7
ATOM      7  N   UNL     1      -3.522  -0.205  23.950  0.00  0.00    -0.187 NA
ATOM     16  H   UNL     1      -4.405   0.319  23.942  0.00  0.00    +0.148 HD
BRANCH   7   1
ATOM      1  S   UNL     1      -3.479  -1.748  24.667  0.00  0.00    +0.027 S 
ATOM      5  O   UNL     1      -4.317  -2.666  23.920  0.00  0.00    -0.158 OA
ATOM      6  O   UNL     1      -3.648  -1.588  26.098  0.00  0.00    -0.158 OA
ATOM     15  C   UNL     1      -1.783  -2.199  24.380  0.00  0.00    +0.214 C 
ENDBRANCH   7   1
ENDBRANCH  10   7
TORSDOF 3
ENDMDL
MODEL 2
REMARK VINA RESULT:      -4.6      2.425      5.376
REMARK  Name = 11883315
REMARK  5 active torsions:
REMARK  status: ('A' for Active; 'I' for Inactive)
REMARK    1  A    between atoms: S_1  and  N_7
REMARK    2  A    between atoms: S_1  and  C_15
REMARK    3  A    between atoms: O_4  and  C_11
REMARK    4  A    between atoms: O_4  and  C_14
REMARK    5  A    between atoms: N_7  and  C_10
REMARK                            x       y       z     vdW  Elec       q    Type
REMARK                         _______ _______ _______ _____ _____    ______ ____
ROOT
ATOM      2  O   UNL     1      -1.452  -0.440  25.155  0.00  0.00    -0.370 OA
ATOM      3  O   UNL     1      -3.895   0.368  23.469  0.00  0.00    -0.370 OA
ATOM      8  C   UNL     1      -3.199   1.044  24.537  0.00  0.00    +0.170 C 
ATOM      9  C   UNL     1      -2.776  -0.022  25.529  0.00  0.00    +0.179 C 
ATOM     10  C   UNL     1      -1.895   1.605  24.027  0.00  0.00    +0.133 C 
ATOM     11  C   UNL     1      -3.793  -1.112  25.294  0.00  0.00    +0.175 C 
ATOM     12  C   UNL     1      -0.960   0.415  24.111  0.00  0.00    +0.183 C 
ATOM     13  C   UNL     1      -4.017  -1.023  23.802  0.00  0.00    +0.194 C 
ENDROOT
BRANCH  11   4
ATOM      4  O   UNL     1      -3.350  -2.390  25.688  0.00  0.00    -0.375 OA
ATOM     14  C   UNL     1      -3.376  -3.321  24.609  0.00  0.00    +0.194 C 
ENDBRANCH  11   4
BRANCH  10   7
ATOM      7  N   UNL     1      -1.419   2.681  24.930  0.00  0.00    -0.187 NA
ATOM     16  H   UNL     1      -0.691   2.433  25.611  0.00  0.00    +0.148 HD
BRANCH   7   1
ATOM      1  S   UNL     1      -2.450   3.995  25.259  0.00  0.00    +0.027 S 
ATOM      5  O   UNL     1      -2.874   3.957  26.645  0.00  0.00    -0.158 OA
ATOM      6  O   UNL     1      -3.422   4.087  24.187  0.00  0.00    -0.158 OA
ATOM     15  C   UNL     1      -1.320   5.355  25.069  0.00  0.00    +0.214 C 
ENDBRANCH   7   1
ENDBRANCH  10   7
TORSDOF 3
ENDMDL
MODEL 3
REMARK VINA RESULT:      -4.3      2.287      2.808
REMARK  Name = 11883315
REMARK  5 active torsions:
REMARK  status: ('A' for Active; 'I' for Inactive)
REMARK    1  A    between atoms: S_1  and  N_7
REMARK    2  A    between atoms: S_1  and  C_15
REMARK    3  A    between atoms: O_4  and  C_11
REMARK    4  A    between atoms: O_4  and  C_14
REMARK    5  A    between atoms: N_7  and  C_10
REMARK                            x       y       z     vdW  Elec       q    Type
REMARK                         _______ _______ _______ _____ _____    ______ ____
ROOT
ATOM      2  O   UNL     1      -2.764   1.963  24.293  0.00  0.00    -0.370 OA
ATOM      3  O   UNL     1      -0.663   3.913  25.409  0.00  0.00    -0.370 OA
ATOM      8  C   UNL     1      -1.107   2.617  25.862  0.00  0.00    +0.170 C 
ATOM      9  C   UNL     1      -2.598   2.546  25.596  0.00  0.00    +0.179 C 
ATOM     10  C   UNL     1      -0.529   1.538  24.981  0.00  0.00    +0.133 C 
ATOM     11  C   UNL     1      -3.004   4.000  25.614  0.00  0.00    +0.175 C 
ATOM     12  C   UNL     1      -1.491   1.508  23.810  0.00  0.00    +0.183 C 
ATOM     13  C   UNL     1      -1.805   4.674  24.987  0.00  0.00    +0.194 C 
ENDROOT
BRANCH  11   4
ATOM      4  O   UNL     1      -4.192   4.262  24.900  0.00  0.00    -0.375 OA
ATOM     14  C   UNL     1      -5.320   3.619  25.489  0.00  0.00    +0.194 C 
ENDBRANCH  11   4
BRANCH  10   7
ATOM      7  N   UNL     1      -0.560   0.235  25.688  0.00  0.00    -0.187 NA
ATOM     16  H   UNL     1      -0.267   0.230  26.673  0.00  0.00    +0.148 HD
BRANCH   7   1
ATOM      1  S   UNL     1      -0.438  -1.198  24.779  0.00  0.00    +0.027 S 
ATOM      5  O   UNL     1       0.151  -2.250  25.586  0.00  0.00    -0.158 OA
ATOM      6  O   UNL     1       0.112  -0.865  23.479  0.00  0.00    -0.158 OA
ATOM     15  C   UNL     1      -2.158  -1.587  24.544  0.00  0.00    +0.214 C 
ENDBRANCH   7   1
ENDBRANCH  10   7
TORSDOF 3
ENDMDL
MODEL 4
REMARK VINA RESULT:      -4.2      2.826      4.460
REMARK  Name = 11883315
REMARK  5 active torsions:
REMARK  status: ('A' for Active; 'I' for Inactive)
REMARK    1  A    between atoms: S_1  and  N_7
REMARK    2  A    between atoms: S_1  and  C_15
REMARK    3  A    between atoms: O_4  and  C_11
REMARK    4  A    between atoms: O_4  and  C_14
REMARK    5  A    between atoms: N_7  and  C_10
REMARK                            x       y       z     vdW  Elec       q    Type
REMARK                         _______ _______ _______ _____ _____    ______ ____
ROOT
ATOM      2  O   UNL     1      -1.376   1.283  23.003  0.00  0.00    -0.370 OA
ATOM      3  O   UNL     1      -1.421  -0.811  25.255  0.00  0.00    -0.370 OA
ATOM      8  C   UNL     1      -1.399   0.632  25.285  0.00  0.00    +0.170 C 
ATOM      9  C   UNL     1      -0.517   1.081  24.137  0.00  0.00    +0.179 C 
ATOM     10  C   UNL     1      -2.762   1.174  24.931  0.00  0.00    +0.133 C 
ATOM     11  C   UNL     1       0.398  -0.104  23.941  0.00  0.00    +0.175 C 
ATOM     12  C   UNL     1      -2.746   1.160  23.415  0.00  0.00    +0.183 C 
ATOM     13  C   UNL     1      -0.522  -1.267  24.233  0.00  0.00    +0.194 C 
ENDROOT
BRANCH  11   4
ATOM      4  O   UNL     1       0.954  -0.178  22.649  0.00  0.00    -0.375 OA
ATOM     14  C   UNL     1       2.350   0.112  22.650  0.00  0.00    +0.194 C 
ENDBRANCH  11   4
BRANCH  10   7
ATOM      7  N   UNL     1      -2.894   2.568  25.418  0.00  0.00    -0.187 NA
ATOM     16  H   UNL     1      -2.288   2.851  26.197  0.00  0.00    +0.148 HD
BRANCH   7   1
ATOM      1  S   UNL     1      -4.364   3.390  25.168  0.00  0.00    +0.027 S 
ATOM      5  O   UNL     1      -4.331   4.091  23.898  0.00  0.00    -0.158 OA
ATOM      6  O   UNL     1      -4.706   4.088  26.392  0.00  0.00    -0.158 OA
ATOM     15  C   UNL     1      -5.485   2.019  25.007  0.00  0.00    +0.214 C 
ENDBRANCH   7   1
ENDBRANCH  10   7
TORSDOF 3
ENDMDL
MODEL 5
REMARK VINA RESULT:      -4.2      2.514      5.245
REMARK  Name = 11883315
REMARK  5 active torsions:
REMARK  status: ('A' for Active; 'I' for Inactive)
REMARK    1  A    between atoms: S_1  and  N_7
REMARK    2  A    between atoms: S_1  and  C_15
REMARK    3  A    between atoms: O_4  and  C_11
REMARK    4  A    between atoms: O_4  and  C_14
REMARK    5  A    between atoms: N_7  and  C_10
REMARK                            x       y       z     vdW  Elec       q    Type
REMARK                         _______ _______ _______ _____ _____    ______ ____
ROOT
ATOM      2  O   UNL     1      -2.092   0.199  24.308  0.00  0.00    -0.370 OA
ATOM      3  O   UNL     1      -4.716  -1.397  24.134  0.00  0.00    -0.370 OA
ATOM      8  C   UNL     1      -4.245  -0.425  25.090  0.00  0.00    +0.170 C 
ATOM      9  C   UNL     1      -2.756  -0.656  25.255  0.00  0.00    +0.179 C 
ATOM     10  C   UNL     1      -4.335   0.961  24.501  0.00  0.00    +0.133 C 
ATOM     11  C   UNL     1      -2.608  -2.114  24.891  0.00  0.00    +0.175 C 
ATOM     12  C   UNL     1      -3.056   1.068  23.694  0.00  0.00    +0.183 C 
ATOM     13  C   UNL     1      -3.632  -2.273  23.791  0.00  0.00    +0.194 C 
ENDROOT
BRANCH  11   4
ATOM      4  O   UNL     1      -1.310  -2.458  24.461  0.00  0.00    -0.375 OA
ATOM     14  C   UNL     1      -0.305  -1.941  25.331  0.00  0.00    +0.194 C 
ENDBRANCH  11   4
BRANCH  10   7
ATOM      7  N   UNL     1      -4.331   1.973  25.584  0.00  0.00    -0.187 NA
ATOM     16  H   UNL     1      -4.656   1.670  26.510  0.00  0.00    +0.148 HD
BRANCH   7   1
ATOM      1  S   UNL     1      -4.426   3.622  25.170  0.00  0.00    +0.027 S 
ATOM      5  O   UNL     1      -5.638   4.201  25.716  0.00  0.00    -0.158 OA
ATOM      6  O   UNL     1      -4.110   3.754  23.761  0.00  0.00    -0.158 OA
ATOM     15  C   UNL     1      -3.047   4.272  26.087  0.00  0.00    +0.214 C 
ENDBRANCH   7   1
ENDBRANCH  10   7
TORSDOF 3
ENDMDL
MODEL 6
REMARK VINA RESULT:      -4.2      1.459      2.095
REMARK  Name = 11883315
REMARK  5 active torsions:
REMARK  status: ('A' for Active; 'I' for Inactive)
REMARK    1  A    between atoms: S_1  and  N_7
REMARK    2  A    between atoms: S_1  and  C_15
REMARK    3  A    between atoms: O_4  and  C_11
REMARK    4  A    between atoms: O_4  and  C_14
REMARK    5  A    between atoms: N_7  and  C_10
REMARK                            x       y       z     vdW  Elec       q    Type
REMARK                         _______ _______ _______ _____ _____    ______ ____
ROOT
ATOM      2  O   UNL     1      -2.072   1.898  24.453  0.00  0.00    -0.370 OA
ATOM      3  O   UNL     1      -4.827   2.417  25.717  0.00  0.00    -0.370 OA
ATOM      8  C   UNL     1      -4.420   1.587  24.609  0.00  0.00    +0.170 C 
ATOM      9  C   UNL     1      -3.318   2.334  23.884  0.00  0.00    +0.179 C 
ATOM     10  C   UNL     1      -3.740   0.342  25.122  0.00  0.00    +0.133 C 
ATOM     11  C   UNL     1      -3.615   3.774  24.227  0.00  0.00    +0.175 C 
ATOM     12  C   UNL     1      -2.316   0.808  25.356  0.00  0.00    +0.183 C 
ATOM     13  C   UNL     1      -4.122   3.665  25.647  0.00  0.00    +0.194 C 
ENDROOT
BRANCH  11   4
ATOM      4  O   UNL     1      -2.492   4.620  24.128  0.00  0.00    -0.375 OA
ATOM     14  C   UNL     1      -1.903   4.876  25.401  0.00  0.00    +0.194 C 
ENDBRANCH  11   4
BRANCH  10   7
ATOM      7  N   UNL     1      -3.757  -0.711  24.079  0.00  0.00    -0.187 NA
ATOM     16  H   UNL     1      -4.327  -0.532  23.242  0.00  0.00    +0.148 HD
BRANCH   7   1
ATOM      1  S   UNL     1      -3.424  -2.319  24.527  0.00  0.00    +0.027 S 
ATOM      5  O   UNL     1      -4.158  -3.234  23.675  0.00  0.00    -0.158 OA
ATOM      6  O   UNL     1      -3.514  -2.415  25.971  0.00  0.00    -0.158 OA
ATOM     15  C   UNL     1      -1.702  -2.431  24.094  0.00  0.00    +0.214 C 
ENDBRANCH   7   1
ENDBRANCH  10   7
TORSDOF 3
ENDMDL
MODEL 7
REMARK VINA RESULT:      -4.0      2.589      4.247
REMARK  Name = 11883315
REMARK  5 active torsions:
REMARK  status: ('A' for Active; 'I' for Inactive)
REMARK    1  A    between atoms: S_1  and  N_7
REMARK    2  A    between atoms: S_1  and  C_15
REMARK    3  A    between atoms: O_4  and  C_11
REMARK    4  A    between atoms: O_4  and  C_14
REMARK    5  A    between atoms: N_7  and  C_10
REMARK                            x       y       z     vdW  Elec       q    Type
REMARK                         _______ _______ _______ _____ _____    ______ ____
ROOT
ATOM      2  O   UNL     1      -0.984  -0.572  24.535  0.00  0.00    -0.370 OA
ATOM      3  O   UNL     1      -0.295   2.422  24.693  0.00  0.00    -0.370 OA
ATOM      8  C   UNL     1      -1.454   1.728  24.186  0.00  0.00    +0.170 C 
ATOM      9  C   UNL     1      -0.953   0.456  23.531  0.00  0.00    +0.179 C 
ATOM     10  C   UNL     1      -2.303   1.238  25.333  0.00  0.00    +0.133 C 
ATOM     11  C   UNL     1       0.461   0.819  23.146  0.00  0.00    +0.175 C 
ATOM     12  C   UNL     1      -1.632  -0.068  25.713  0.00  0.00    +0.183 C 
ATOM     13  C   UNL     1       0.885   1.709  24.293  0.00  0.00    +0.194 C 
ENDROOT
BRANCH  11   4
ATOM      4  O   UNL     1       1.309  -0.297  22.999  0.00  0.00    -0.375 OA
ATOM     14  C   UNL     1       2.590   0.069  22.492  0.00  0.00    +0.194 C 
ENDBRANCH  11   4
BRANCH  10   7
ATOM      7  N   UNL     1      -3.684   0.974  24.864  0.00  0.00    -0.187 NA
ATOM     16  H   UNL     1      -3.848   0.093  24.361  0.00  0.00    +0.148 HD
BRANCH   7   1
ATOM      1  S   UNL     1      -4.725   2.292  24.589  0.00  0.00    +0.027 S 
ATOM      5  O   UNL     1      -6.101   1.894  24.817  0.00  0.00    -0.158 OA
ATOM      6  O   UNL     1      -4.334   2.928  23.346  0.00  0.00    -0.158 OA
ATOM     15  C   UNL     1      -4.242   3.375  25.915  0.00  0.00    +0.214 C 
ENDBRANCH   7   1
ENDBRANCH  10   7
TORSDOF 3
ENDMDL
MODEL 8
REMARK VINA RESULT:      -3.8      3.236      4.229
REMARK  Name = 11883315
REMARK  5 active torsions:
REMARK  status: ('A' for Active; 'I' for Inactive)
REMARK    1  A    between atoms: S_1  and  N_7
REMARK    2  A    between atoms: S_1  and  C_15
REMARK    3  A    between atoms: O_4  and  C_11
REMARK    4  A    between atoms: O_4  and  C_14
REMARK    5  A    between atoms: N_7  and  C_10
REMARK                            x       y       z     vdW  Elec       q    Type
REMARK                         _______ _______ _______ _____ _____    ______ ____
ROOT
ATOM      2  O   UNL     1      -1.048   2.885  25.105  0.00  0.00    -0.370 OA
ATOM      3  O   UNL     1      -2.378   0.300  24.102  0.00  0.00    -0.370 OA
ATOM      8  C   UNL     1      -1.292   1.089  23.574  0.00  0.00    +0.170 C 
ATOM      9  C   UNL     1      -1.634   2.541  23.839  0.00  0.00    +0.179 C 
ATOM     10  C   UNL     1      -0.043   0.855  24.387  0.00  0.00    +0.133 C 
ATOM     11  C   UNL     1      -3.142   2.516  23.910  0.00  0.00    +0.175 C 
ATOM     12  C   UNL     1      -0.221   1.802  25.557  0.00  0.00    +0.183 C 
ATOM     13  C   UNL     1      -3.407   1.183  24.572  0.00  0.00    +0.194 C 
ENDROOT
BRANCH  11   4
ATOM      4  O   UNL     1      -3.690   3.590  24.641  0.00  0.00    -0.375 OA
ATOM     14  C   UNL     1      -4.751   3.168  25.494  0.00  0.00    +0.194 C 
ENDBRANCH  11   4
BRANCH  10   7
ATOM      7  N   UNL     1       1.153   1.246  23.603  0.00  0.00    -0.187 NA
ATOM     16  H   UNL     1       1.186   2.209  23.247  0.00  0.00    +0.148 HD
BRANCH   7   1
ATOM      1  S   UNL     1       2.045   0.036  22.804  0.00  0.00    +0.027 S 
ATOM      5  O   UNL     1       1.489  -0.201  21.485  0.00  0.00    -0.158 OA
ATOM      6  O   UNL     1       2.251  -1.061  23.730  0.00  0.00    -0.158 OA
ATOM     15  C   UNL     1       3.608   0.860  22.599  0.00  0.00    +0.214 C 
ENDBRANCH   7   1
ENDBRANCH  10   7
TORSDOF 3
ENDMDL
MODEL 9
REMARK VINA RESULT:      -3.6      2.651      3.480
REMARK  Name = 11883315
REMARK  5 active torsions:
REMARK  status: ('A' for Active; 'I' for Inactive)
REMARK    1  A    between atoms: S_1  and  N_7
REMARK    2  A    between atoms: S_1  and  C_15
REMARK    3  A    between atoms: O_4  and  C_11
REMARK    4  A    between atoms: O_4  and  C_14
REMARK    5  A    between atoms: N_7  and  C_10
REMARK                            x       y       z     vdW  Elec       q    Type
REMARK                         _______ _______ _______ _____ _____    ______ ____
ROOT
ATOM      2  O   UNL     1      -4.244   2.342  23.723  0.00  0.00    -0.370 OA
ATOM      3  O   UNL     1      -2.133   3.808  25.412  0.00  0.00    -0.370 OA
ATOM      8  C   UNL     1      -2.241   2.431  24.993  0.00  0.00    +0.170 C 
ATOM      9  C   UNL     1      -3.714   2.075  25.032  0.00  0.00    +0.179 C 
ATOM     10  C   UNL     1      -1.875   2.307  23.535  0.00  0.00    +0.133 C 
ATOM     11  C   UNL     1      -4.258   3.037  26.061  0.00  0.00    +0.175 C 
ATOM     12  C   UNL     1      -3.168   2.670  22.831  0.00  0.00    +0.183 C 
ATOM     13  C   UNL     1      -3.431   4.276  25.807  0.00  0.00    +0.194 C 
ENDROOT
BRANCH  11   4
ATOM      4  O   UNL     1      -5.639   3.284  25.927  0.00  0.00    -0.375 OA
ATOM     14  C   UNL     1      -6.416   2.110  26.152  0.00  0.00    +0.194 C 
ENDBRANCH  11   4
BRANCH  10   7
ATOM      7  N   UNL     1      -1.511   0.904  23.222  0.00  0.00    -0.187 NA
ATOM     16  H   UNL     1      -2.278   0.261  22.991  0.00  0.00    +0.148 HD
BRANCH   7   1
ATOM      1  S   UNL     1      -0.059   0.273  23.847  0.00  0.00    +0.027 S 
ATOM      5  O   UNL     1       0.743  -0.282  22.774  0.00  0.00    -0.158 OA
ATOM      6  O   UNL     1      -0.376  -0.517  25.021  0.00  0.00    -0.158 OA
ATOM     15  C   UNL     1       0.734   1.763  24.408  0.00  0.00    +0.214 C 
ENDBRANCH   7   1
ENDBRANCH  10   7
TORSDOF 3
ENDMDL
MODEL 10
REMARK VINA RESULT:      -3.1      2.697      4.034
REMARK  Name = 11883315
REMARK  5 active torsions:
REMARK  status: ('A' for Active; 'I' for Inactive)
REMARK    1  A    between atoms: S_1  and  N_7
REMARK    2  A    between atoms: S_1  and  C_15
REMARK    3  A    between atoms: O_4  and  C_11
REMARK    4  A    between atoms: O_4  and  C_14
REMARK    5  A    between atoms: N_7  and  C_10
REMARK                            x       y       z     vdW  Elec       q    Type
REMARK                         _______ _______ _______ _____ _____    ______ ____
ROOT
ATOM      2  O   UNL     1      -2.513   2.769  25.032  0.00  0.00    -0.370 OA
ATOM      3  O   UNL     1      -4.100   0.232  24.318  0.00  0.00    -0.370 OA
ATOM      8  C   UNL     1      -3.119   0.992  23.580  0.00  0.00    +0.170 C 
ATOM      9  C   UNL     1      -3.355   2.452  23.911  0.00  0.00    +0.179 C 
ATOM     10  C   UNL     1      -1.739   0.714  24.122  0.00  0.00    +0.133 C 
ATOM     11  C   UNL     1      -4.817   2.472  24.288  0.00  0.00    +0.175 C 
ATOM     12  C   UNL     1      -1.646   1.657  25.305  0.00  0.00    +0.183 C 
ATOM     13  C   UNL     1      -4.984   1.142  24.988  0.00  0.00    +0.194 C 
ENDROOT
BRANCH  11   4
ATOM      4  O   UNL     1      -5.171   3.556  25.116  0.00  0.00    -0.375 OA
ATOM     14  C   UNL     1      -5.796   3.124  26.323  0.00  0.00    +0.194 C 
ENDBRANCH  11   4
BRANCH  10   7
ATOM      7  N   UNL     1      -0.716   1.075  23.112  0.00  0.00    -0.187 NA
ATOM     16  H   UNL     1      -1.054   1.443  22.214  0.00  0.00    +0.148 HD
BRANCH   7   1
ATOM      1  S   UNL     1       0.808   0.319  23.178  0.00  0.00    +0.027 S 
ATOM      5  O   UNL     1       1.765   1.189  23.835  0.00  0.00    -0.158 OA
ATOM      6  O   UNL     1       1.092  -0.244  21.872  0.00  0.00    -0.158 OA
ATOM     15  C   UNL     1       0.456  -1.036  24.276  0.00  0.00    +0.214 C 
ENDBRANCH   7   1
ENDBRANCH  10   7
TORSDOF 3
ENDMDL
