MODEL 1
REMARK VINA RESULT:      -2.4      0.000      0.000
REMARK  Name = 11866364
REMARK  13 active torsions:
REMARK  status: ('A' for Active; 'I' for Inactive)
REMARK    1  A    between atoms: O_1  and  C_11
REMARK    2  A    between atoms: O_2  and  C_14
REMARK    3  A    between atoms: O_3  and  C_16
REMARK    4  A    between atoms: N_7  and  C_12
REMARK    5  A    between atoms: N_8  and  C_18
REMARK    6  A    between atoms: N_10  and  C_20
REMARK    7  A    between atoms: N_10  and  C_29
REMARK    8  A    between atoms: C_11  and  C_17
REMARK    9  A    between atoms: C_19  and  C_20
REMARK   10  A    between atoms: C_20  and  C_22
REMARK   11  A    between atoms: C_22  and  C_25
REMARK   12  A    between atoms: C_25  and  C_27
REMARK   13  A    between atoms: C_25  and  C_28
REMARK                            x       y       z     vdW  Elec       q    Type
REMARK                         _______ _______ _______ _____ _____    ______ ____
ROOT
ATOM     11  C   UNL     1      -0.194  -0.033  23.420  0.00  0.00    +0.146 C 
ATOM     12  C   UNL     1      -2.558   0.622  24.084  0.00  0.00    +0.107 C 
ATOM     13  C   UNL     1      -1.084   1.040  24.052  0.00  0.00    +0.069 C 
ATOM     14  C   UNL     1      -2.749  -0.746  24.754  0.00  0.00    +0.163 C 
ATOM     15  C   UNL     1      -0.378  -1.384  24.109  0.00  0.00    +0.078 C 
ATOM     16  C   UNL     1      -1.844  -1.817  24.139  0.00  0.00    +0.148 C 
ENDROOT
BRANCH  11  17
ATOM      4  O   UNL     1       1.597   1.465  23.927  0.00  0.00    -0.273 OA
ATOM      8  N   UNL     1       2.087  -0.581  22.930  0.00  0.00    -0.302 N 
ATOM     17  C   UNL     1       1.249   0.380  23.469  0.00  0.00    +0.245 C 
ATOM     32  H   UNL     1       1.701  -1.451  22.577  0.00  0.00    +0.150 HD
BRANCH   8  18
ATOM      6  O   UNL     1       3.679  -2.433  24.158  0.00  0.00    -0.274 OA
ATOM      9  N   UNL     1       5.371  -0.916  24.384  0.00  0.00    -0.314 N 
ATOM     18  C   UNL     1       3.514  -0.418  22.838  0.00  0.00    +0.159 C 
ATOM     21  C   UNL     1       3.903   1.048  22.970  0.00  0.00    +0.033 C 
ATOM     23  C   UNL     1       5.417   1.170  23.045  0.00  0.00    +0.021 C 
ATOM     24  C   UNL     1       4.160  -1.334  23.873  0.00  0.00    +0.233 C 
ATOM     26  C   UNL     1       5.913   0.426  24.271  0.00  0.00    +0.104 C 
ATOM     35  H   UNL     1       5.838  -1.545  25.030  0.00  0.00    +0.149 HD
ENDBRANCH   8  18
ENDBRANCH  11  17
BRANCH  12   7
ATOM      5  O   UNL     1      -4.013   2.800  22.871  0.00  0.00    -0.274 OA
ATOM      7  N   UNL     1      -3.338   1.634  24.762  0.00  0.00    -0.309 N 
ATOM     19  C   UNL     1      -4.006   2.647  24.090  0.00  0.00    +0.230 C 
ATOM     30  H   UNL     1      -3.348   1.623  25.778  0.00  0.00    +0.149 HD
BRANCH  19  20
ATOM     20  C   UNL     1      -4.725   3.601  25.038  0.00  0.00    +0.140 C 
BRANCH  20  10
ATOM     10  N   UNL     1      -5.548   2.753  25.904  0.00  0.00    -0.309 NA
ATOM     29  C   UNL     1      -6.398   1.882  25.107  0.00  0.00    +0.101 C 
ATOM     36  H   UNL     1      -4.969   2.212  26.544  0.00  0.00    +0.122 HD
ENDBRANCH  20  10
BRANCH  20  22
ATOM     22  C   UNL     1      -3.745   4.429  25.888  0.00  0.00    +0.031 C 
BRANCH  22  25
ATOM     25  C   UNL     1      -2.269   4.320  25.451  0.00  0.00    -0.015 C 
ATOM     27  C   UNL     1      -1.460   3.608  26.540  0.00  0.00    +0.007 C 
ATOM     28  C   UNL     1      -1.643   5.684  25.154  0.00  0.00    +0.007 C 
ENDBRANCH  22  25
ENDBRANCH  20  22
ENDBRANCH  19  20
ENDBRANCH  12   7
BRANCH  11   1
ATOM      1  O   UNL     1      -0.489  -0.172  22.035  0.00  0.00    -0.379 OA
ATOM     31  H   UNL     1       0.123  -0.827  21.657  0.00  0.00    +0.211 HD
ENDBRANCH  11   1
BRANCH  14   2
ATOM      2  O   UNL     1      -4.103  -1.169  24.575  0.00  0.00    -0.387 OA
ATOM     33  H   UNL     1      -4.681  -0.528  25.024  0.00  0.00    +0.210 HD
ENDBRANCH  14   2
BRANCH  16   3
ATOM      3  O   UNL     1      -1.957  -3.007  24.922  0.00  0.00    -0.389 OA
ATOM     34  H   UNL     1      -2.885  -3.090  25.197  0.00  0.00    +0.210 HD
ENDBRANCH  16   3
TORSDOF 10
ENDMDL
MODEL 2
REMARK VINA RESULT:      -1.3     14.865     17.505
REMARK  Name = 11866364
REMARK  13 active torsions:
REMARK  status: ('A' for Active; 'I' for Inactive)
REMARK    1  A    between atoms: O_1  and  C_11
REMARK    2  A    between atoms: O_2  and  C_14
REMARK    3  A    between atoms: O_3  and  C_16
REMARK    4  A    between atoms: N_7  and  C_12
REMARK    5  A    between atoms: N_8  and  C_18
REMARK    6  A    between atoms: N_10  and  C_20
REMARK    7  A    between atoms: N_10  and  C_29
REMARK    8  A    between atoms: C_11  and  C_17
REMARK    9  A    between atoms: C_19  and  C_20
REMARK   10  A    between atoms: C_20  and  C_22
REMARK   11  A    between atoms: C_22  and  C_25
REMARK   12  A    between atoms: C_25  and  C_27
REMARK   13  A    between atoms: C_25  and  C_28
REMARK                            x       y       z     vdW  Elec       q    Type
REMARK                         _______ _______ _______ _____ _____    ______ ____
ROOT
ATOM     11  C   UNL     1      13.686  -8.123  31.391  0.00  0.00    +0.146 C 
ATOM     12  C   UNL     1      11.396  -7.494  32.297  0.00  0.00    +0.107 C 
ATOM     13  C   UNL     1      12.196  -8.469  31.425  0.00  0.00    +0.069 C 
ATOM     14  C   UNL     1      11.634  -6.035  31.888  0.00  0.00    +0.163 C 
ATOM     15  C   UNL     1      13.910  -6.674  30.962  0.00  0.00    +0.078 C 
ATOM     16  C   UNL     1      13.125  -5.690  31.831  0.00  0.00    +0.148 C 
ENDROOT
BRANCH  11  17
ATOM      4  O   UNL     1      14.655 -10.219  30.781  0.00  0.00    -0.273 OA
ATOM      8  N   UNL     1      14.809  -8.433  29.297  0.00  0.00    -0.302 N 
ATOM     17  C   UNL     1      14.424  -9.054  30.473  0.00  0.00    +0.245 C 
ATOM     32  H   UNL     1      14.569  -7.460  29.134  0.00  0.00    +0.150 HD
BRANCH   8  18
ATOM      6  O   UNL     1      16.564  -6.958  27.808  0.00  0.00    -0.274 OA
ATOM      9  N   UNL     1      16.362  -8.392  26.042  0.00  0.00    -0.314 N 
ATOM     18  C   UNL     1      15.550  -9.102  28.260  0.00  0.00    +0.159 C 
ATOM     21  C   UNL     1      14.673 -10.109  27.529  0.00  0.00    +0.033 C 
ATOM     23  C   UNL     1      15.426 -10.669  26.333  0.00  0.00    +0.021 C 
ATOM     24  C   UNL     1      16.166  -8.036  27.360  0.00  0.00    +0.233 C 
ATOM     26  C   UNL     1      15.758  -9.535  25.381  0.00  0.00    +0.104 C 
ATOM     35  H   UNL     1      16.824  -7.712  25.446  0.00  0.00    +0.149 HD
ENDBRANCH   8  18
ENDBRANCH  11  17
BRANCH  12   7
ATOM      5  O   UNL     1      10.168 -10.042  32.873  0.00  0.00    -0.274 OA
ATOM      7  N   UNL     1       9.988  -7.819  32.228  0.00  0.00    -0.309 N 
ATOM     19  C   UNL     1       9.489  -9.079  32.525  0.00  0.00    +0.230 C 
ATOM     30  H   UNL     1       9.352  -7.100  31.897  0.00  0.00    +0.149 HD
BRANCH  19  20
ATOM     20  C   UNL     1       7.978  -9.166  32.342  0.00  0.00    +0.140 C 
BRANCH  20  10
ATOM     10  N   UNL     1       7.442  -7.910  32.873  0.00  0.00    -0.309 NA
ATOM     29  C   UNL     1       6.080  -7.698  32.410  0.00  0.00    +0.101 C 
ATOM     36  H   UNL     1       7.488  -7.894  33.891  0.00  0.00    +0.122 HD
ENDBRANCH  20  10
BRANCH  20  22
ATOM     22  C   UNL     1       7.576  -9.328  30.866  0.00  0.00    +0.031 C 
BRANCH  22  25
ATOM     25  C   UNL     1       8.062 -10.639  30.211  0.00  0.00    -0.015 C 
ATOM     27  C   UNL     1       9.575 -10.781  30.402  0.00  0.00    +0.007 C 
ATOM     28  C   UNL     1       7.722 -10.710  28.721  0.00  0.00    +0.007 C 
ENDBRANCH  22  25
ENDBRANCH  20  22
ENDBRANCH  19  20
ENDBRANCH  12   7
BRANCH  11   1
ATOM      1  O   UNL     1      14.274  -8.326  32.671  0.00  0.00    -0.379 OA
ATOM     31  H   UNL     1      14.617  -7.473  32.988  0.00  0.00    +0.211 HD
ENDBRANCH  11   1
BRANCH  14   2
ATOM      2  O   UNL     1      11.028  -5.173  32.854  0.00  0.00    -0.387 OA
ATOM     33  H   UNL     1      11.696  -4.958  33.528  0.00  0.00    +0.210 HD
ENDBRANCH  14   2
BRANCH  16   3
ATOM      3  O   UNL     1      13.265  -4.379  31.283  0.00  0.00    -0.389 OA
ATOM     34  H   UNL     1      13.816  -3.863  31.895  0.00  0.00    +0.210 HD
ENDBRANCH  16   3
TORSDOF 10
ENDMDL
MODEL 3
REMARK VINA RESULT:      -0.5      1.144      2.339
REMARK  Name = 11866364
REMARK  13 active torsions:
REMARK  status: ('A' for Active; 'I' for Inactive)
REMARK    1  A    between atoms: O_1  and  C_11
REMARK    2  A    between atoms: O_2  and  C_14
REMARK    3  A    between atoms: O_3  and  C_16
REMARK    4  A    between atoms: N_7  and  C_12
REMARK    5  A    between atoms: N_8  and  C_18
REMARK    6  A    between atoms: N_10  and  C_20
REMARK    7  A    between atoms: N_10  and  C_29
REMARK    8  A    between atoms: C_11  and  C_17
REMARK    9  A    between atoms: C_19  and  C_20
REMARK   10  A    between atoms: C_20  and  C_22
REMARK   11  A    between atoms: C_22  and  C_25
REMARK   12  A    between atoms: C_25  and  C_27
REMARK   13  A    between atoms: C_25  and  C_28
REMARK                            x       y       z     vdW  Elec       q    Type
REMARK                         _______ _______ _______ _____ _____    ______ ____
ROOT
ATOM     11  C   UNL     1      -0.026   0.134  23.323  0.00  0.00    +0.146 C 
ATOM     12  C   UNL     1      -2.377   0.993  23.764  0.00  0.00    +0.107 C 
ATOM     13  C   UNL     1      -0.880   1.320  23.777  0.00  0.00    +0.069 C 
ATOM     14  C   UNL     1      -2.691  -0.277  24.566  0.00  0.00    +0.163 C 
ATOM     15  C   UNL     1      -0.333  -1.117  24.144  0.00  0.00    +0.078 C 
ATOM     16  C   UNL     1      -1.823  -1.461  24.131  0.00  0.00    +0.148 C 
ENDROOT
BRANCH  11  17
ATOM      4  O   UNL     1       1.828   1.525  23.900  0.00  0.00    -0.273 OA
ATOM      8  N   UNL     1       2.234  -0.528  22.883  0.00  0.00    -0.302 N 
ATOM     17  C   UNL     1       1.434   0.468  23.416  0.00  0.00    +0.245 C 
ATOM     32  H   UNL     1       1.812  -1.371  22.505  0.00  0.00    +0.150 HD
BRANCH   8  18
ATOM      6  O   UNL     1       3.692  -2.437  24.188  0.00  0.00    -0.274 OA
ATOM      9  N   UNL     1       5.454  -1.005  24.437  0.00  0.00    -0.314 N 
ATOM     18  C   UNL     1       3.670  -0.441  22.830  0.00  0.00    +0.159 C 
ATOM     21  C   UNL     1       4.131   1.005  22.947  0.00  0.00    +0.033 C 
ATOM     23  C   UNL     1       5.646   1.050  23.065  0.00  0.00    +0.021 C 
ATOM     24  C   UNL     1       4.237  -1.369  23.899  0.00  0.00    +0.233 C 
ATOM     26  C   UNL     1       6.068   0.305  24.317  0.00  0.00    +0.104 C 
ATOM     35  H   UNL     1       5.869  -1.645  25.108  0.00  0.00    +0.149 HD
ENDBRANCH   8  18
ENDBRANCH  11  17
BRANCH  12   7
ATOM      5  O   UNL     1      -1.810   2.525  26.143  0.00  0.00    -0.274 OA
ATOM      7  N   UNL     1      -3.129   2.117  24.276  0.00  0.00    -0.309 N 
ATOM     19  C   UNL     1      -2.777   2.795  25.435  0.00  0.00    +0.230 C 
ATOM     30  H   UNL     1      -3.979   2.381  23.786  0.00  0.00    +0.149 HD
BRANCH  19  20
ATOM     20  C   UNL     1      -3.752   3.917  25.773  0.00  0.00    +0.140 C 
BRANCH  20  10
ATOM     10  N   UNL     1      -3.262   5.096  25.055  0.00  0.00    -0.309 NA
ATOM     29  C   UNL     1      -1.822   5.226  25.208  0.00  0.00    +0.101 C 
ATOM     36  H   UNL     1      -3.523   5.061  24.071  0.00  0.00    +0.122 HD
ENDBRANCH  20  10
BRANCH  20  22
ATOM     22  C   UNL     1      -5.191   3.594  25.336  0.00  0.00    +0.031 C 
BRANCH  22  25
ATOM     25  C   UNL     1      -5.644   2.150  25.643  0.00  0.00    -0.015 C 
ATOM     27  C   UNL     1      -6.611   1.671  24.556  0.00  0.00    +0.007 C 
ATOM     28  C   UNL     1      -6.307   2.024  27.015  0.00  0.00    +0.007 C 
ENDBRANCH  22  25
ENDBRANCH  20  22
ENDBRANCH  19  20
ENDBRANCH  12   7
BRANCH  11   1
ATOM      1  O   UNL     1      -0.253  -0.145  21.946  0.00  0.00    -0.379 OA
ATOM     31  H   UNL     1      -0.960   0.443  21.628  0.00  0.00    +0.211 HD
ENDBRANCH  11   1
BRANCH  14   2
ATOM      2  O   UNL     1      -4.057  -0.641  24.352  0.00  0.00    -0.387 OA
ATOM     33  H   UNL     1      -4.616  -0.021  24.851  0.00  0.00    +0.210 HD
ENDBRANCH  14   2
BRANCH  16   3
ATOM      3  O   UNL     1      -2.053  -2.546  25.031  0.00  0.00    -0.389 OA
ATOM     34  H   UNL     1      -1.295  -2.589  25.638  0.00  0.00    +0.210 HD
ENDBRANCH  16   3
TORSDOF 10
ENDMDL
MODEL 4
REMARK VINA RESULT:       0.6      1.887      3.903
REMARK  Name = 11866364
REMARK  13 active torsions:
REMARK  status: ('A' for Active; 'I' for Inactive)
REMARK    1  A    between atoms: O_1  and  C_11
REMARK    2  A    between atoms: O_2  and  C_14
REMARK    3  A    between atoms: O_3  and  C_16
REMARK    4  A    between atoms: N_7  and  C_12
REMARK    5  A    between atoms: N_8  and  C_18
REMARK    6  A    between atoms: N_10  and  C_20
REMARK    7  A    between atoms: N_10  and  C_29
REMARK    8  A    between atoms: C_11  and  C_17
REMARK    9  A    between atoms: C_19  and  C_20
REMARK   10  A    between atoms: C_20  and  C_22
REMARK   11  A    between atoms: C_22  and  C_25
REMARK   12  A    between atoms: C_25  and  C_27
REMARK   13  A    between atoms: C_25  and  C_28
REMARK                            x       y       z     vdW  Elec       q    Type
REMARK                         _______ _______ _______ _____ _____    ______ ____
ROOT
ATOM     11  C   UNL     1       0.458   2.024  24.499  0.00  0.00    +0.146 C 
ATOM     12  C   UNL     1      -1.804   2.284  25.627  0.00  0.00    +0.107 C 
ATOM     13  C   UNL     1      -0.908   1.388  24.765  0.00  0.00    +0.069 C 
ATOM     14  C   UNL     1      -1.936   3.695  25.040  0.00  0.00    +0.163 C 
ATOM     15  C   UNL     1       0.313   3.419  23.895  0.00  0.00    +0.078 C 
ATOM     16  C   UNL     1      -0.571   4.327  24.752  0.00  0.00    +0.148 C 
ENDROOT
BRANCH  11  17
ATOM      4  O   UNL     1       0.782   0.540  22.655  0.00  0.00    -0.273 OA
ATOM      8  N   UNL     1       2.613   1.121  23.970  0.00  0.00    -0.302 N 
ATOM     17  C   UNL     1       1.281   1.152  23.595  0.00  0.00    +0.245 C 
ATOM     32  H   UNL     1       2.931   1.665  24.765  0.00  0.00    +0.150 HD
BRANCH   8  18
ATOM      6  O   UNL     1       2.423  -1.604  24.082  0.00  0.00    -0.274 OA
ATOM      9  N   UNL     1       4.671  -1.834  23.750  0.00  0.00    -0.314 N 
ATOM     18  C   UNL     1       3.607   0.341  23.279  0.00  0.00    +0.159 C 
ATOM     21  C   UNL     1       4.989   0.960  23.434  0.00  0.00    +0.033 C 
ATOM     23  C   UNL     1       6.036   0.028  22.847  0.00  0.00    +0.021 C 
ATOM     24  C   UNL     1       3.505  -1.098  23.776  0.00  0.00    +0.233 C 
ATOM     26  C   UNL     1       6.008  -1.287  23.604  0.00  0.00    +0.104 C 
ATOM     35  H   UNL     1       4.604  -2.809  24.024  0.00  0.00    +0.149 HD
ENDBRANCH   8  18
ENDBRANCH  11  17
BRANCH  12   7
ATOM      5  O   UNL     1      -3.896   2.132  23.644  0.00  0.00    -0.274 OA
ATOM      7  N   UNL     1      -3.106   1.672  25.778  0.00  0.00    -0.309 N 
ATOM     19  C   UNL     1      -4.051   1.648  24.763  0.00  0.00    +0.230 C 
ATOM     30  H   UNL     1      -3.348   1.292  26.689  0.00  0.00    +0.149 HD
BRANCH  19  20
ATOM     20  C   UNL     1      -5.351   0.974  25.191  0.00  0.00    +0.140 C 
BRANCH  20  10
ATOM     10  N   UNL     1      -6.420   1.903  24.816  0.00  0.00    -0.309 NA
ATOM     29  C   UNL     1      -6.299   3.147  25.559  0.00  0.00    +0.101 C 
ATOM     36  H   UNL     1      -6.420   2.076  23.812  0.00  0.00    +0.122 HD
ENDBRANCH  20  10
BRANCH  20  22
ATOM     22  C   UNL     1      -5.562  -0.382  24.495  0.00  0.00    +0.031 C 
BRANCH  22  25
ATOM     25  C   UNL     1      -4.273  -1.207  24.297  0.00  0.00    -0.015 C 
ATOM     27  C   UNL     1      -4.596  -2.492  23.528  0.00  0.00    +0.007 C 
ATOM     28  C   UNL     1      -3.592  -1.557  25.621  0.00  0.00    +0.007 C 
ENDBRANCH  22  25
ENDBRANCH  20  22
ENDBRANCH  19  20
ENDBRANCH  12   7
BRANCH  11   1
ATOM      1  O   UNL     1       1.208   2.114  25.705  0.00  0.00    -0.379 OA
ATOM     31  H   UNL     1       0.621   2.448  26.405  0.00  0.00    +0.211 HD
ENDBRANCH  11   1
BRANCH  14   2
ATOM      2  O   UNL     1      -2.610   4.533  25.982  0.00  0.00    -0.387 OA
ATOM     33  H   UNL     1      -1.943   5.087  26.424  0.00  0.00    +0.210 HD
ENDBRANCH  14   2
BRANCH  16   3
ATOM      3  O   UNL     1      -0.780   5.557  24.056  0.00  0.00    -0.389 OA
ATOM     34  H   UNL     1      -0.260   6.242  24.509  0.00  0.00    +0.210 HD
ENDBRANCH  16   3
TORSDOF 10
ENDMDL
