MODEL 1
REMARK VINA RESULT:      -4.9      0.000      0.000
REMARK  Name = 28962298
REMARK  11 active torsions:
REMARK  status: ('A' for Active; 'I' for Inactive)
REMARK    1  A    between atoms: O_2  and  C_10
REMARK    2  A    between atoms: O_4  and  C_14
REMARK    3  A    between atoms: N_5  and  C_8
REMARK    4  A    between atoms: N_5  and  C_15
REMARK    5  A    between atoms: N_5  and  C_16
REMARK    6  A    between atoms: N_6  and  C_12
REMARK    7  A    between atoms: N_6  and  C_13
REMARK    8  A    between atoms: C_9  and  C_12
REMARK    9  A    between atoms: C_11  and  C_14
REMARK   10  A    between atoms: C_15  and  C_19
REMARK   11  A    between atoms: C_19  and  C_22
REMARK                            x       y       z     vdW  Elec       q    Type
REMARK                         _______ _______ _______ _____ _____    ______ ____
ROOT
ATOM      1  O   UNL     1       0.193   1.018  23.598  0.00  0.00    -0.366 OA
ATOM      8  C   UNL     1      -1.240  -0.832  24.036  0.00  0.00    +0.118 C 
ATOM      9  C   UNL     1      -0.971   0.642  24.368  0.00  0.00    +0.152 C 
ATOM     10  C   UNL     1       0.133  -1.348  23.632  0.00  0.00    +0.165 C 
ATOM     11  C   UNL     1       0.681  -0.137  22.889  0.00  0.00    +0.174 C 
ENDROOT
BRANCH  10   2
ATOM      2  O   UNL     1       0.937  -1.636  24.770  0.00  0.00    -0.388 OA
ATOM     28  H   UNL     1       0.509  -1.230  25.543  0.00  0.00    +0.210 HD
ENDBRANCH  10   2
BRANCH   8   5
ATOM      5  N   UNL     1      -1.917  -1.607  25.061  0.00  0.00    -0.297 NA
ATOM     16  C   UNL     1      -2.480  -2.838  24.499  0.00  0.00    +0.105 C 
BRANCH   5  15
ATOM     15  C   UNL     1      -2.973  -0.816  25.701  0.00  0.00    +0.090 C 
BRANCH  15  19
ATOM     19  C   UNL     1      -4.119  -0.542  24.726  0.00  0.00    +0.071 C 
BRANCH  19  22
ATOM      7  N   UNL     1      -5.486   1.139  25.836  0.00  0.00    -0.260 NA
ATOM     22  C   UNL     1      -4.613   0.878  24.837  0.00  0.00    +0.042 A 
ATOM     23  C   UNL     1      -4.161   1.825  23.935  0.00  0.00    +0.023 A 
ATOM     24  C   UNL     1      -4.635   3.127  24.065  0.00  0.00    +0.003 A 
ATOM     25  C   UNL     1      -5.925   2.414  25.931  0.00  0.00    +0.111 A 
ATOM     26  C   UNL     1      -5.534   3.434  25.078  0.00  0.00    +0.020 A 
ENDBRANCH  19  22
ENDBRANCH  15  19
ENDBRANCH   5  15
ENDBRANCH   8   5
BRANCH   9  12
ATOM     12  C   UNL     1      -0.675   0.973  25.826  0.00  0.00    +0.114 C 
BRANCH  12   6
ATOM      6  N   UNL     1       0.295   2.053  25.930  0.00  0.00    -0.311 NA
ATOM     27  H   UNL     1       0.877   1.894  26.753  0.00  0.00    +0.122 HD
BRANCH   6  13
ATOM      3  O   UNL     1      -2.386   5.169  25.084  0.00  0.00    -0.380 OA
ATOM     13  C   UNL     1      -0.372   3.348  26.037  0.00  0.00    +0.058 C 
ATOM     17  C   UNL     1      -0.214   4.138  24.736  0.00  0.00    +0.047 C 
ATOM     18  C   UNL     1      -1.857   3.176  26.370  0.00  0.00    +0.047 C 
ATOM     20  C   UNL     1      -1.013   5.435  24.803  0.00  0.00    +0.161 C 
ATOM     21  C   UNL     1      -2.565   4.527  26.346  0.00  0.00    +0.161 C 
ENDBRANCH   6  13
ENDBRANCH  12   6
ENDBRANCH   9  12
BRANCH  11  14
ATOM     14  C   UNL     1       2.194  -0.061  22.788  0.00  0.00    +0.190 C 
BRANCH  14   4
ATOM      4  O   UNL     1       2.621   1.211  23.248  0.00  0.00    -0.392 OA
ATOM     29  H   UNL     1       1.866   1.817  23.158  0.00  0.00    +0.210 HD
ENDBRANCH  14   4
ENDBRANCH  11  14
TORSDOF 10
ENDMDL
MODEL 2
REMARK VINA RESULT:      -4.6      2.334      6.939
REMARK  Name = 28962298
REMARK  11 active torsions:
REMARK  status: ('A' for Active; 'I' for Inactive)
REMARK    1  A    between atoms: O_2  and  C_10
REMARK    2  A    between atoms: O_4  and  C_14
REMARK    3  A    between atoms: N_5  and  C_8
REMARK    4  A    between atoms: N_5  and  C_15
REMARK    5  A    between atoms: N_5  and  C_16
REMARK    6  A    between atoms: N_6  and  C_12
REMARK    7  A    between atoms: N_6  and  C_13
REMARK    8  A    between atoms: C_9  and  C_12
REMARK    9  A    between atoms: C_11  and  C_14
REMARK   10  A    between atoms: C_15  and  C_19
REMARK   11  A    between atoms: C_19  and  C_22
REMARK                            x       y       z     vdW  Elec       q    Type
REMARK                         _______ _______ _______ _____ _____    ______ ____
ROOT
ATOM      1  O   UNL     1      -4.680   2.482  24.357  0.00  0.00    -0.366 OA
ATOM      8  C   UNL     1      -2.678   3.767  24.426  0.00  0.00    +0.118 C 
ATOM      9  C   UNL     1      -3.257   2.376  24.132  0.00  0.00    +0.152 C 
ATOM     10  C   UNL     1      -3.684   4.357  25.402  0.00  0.00    +0.165 C 
ATOM     11  C   UNL     1      -4.985   3.807  24.831  0.00  0.00    +0.174 C 
ENDROOT
BRANCH  10   2
ATOM      2  O   UNL     1      -3.478   3.870  26.722  0.00  0.00    -0.388 OA
ATOM     28  H   UNL     1      -2.533   3.967  26.928  0.00  0.00    +0.210 HD
ENDBRANCH  10   2
BRANCH   8   5
ATOM      5  N   UNL     1      -1.294   3.805  24.864  0.00  0.00    -0.297 NA
ATOM     16  C   UNL     1      -0.835   5.189  25.024  0.00  0.00    +0.105 C 
BRANCH   5  15
ATOM     15  C   UNL     1      -0.427   3.094  23.920  0.00  0.00    +0.090 C 
BRANCH  15  19
ATOM     19  C   UNL     1       0.422   2.044  24.639  0.00  0.00    +0.071 C 
BRANCH  19  22
ATOM      7  N   UNL     1       2.541   1.558  23.543  0.00  0.00    -0.260 NA
ATOM     22  C   UNL     1       1.235   1.229  23.666  0.00  0.00    +0.042 A 
ATOM     23  C   UNL     1       0.624   0.205  22.962  0.00  0.00    +0.023 A 
ATOM     24  C   UNL     1       1.402  -0.529  22.073  0.00  0.00    +0.003 A 
ATOM     25  C   UNL     1       3.265   0.823  22.670  0.00  0.00    +0.111 A 
ATOM     26  C   UNL     1       2.748  -0.221  21.919  0.00  0.00    +0.020 A 
ENDBRANCH  19  22
ENDBRANCH  15  19
ENDBRANCH   5  15
ENDBRANCH   8   5
BRANCH   9  12
ATOM     12  C   UNL     1      -2.747   1.226  24.992  0.00  0.00    +0.114 C 
BRANCH  12   6
ATOM      6  N   UNL     1      -3.842   0.366  25.416  0.00  0.00    -0.311 NA
ATOM     27  H   UNL     1      -4.091   0.601  26.377  0.00  0.00    +0.122 HD
BRANCH   6  13
ATOM      3  O   UNL     1      -2.244  -3.185  23.846  0.00  0.00    -0.380 OA
ATOM     13  C   UNL     1      -3.464  -1.042  25.333  0.00  0.00    +0.058 C 
ATOM     17  C   UNL     1      -4.153  -1.710  24.141  0.00  0.00    +0.047 C 
ATOM     18  C   UNL     1      -1.944  -1.198  25.215  0.00  0.00    +0.047 C 
ATOM     20  C   UNL     1      -3.664  -3.146  23.981  0.00  0.00    +0.161 C 
ATOM     21  C   UNL     1      -1.578  -2.663  24.996  0.00  0.00    +0.161 C 
ENDBRANCH   6  13
ENDBRANCH  12   6
ENDBRANCH   9  12
BRANCH  11  14
ATOM     14  C   UNL     1      -6.148   3.736  25.804  0.00  0.00    +0.190 C 
BRANCH  14   4
ATOM      4  O   UNL     1      -6.104   2.491  26.482  0.00  0.00    -0.392 OA
ATOM     29  H   UNL     1      -6.235   1.796  25.815  0.00  0.00    +0.210 HD
ENDBRANCH  14   4
ENDBRANCH  11  14
TORSDOF 10
ENDMDL
MODEL 3
REMARK VINA RESULT:      -4.5      2.196      5.178
REMARK  Name = 28962298
REMARK  11 active torsions:
REMARK  status: ('A' for Active; 'I' for Inactive)
REMARK    1  A    between atoms: O_2  and  C_10
REMARK    2  A    between atoms: O_4  and  C_14
REMARK    3  A    between atoms: N_5  and  C_8
REMARK    4  A    between atoms: N_5  and  C_15
REMARK    5  A    between atoms: N_5  and  C_16
REMARK    6  A    between atoms: N_6  and  C_12
REMARK    7  A    between atoms: N_6  and  C_13
REMARK    8  A    between atoms: C_9  and  C_12
REMARK    9  A    between atoms: C_11  and  C_14
REMARK   10  A    between atoms: C_15  and  C_19
REMARK   11  A    between atoms: C_19  and  C_22
REMARK                            x       y       z     vdW  Elec       q    Type
REMARK                         _______ _______ _______ _____ _____    ______ ____
ROOT
ATOM      1  O   UNL     1      -1.425  -1.035  23.538  0.00  0.00    -0.366 OA
ATOM      8  C   UNL     1      -1.057   1.136  24.442  0.00  0.00    +0.118 C 
ATOM      9  C   UNL     1      -0.577   0.125  23.392  0.00  0.00    +0.152 C 
ATOM     10  C   UNL     1      -1.683   0.251  25.509  0.00  0.00    +0.165 C 
ATOM     11  C   UNL     1      -2.328  -0.822  24.640  0.00  0.00    +0.174 C 
ENDROOT
BRANCH  10   2
ATOM      2  O   UNL     1      -0.695  -0.324  26.354  0.00  0.00    -0.388 OA
ATOM     28  H   UNL     1       0.085  -0.517  25.807  0.00  0.00    +0.210 HD
ENDBRANCH  10   2
BRANCH   8   5
ATOM      5  N   UNL     1      -0.065   2.081  24.924  0.00  0.00    -0.297 NA
ATOM     16  C   UNL     1      -0.161   2.241  26.378  0.00  0.00    +0.105 C 
BRANCH   5  15
ATOM     15  C   UNL     1      -0.218   3.381  24.263  0.00  0.00    +0.090 C 
BRANCH  15  19
ATOM     19  C   UNL     1      -1.146   4.297  25.063  0.00  0.00    +0.071 C 
BRANCH  19  22
ATOM      7  N   UNL     1      -3.000   3.310  23.831  0.00  0.00    -0.260 NA
ATOM     22  C   UNL     1      -2.575   3.821  25.009  0.00  0.00    +0.042 A 
ATOM     23  C   UNL     1      -3.368   3.925  26.140  0.00  0.00    +0.023 A 
ATOM     24  C   UNL     1      -4.681   3.476  26.057  0.00  0.00    +0.003 A 
ATOM     25  C   UNL     1      -4.282   2.885  23.789  0.00  0.00    +0.111 A 
ATOM     26  C   UNL     1      -5.155   2.945  24.864  0.00  0.00    +0.020 A 
ENDBRANCH  19  22
ENDBRANCH  15  19
ENDBRANCH   5  15
ENDBRANCH   8   5
BRANCH   9  12
ATOM     12  C   UNL     1       0.866  -0.352  23.511  0.00  0.00    +0.114 C 
BRANCH  12   6
ATOM      6  N   UNL     1       1.726   0.346  22.568  0.00  0.00    -0.311 NA
ATOM     27  H   UNL     1       1.375   0.186  21.623  0.00  0.00    +0.122 HD
BRANCH   6  13
ATOM      3  O   UNL     1       5.462  -0.521  24.274  0.00  0.00    -0.380 OA
ATOM     13  C   UNL     1       3.106  -0.123  22.669  0.00  0.00    +0.058 C 
ATOM     17  C   UNL     1       4.033   1.028  23.065  0.00  0.00    +0.047 C 
ATOM     18  C   UNL     1       3.225  -1.265  23.684  0.00  0.00    +0.047 C 
ATOM     20  C   UNL     1       5.451   0.514  23.291  0.00  0.00    +0.161 C 
ATOM     21  C   UNL     1       4.688  -1.652  23.876  0.00  0.00    +0.161 C 
ENDBRANCH   6  13
ENDBRANCH  12   6
ENDBRANCH   9  12
BRANCH  11  14
ATOM     14  C   UNL     1      -2.597  -2.147  25.330  0.00  0.00    +0.190 C 
BRANCH  14   4
ATOM      4  O   UNL     1      -3.578  -2.858  24.593  0.00  0.00    -0.392 OA
ATOM     29  H   UNL     1      -3.547  -2.526  23.680  0.00  0.00    +0.210 HD
ENDBRANCH  14   4
ENDBRANCH  11  14
TORSDOF 10
ENDMDL
MODEL 4
REMARK VINA RESULT:      -4.1      2.319      6.935
REMARK  Name = 28962298
REMARK  11 active torsions:
REMARK  status: ('A' for Active; 'I' for Inactive)
REMARK    1  A    between atoms: O_2  and  C_10
REMARK    2  A    between atoms: O_4  and  C_14
REMARK    3  A    between atoms: N_5  and  C_8
REMARK    4  A    between atoms: N_5  and  C_15
REMARK    5  A    between atoms: N_5  and  C_16
REMARK    6  A    between atoms: N_6  and  C_12
REMARK    7  A    between atoms: N_6  and  C_13
REMARK    8  A    between atoms: C_9  and  C_12
REMARK    9  A    between atoms: C_11  and  C_14
REMARK   10  A    between atoms: C_15  and  C_19
REMARK   11  A    between atoms: C_19  and  C_22
REMARK                            x       y       z     vdW  Elec       q    Type
REMARK                         _______ _______ _______ _____ _____    ______ ____
ROOT
ATOM      1  O   UNL     1      -3.735   3.252  23.450  0.00  0.00    -0.366 OA
ATOM      8  C   UNL     1      -1.512   2.865  24.209  0.00  0.00    +0.118 C 
ATOM      9  C   UNL     1      -2.552   2.480  23.147  0.00  0.00    +0.152 C 
ATOM     10  C   UNL     1      -2.371   3.309  25.383  0.00  0.00    +0.165 C 
ATOM     11  C   UNL     1      -3.507   4.013  24.651  0.00  0.00    +0.174 C 
ENDROOT
BRANCH  10   2
ATOM      2  O   UNL     1      -2.869   2.196  26.115  0.00  0.00    -0.388 OA
ATOM     28  H   UNL     1      -3.389   2.542  26.860  0.00  0.00    +0.210 HD
ENDBRANCH  10   2
BRANCH   8   5
ATOM      5  N   UNL     1      -0.510   1.861  24.519  0.00  0.00    -0.297 NA
ATOM     16  C   UNL     1       0.148   2.157  25.795  0.00  0.00    +0.105 C 
BRANCH   5  15
ATOM     15  C   UNL     1       0.487   1.771  23.447  0.00  0.00    +0.090 C 
BRANCH  15  19
ATOM     19  C   UNL     1       0.887   0.318  23.191  0.00  0.00    +0.071 C 
BRANCH  19  22
ATOM      7  N   UNL     1       2.840  -1.077  23.596  0.00  0.00    -0.260 NA
ATOM     22  C   UNL     1       2.383   0.140  23.225  0.00  0.00    +0.042 A 
ATOM     23  C   UNL     1       3.201   1.204  22.884  0.00  0.00    +0.023 A 
ATOM     24  C   UNL     1       4.577   1.007  22.925  0.00  0.00    +0.003 A 
ATOM     25  C   UNL     1       4.183  -1.231  23.625  0.00  0.00    +0.111 A 
ATOM     26  C   UNL     1       5.085  -0.230  23.302  0.00  0.00    +0.020 A 
ENDBRANCH  19  22
ENDBRANCH  15  19
ENDBRANCH   5  15
ENDBRANCH   8   5
BRANCH   9  12
ATOM     12  C   UNL     1      -2.968   1.014  23.097  0.00  0.00    +0.114 C 
BRANCH  12   6
ATOM      6  N   UNL     1      -3.801   0.669  24.238  0.00  0.00    -0.311 NA
ATOM     27  H   UNL     1      -3.647   1.355  24.977  0.00  0.00    +0.122 HD
BRANCH   6  13
ATOM      3  O   UNL     1      -2.334  -3.264  24.256  0.00  0.00    -0.380 OA
ATOM     13  C   UNL     1      -3.486  -0.669  24.732  0.00  0.00    +0.058 C 
ATOM     17  C   UNL     1      -4.180  -1.730  23.875  0.00  0.00    +0.047 C 
ATOM     18  C   UNL     1      -1.973  -0.909  24.740  0.00  0.00    +0.047 C 
ATOM     20  C   UNL     1      -3.753  -3.128  24.312  0.00  0.00    +0.161 C 
ATOM     21  C   UNL     1      -1.668  -2.353  25.130  0.00  0.00    +0.161 C 
ENDBRANCH   6  13
ENDBRANCH  12   6
ENDBRANCH   9  12
BRANCH  11  14
ATOM     14  C   UNL     1      -4.808   4.133  25.424  0.00  0.00    +0.190 C 
BRANCH  14   4
ATOM      4  O   UNL     1      -5.516   2.909  25.324  0.00  0.00    -0.392 OA
ATOM     29  H   UNL     1      -6.357   3.100  24.875  0.00  0.00    +0.210 HD
ENDBRANCH  14   4
ENDBRANCH  11  14
TORSDOF 10
ENDMDL
MODEL 5
REMARK VINA RESULT:      -4.0      2.498      6.026
REMARK  Name = 28962298
REMARK  11 active torsions:
REMARK  status: ('A' for Active; 'I' for Inactive)
REMARK    1  A    between atoms: O_2  and  C_10
REMARK    2  A    between atoms: O_4  and  C_14
REMARK    3  A    between atoms: N_5  and  C_8
REMARK    4  A    between atoms: N_5  and  C_15
REMARK    5  A    between atoms: N_5  and  C_16
REMARK    6  A    between atoms: N_6  and  C_12
REMARK    7  A    between atoms: N_6  and  C_13
REMARK    8  A    between atoms: C_9  and  C_12
REMARK    9  A    between atoms: C_11  and  C_14
REMARK   10  A    between atoms: C_15  and  C_19
REMARK   11  A    between atoms: C_19  and  C_22
REMARK                            x       y       z     vdW  Elec       q    Type
REMARK                         _______ _______ _______ _____ _____    ______ ____
ROOT
ATOM      1  O   UNL     1      -3.284  -0.525  25.007  0.00  0.00    -0.366 OA
ATOM      8  C   UNL     1      -0.934  -0.205  25.211  0.00  0.00    +0.118 C 
ATOM      9  C   UNL     1      -2.248   0.453  24.768  0.00  0.00    +0.152 C 
ATOM     10  C   UNL     1      -1.224  -1.690  25.050  0.00  0.00    +0.165 C 
ATOM     11  C   UNL     1      -2.682  -1.740  25.490  0.00  0.00    +0.174 C 
ENDROOT
BRANCH  10   2
ATOM      2  O   UNL     1      -1.102  -2.101  23.694  0.00  0.00    -0.388 OA
ATOM     28  H   UNL     1      -1.065  -3.072  23.683  0.00  0.00    +0.210 HD
ENDBRANCH  10   2
BRANCH   8   5
ATOM      5  N   UNL     1       0.273   0.265  24.554  0.00  0.00    -0.297 NA
ATOM     16  C   UNL     1       0.179   1.697  24.253  0.00  0.00    +0.105 C 
BRANCH   5  15
ATOM     15  C   UNL     1       0.527  -0.492  23.325  0.00  0.00    +0.090 C 
BRANCH  15  19
ATOM     19  C   UNL     1       1.567   0.211  22.453  0.00  0.00    +0.071 C 
BRANCH  19  22
ATOM      7  N   UNL     1       3.230  -1.265  23.445  0.00  0.00    -0.260 NA
ATOM     22  C   UNL     1       2.967  -0.032  22.956  0.00  0.00    +0.042 A 
ATOM     23  C   UNL     1       3.897   0.992  22.896  0.00  0.00    +0.023 A 
ATOM     24  C   UNL     1       5.180   0.735  23.367  0.00  0.00    +0.003 A 
ATOM     25  C   UNL     1       4.487  -1.478  23.895  0.00  0.00    +0.111 A 
ATOM     26  C   UNL     1       5.489  -0.520  23.878  0.00  0.00    +0.020 A 
ENDBRANCH  19  22
ENDBRANCH  15  19
ENDBRANCH   5  15
ENDBRANCH   8   5
BRANCH   9  12
ATOM     12  C   UNL     1      -2.346   0.869  23.305  0.00  0.00    +0.114 C 
BRANCH  12   6
ATOM      6  N   UNL     1      -3.245   2.002  23.143  0.00  0.00    -0.311 NA
ATOM     27  H   UNL     1      -2.728   2.772  22.717  0.00  0.00    +0.122 HD
BRANCH   6  13
ATOM      3  O   UNL     1      -5.584   4.125  25.907  0.00  0.00    -0.380 OA
ATOM     13  C   UNL     1      -3.792   2.425  24.430  0.00  0.00    +0.058 C 
ATOM     17  C   UNL     1      -3.504   3.908  24.670  0.00  0.00    +0.047 C 
ATOM     18  C   UNL     1      -5.300   2.165  24.497  0.00  0.00    +0.047 C 
ATOM     20  C   UNL     1      -4.181   4.379  25.954  0.00  0.00    +0.161 C 
ATOM     21  C   UNL     1      -5.877   2.733  25.791  0.00  0.00    +0.161 C 
ENDBRANCH   6  13
ENDBRANCH  12   6
ENDBRANCH   9  12
BRANCH  11  14
ATOM     14  C   UNL     1      -3.477  -2.930  24.983  0.00  0.00    +0.190 C 
BRANCH  14   4
ATOM      4  O   UNL     1      -4.185  -2.545  23.816  0.00  0.00    -0.392 OA
ATOM     29  H   UNL     1      -4.274  -3.337  23.260  0.00  0.00    +0.210 HD
ENDBRANCH  14   4
ENDBRANCH  11  14
TORSDOF 10
ENDMDL
MODEL 6
REMARK VINA RESULT:      -3.7      1.641      4.429
REMARK  Name = 28962298
REMARK  11 active torsions:
REMARK  status: ('A' for Active; 'I' for Inactive)
REMARK    1  A    between atoms: O_2  and  C_10
REMARK    2  A    between atoms: O_4  and  C_14
REMARK    3  A    between atoms: N_5  and  C_8
REMARK    4  A    between atoms: N_5  and  C_15
REMARK    5  A    between atoms: N_5  and  C_16
REMARK    6  A    between atoms: N_6  and  C_12
REMARK    7  A    between atoms: N_6  and  C_13
REMARK    8  A    between atoms: C_9  and  C_12
REMARK    9  A    between atoms: C_11  and  C_14
REMARK   10  A    between atoms: C_15  and  C_19
REMARK   11  A    between atoms: C_19  and  C_22
REMARK                            x       y       z     vdW  Elec       q    Type
REMARK                         _______ _______ _______ _____ _____    ______ ____
ROOT
ATOM      1  O   UNL     1       0.667   0.806  24.920  0.00  0.00    -0.366 OA
ATOM      8  C   UNL     1      -0.187   3.013  24.656  0.00  0.00    +0.118 C 
ATOM      9  C   UNL     1      -0.054   1.836  25.633  0.00  0.00    +0.152 C 
ATOM     10  C   UNL     1      -0.119   2.338  23.295  0.00  0.00    +0.165 C 
ATOM     11  C   UNL     1       0.912   1.250  23.572  0.00  0.00    +0.174 C 
ENDROOT
BRANCH  10   2
ATOM      2  O   UNL     1      -1.367   1.757  22.938  0.00  0.00    -0.388 OA
ATOM     28  H   UNL     1      -1.254   1.324  22.075  0.00  0.00    +0.210 HD
ENDBRANCH  10   2
BRANCH   8   5
ATOM      5  N   UNL     1      -1.328   3.888  24.858  0.00  0.00    -0.297 NA
ATOM     16  C   UNL     1      -0.947   5.292  24.680  0.00  0.00    +0.105 C 
BRANCH   5  15
ATOM     15  C   UNL     1      -1.910   3.688  26.189  0.00  0.00    +0.090 C 
BRANCH  15  19
ATOM     19  C   UNL     1      -3.311   4.296  26.271  0.00  0.00    +0.071 C 
BRANCH  19  22
ATOM      7  N   UNL     1      -5.387   3.064  26.589  0.00  0.00    -0.260 NA
ATOM     22  C   UNL     1      -4.359   3.344  25.755  0.00  0.00    +0.042 A 
ATOM     23  C   UNL     1      -4.227   2.814  24.483  0.00  0.00    +0.023 A 
ATOM     24  C   UNL     1      -5.212   1.940  24.036  0.00  0.00    +0.003 A 
ATOM     25  C   UNL     1      -6.324   2.210  26.121  0.00  0.00    +0.111 A 
ATOM     26  C   UNL     1      -6.284   1.627  24.864  0.00  0.00    +0.020 A 
ENDBRANCH  19  22
ENDBRANCH  15  19
ENDBRANCH   5  15
ENDBRANCH   8   5
BRANCH   9  12
ATOM     12  C   UNL     1      -1.352   1.214  26.136  0.00  0.00    +0.114 C 
BRANCH  12   6
ATOM      6  N   UNL     1      -1.240  -0.235  26.214  0.00  0.00    -0.311 NA
ATOM     27  H   UNL     1      -0.254  -0.491  26.166  0.00  0.00    +0.122 HD
BRANCH   6  13
ATOM      3  O   UNL     1      -3.751  -2.960  24.241  0.00  0.00    -0.380 OA
ATOM     13  C   UNL     1      -1.971  -0.876  25.125  0.00  0.00    +0.058 C 
ATOM     17  C   UNL     1      -1.517  -2.328  24.960  0.00  0.00    +0.047 C 
ATOM     18  C   UNL     1      -3.482  -0.824  25.371  0.00  0.00    +0.047 C 
ATOM     20  C   UNL     1      -2.365  -3.034  23.907  0.00  0.00    +0.161 C 
ATOM     21  C   UNL     1      -4.222  -1.613  24.294  0.00  0.00    +0.161 C 
ENDBRANCH   6  13
ENDBRANCH  12   6
ENDBRANCH   9  12
BRANCH  11  14
ATOM     14  C   UNL     1       0.870   0.056  22.636  0.00  0.00    +0.190 C 
BRANCH  14   4
ATOM      4  O   UNL     1       2.006   0.097  21.788  0.00  0.00    -0.392 OA
ATOM     29  H   UNL     1       2.550   0.850  22.073  0.00  0.00    +0.210 HD
ENDBRANCH  14   4
ENDBRANCH  11  14
TORSDOF 10
ENDMDL
MODEL 7
REMARK VINA RESULT:      -3.4      2.263      6.106
REMARK  Name = 28962298
REMARK  11 active torsions:
REMARK  status: ('A' for Active; 'I' for Inactive)
REMARK    1  A    between atoms: O_2  and  C_10
REMARK    2  A    between atoms: O_4  and  C_14
REMARK    3  A    between atoms: N_5  and  C_8
REMARK    4  A    between atoms: N_5  and  C_15
REMARK    5  A    between atoms: N_5  and  C_16
REMARK    6  A    between atoms: N_6  and  C_12
REMARK    7  A    between atoms: N_6  and  C_13
REMARK    8  A    between atoms: C_9  and  C_12
REMARK    9  A    between atoms: C_11  and  C_14
REMARK   10  A    between atoms: C_15  and  C_19
REMARK   11  A    between atoms: C_19  and  C_22
REMARK                            x       y       z     vdW  Elec       q    Type
REMARK                         _______ _______ _______ _____ _____    ______ ____
ROOT
ATOM      1  O   UNL     1      -1.175   3.308  23.566  0.00  0.00    -0.366 OA
ATOM      8  C   UNL     1      -0.166   1.164  23.790  0.00  0.00    +0.118 C 
ATOM      9  C   UNL     1      -1.123   2.009  22.937  0.00  0.00    +0.152 C 
ATOM     10  C   UNL     1      -0.263   1.816  25.161  0.00  0.00    +0.165 C 
ATOM     11  C   UNL     1      -0.380   3.283  24.766  0.00  0.00    +0.174 C 
ENDROOT
BRANCH  10   2
ATOM      2  O   UNL     1      -1.430   1.396  25.856  0.00  0.00    -0.388 OA
ATOM     28  H   UNL     1      -2.148   2.008  25.623  0.00  0.00    +0.210 HD
ENDBRANCH  10   2
BRANCH   8   5
ATOM      5  N   UNL     1      -0.386  -0.271  23.770  0.00  0.00    -0.297 NA
ATOM     16  C   UNL     1      -0.453  -0.808  25.132  0.00  0.00    +0.105 C 
BRANCH   5  15
ATOM     15  C   UNL     1       0.671  -0.950  23.013  0.00  0.00    +0.090 C 
BRANCH  15  19
ATOM     19  C   UNL     1       1.647   0.060  22.408  0.00  0.00    +0.071 C 
BRANCH  19  22
ATOM      7  N   UNL     1       3.333  -1.343  23.466  0.00  0.00    -0.260 NA
ATOM     22  C   UNL     1       3.042  -0.128  22.947  0.00  0.00    +0.042 A 
ATOM     23  C   UNL     1       3.941   0.923  22.887  0.00  0.00    +0.023 A 
ATOM     24  C   UNL     1       5.220   0.717  23.391  0.00  0.00    +0.003 A 
ATOM     25  C   UNL     1       4.585  -1.507  23.947  0.00  0.00    +0.111 A 
ATOM     26  C   UNL     1       5.557  -0.518  23.933  0.00  0.00    +0.020 A 
ENDBRANCH  19  22
ENDBRANCH  15  19
ENDBRANCH   5  15
ENDBRANCH   8   5
BRANCH   9  12
ATOM     12  C   UNL     1      -2.557   1.506  22.817  0.00  0.00    +0.114 C 
BRANCH  12   6
ATOM      6  N   UNL     1      -3.055   1.037  24.101  0.00  0.00    -0.311 NA
ATOM     27  H   UNL     1      -3.180   0.025  24.055  0.00  0.00    +0.122 HD
BRANCH   6  13
ATOM      3  O   UNL     1      -6.030   2.873  26.425  0.00  0.00    -0.380 OA
ATOM     13  C   UNL     1      -4.323   1.678  24.438  0.00  0.00    +0.058 C 
ATOM     17  C   UNL     1      -5.081   0.847  25.476  0.00  0.00    +0.047 C 
ATOM     18  C   UNL     1      -4.098   3.098  24.967  0.00  0.00    +0.047 C 
ATOM     20  C   UNL     1      -6.345   1.576  25.919  0.00  0.00    +0.161 C 
ATOM     21  C   UNL     1      -5.417   3.703  25.438  0.00  0.00    +0.161 C 
ENDBRANCH   6  13
ENDBRANCH  12   6
ENDBRANCH   9  12
BRANCH  11  14
ATOM     14  C   UNL     1      -1.012   4.191  25.806  0.00  0.00    +0.190 C 
BRANCH  14   4
ATOM      4  O   UNL     1      -1.432   5.390  25.174  0.00  0.00    -0.392 OA
ATOM     29  H   UNL     1      -0.922   6.117  25.570  0.00  0.00    +0.210 HD
ENDBRANCH  14   4
ENDBRANCH  11  14
TORSDOF 10
ENDMDL
MODEL 8
REMARK VINA RESULT:      -2.9      2.151      4.493
REMARK  Name = 28962298
REMARK  11 active torsions:
REMARK  status: ('A' for Active; 'I' for Inactive)
REMARK    1  A    between atoms: O_2  and  C_10
REMARK    2  A    between atoms: O_4  and  C_14
REMARK    3  A    between atoms: N_5  and  C_8
REMARK    4  A    between atoms: N_5  and  C_15
REMARK    5  A    between atoms: N_5  and  C_16
REMARK    6  A    between atoms: N_6  and  C_12
REMARK    7  A    between atoms: N_6  and  C_13
REMARK    8  A    between atoms: C_9  and  C_12
REMARK    9  A    between atoms: C_11  and  C_14
REMARK   10  A    between atoms: C_15  and  C_19
REMARK   11  A    between atoms: C_19  and  C_22
REMARK                            x       y       z     vdW  Elec       q    Type
REMARK                         _______ _______ _______ _____ _____    ______ ____
ROOT
ATOM      1  O   UNL     1      -3.175  -0.586  25.227  0.00  0.00    -0.366 OA
ATOM      8  C   UNL     1      -0.899  -0.197  24.650  0.00  0.00    +0.118 C 
ATOM      9  C   UNL     1      -2.322   0.371  24.562  0.00  0.00    +0.152 C 
ATOM     10  C   UNL     1      -1.135  -1.695  24.768  0.00  0.00    +0.165 C 
ATOM     11  C   UNL     1      -2.383  -1.714  25.643  0.00  0.00    +0.174 C 
ENDROOT
BRANCH  10   2
ATOM      2  O   UNL     1      -1.410  -2.281  23.502  0.00  0.00    -0.388 OA
ATOM     28  H   UNL     1      -2.235  -1.890  23.169  0.00  0.00    +0.210 HD
ENDBRANCH  10   2
BRANCH   8   5
ATOM      5  N   UNL     1       0.019   0.205  23.599  0.00  0.00    -0.297 NA
ATOM     16  C   UNL     1       1.149  -0.725  23.509  0.00  0.00    +0.105 C 
BRANCH   5  15
ATOM     15  C   UNL     1       0.505   1.569  23.824  0.00  0.00    +0.090 C 
BRANCH  15  19
ATOM     19  C   UNL     1       0.257   2.008  25.268  0.00  0.00    +0.071 C 
BRANCH  19  22
ATOM      7  N   UNL     1      -0.181   4.265  24.466  0.00  0.00    -0.260 NA
ATOM     22  C   UNL     1      -0.539   3.287  25.329  0.00  0.00    +0.042 A 
ATOM     23  C   UNL     1      -1.574   3.399  26.242  0.00  0.00    +0.023 A 
ATOM     24  C   UNL     1      -2.289   4.591  26.272  0.00  0.00    +0.003 A 
ATOM     25  C   UNL     1      -0.898   5.409  24.525  0.00  0.00    +0.111 A 
ATOM     26  C   UNL     1      -1.951   5.620  25.401  0.00  0.00    +0.020 A 
ENDBRANCH  19  22
ENDBRANCH  15  19
ENDBRANCH   5  15
ENDBRANCH   8   5
BRANCH   9  12
ATOM     12  C   UNL     1      -2.888   0.586  23.163  0.00  0.00    +0.114 C 
BRANCH  12   6
ATOM      6  N   UNL     1      -3.500   1.901  23.043  0.00  0.00    -0.311 NA
ATOM     27  H   UNL     1      -2.783   2.573  22.771  0.00  0.00    +0.122 HD
BRANCH   6  13
ATOM      3  O   UNL     1      -6.425   3.255  25.733  0.00  0.00    -0.380 OA
ATOM     13  C   UNL     1      -4.110   2.311  24.305  0.00  0.00    +0.058 C 
ATOM     17  C   UNL     1      -4.594   3.760  24.216  0.00  0.00    +0.047 C 
ATOM     18  C   UNL     1      -5.275   1.390  24.678  0.00  0.00    +0.047 C 
ATOM     20  C   UNL     1      -5.340   4.149  25.489  0.00  0.00    +0.161 C 
ATOM     21  C   UNL     1      -5.983   1.911  25.926  0.00  0.00    +0.161 C 
ENDBRANCH   6  13
ENDBRANCH  12   6
ENDBRANCH   9  12
BRANCH  11  14
ATOM     14  C   UNL     1      -3.223  -2.976  25.556  0.00  0.00    +0.190 C 
BRANCH  14   4
ATOM      4  O   UNL     1      -3.913  -2.984  24.317  0.00  0.00    -0.392 OA
ATOM     29  H   UNL     1      -3.355  -3.461  23.680  0.00  0.00    +0.210 HD
ENDBRANCH  14   4
ENDBRANCH  11  14
TORSDOF 10
ENDMDL
MODEL 9
REMARK VINA RESULT:      -2.8      1.688      5.182
REMARK  Name = 28962298
REMARK  11 active torsions:
REMARK  status: ('A' for Active; 'I' for Inactive)
REMARK    1  A    between atoms: O_2  and  C_10
REMARK    2  A    between atoms: O_4  and  C_14
REMARK    3  A    between atoms: N_5  and  C_8
REMARK    4  A    between atoms: N_5  and  C_15
REMARK    5  A    between atoms: N_5  and  C_16
REMARK    6  A    between atoms: N_6  and  C_12
REMARK    7  A    between atoms: N_6  and  C_13
REMARK    8  A    between atoms: C_9  and  C_12
REMARK    9  A    between atoms: C_11  and  C_14
REMARK   10  A    between atoms: C_15  and  C_19
REMARK   11  A    between atoms: C_19  and  C_22
REMARK                            x       y       z     vdW  Elec       q    Type
REMARK                         _______ _______ _______ _____ _____    ______ ____
ROOT
ATOM      1  O   UNL     1      -1.129   3.317  25.380  0.00  0.00    -0.366 OA
ATOM      8  C   UNL     1      -3.495   3.255  25.639  0.00  0.00    +0.118 C 
ATOM      9  C   UNL     1      -2.245   2.399  25.388  0.00  0.00    +0.152 C 
ATOM     10  C   UNL     1      -3.086   4.621  25.110  0.00  0.00    +0.165 C 
ATOM     11  C   UNL     1      -1.623   4.661  25.534  0.00  0.00    +0.174 C 
ENDROOT
BRANCH  10   2
ATOM      2  O   UNL     1      -3.192   4.684  23.693  0.00  0.00    -0.388 OA
ATOM     28  H   UNL     1      -4.074   4.357  23.449  0.00  0.00    +0.210 HD
ENDBRANCH  10   2
BRANCH   8   5
ATOM      5  N   UNL     1      -4.744   2.735  25.113  0.00  0.00    -0.297 NA
ATOM     16  C   UNL     1      -5.847   3.665  25.373  0.00  0.00    +0.105 C 
BRANCH   5  15
ATOM     15  C   UNL     1      -5.047   1.421  25.689  0.00  0.00    +0.090 C 
BRANCH  15  19
ATOM     19  C   UNL     1      -5.314   0.390  24.592  0.00  0.00    +0.071 C 
BRANCH  19  22
ATOM      7  N   UNL     1      -3.694  -0.900  25.874  0.00  0.00    -0.260 NA
ATOM     22  C   UNL     1      -4.421  -0.816  24.736  0.00  0.00    +0.042 A 
ATOM     23  C   UNL     1      -4.387  -1.760  23.724  0.00  0.00    +0.023 A 
ATOM     24  C   UNL     1      -3.554  -2.862  23.888  0.00  0.00    +0.003 A 
ATOM     25  C   UNL     1      -2.896  -1.983  25.998  0.00  0.00    +0.111 A 
ATOM     26  C   UNL     1      -2.791  -2.983  25.043  0.00  0.00    +0.020 A 
ENDBRANCH  19  22
ENDBRANCH  15  19
ENDBRANCH   5  15
ENDBRANCH   8   5
BRANCH   9  12
ATOM     12  C   UNL     1      -2.201   1.620  24.079  0.00  0.00    +0.114 C 
BRANCH  12   6
ATOM      6  N   UNL     1      -1.273   0.503  24.168  0.00  0.00    -0.311 NA
ATOM     27  H   UNL     1      -0.962   0.410  25.136  0.00  0.00    +0.122 HD
BRANCH   6  13
ATOM      3  O   UNL     1       2.622   0.111  22.652  0.00  0.00    -0.380 OA
ATOM     13  C   UNL     1      -0.119   0.708  23.296  0.00  0.00    +0.058 C 
ATOM     17  C   UNL     1       1.054   1.284  24.091  0.00  0.00    +0.047 C 
ATOM     18  C   UNL     1       0.298  -0.600  22.618  0.00  0.00    +0.047 C 
ATOM     20  C   UNL     1       2.295   1.383  23.209  0.00  0.00    +0.161 C 
ATOM     21  C   UNL     1       1.581  -0.396  21.817  0.00  0.00    +0.161 C 
ENDBRANCH   6  13
ENDBRANCH  12   6
ENDBRANCH   9  12
BRANCH  11  14
ATOM     14  C   UNL     1      -0.740   5.613  24.749  0.00  0.00    +0.190 C 
BRANCH  14   4
ATOM      4  O   UNL     1      -0.122   4.899  23.691  0.00  0.00    -0.392 OA
ATOM     29  H   UNL     1       0.139   5.551  23.019  0.00  0.00    +0.210 HD
ENDBRANCH  14   4
ENDBRANCH  11  14
TORSDOF 10
ENDMDL
MODEL 10
REMARK VINA RESULT:      -2.3      2.135      2.688
REMARK  Name = 28962298
REMARK  11 active torsions:
REMARK  status: ('A' for Active; 'I' for Inactive)
REMARK    1  A    between atoms: O_2  and  C_10
REMARK    2  A    between atoms: O_4  and  C_14
REMARK    3  A    between atoms: N_5  and  C_8
REMARK    4  A    between atoms: N_5  and  C_15
REMARK    5  A    between atoms: N_5  and  C_16
REMARK    6  A    between atoms: N_6  and  C_12
REMARK    7  A    between atoms: N_6  and  C_13
REMARK    8  A    between atoms: C_9  and  C_12
REMARK    9  A    between atoms: C_11  and  C_14
REMARK   10  A    between atoms: C_15  and  C_19
REMARK   11  A    between atoms: C_19  and  C_22
REMARK                            x       y       z     vdW  Elec       q    Type
REMARK                         _______ _______ _______ _____ _____    ______ ____
ROOT
ATOM      1  O   UNL     1       0.219   1.444  23.853  0.00  0.00    -0.366 OA
ATOM      8  C   UNL     1      -1.403  -0.202  24.427  0.00  0.00    +0.118 C 
ATOM      9  C   UNL     1      -0.890   1.209  24.749  0.00  0.00    +0.152 C 
ATOM     10  C   UNL     1      -0.173  -0.891  23.855  0.00  0.00    +0.165 C 
ATOM     11  C   UNL     1       0.453   0.257  23.072  0.00  0.00    +0.174 C 
ENDROOT
BRANCH  10   2
ATOM      2  O   UNL     1       0.707  -1.325  24.884  0.00  0.00    -0.388 OA
ATOM     28  H   UNL     1       0.798  -0.596  25.521  0.00  0.00    +0.210 HD
ENDBRANCH  10   2
BRANCH   8   5
ATOM      5  N   UNL     1      -2.060  -0.909  25.512  0.00  0.00    -0.297 NA
ATOM     16  C   UNL     1      -1.838  -2.354  25.404  0.00  0.00    +0.105 C 
BRANCH   5  15
ATOM     15  C   UNL     1      -3.498  -0.621  25.526  0.00  0.00    +0.090 C 
BRANCH  15  19
ATOM     19  C   UNL     1      -3.915   0.148  24.272  0.00  0.00    +0.071 C 
BRANCH  19  22
ATOM      7  N   UNL     1      -5.328   1.675  25.536  0.00  0.00    -0.260 NA
ATOM     22  C   UNL     1      -4.358   1.550  24.603  0.00  0.00    +0.042 A 
ATOM     23  C   UNL     1      -3.765   2.620  23.954  0.00  0.00    +0.023 A 
ATOM     24  C   UNL     1      -4.195   3.901  24.283  0.00  0.00    +0.003 A 
ATOM     25  C   UNL     1      -5.721   2.935  25.830  0.00  0.00    +0.111 A 
ATOM     26  C   UNL     1      -5.190   4.070  25.237  0.00  0.00    +0.020 A 
ENDBRANCH  19  22
ENDBRANCH  15  19
ENDBRANCH   5  15
ENDBRANCH   8   5
BRANCH   9  12
ATOM     12  C   UNL     1      -0.385   1.446  26.167  0.00  0.00    +0.114 C 
BRANCH  12   6
ATOM      6  N   UNL     1       0.749   2.357  26.171  0.00  0.00    -0.311 NA
ATOM     27  H   UNL     1       1.562   1.872  25.789  0.00  0.00    +0.122 HD
BRANCH   6  13
ATOM      3  O   UNL     1       2.120   2.284  30.138  0.00  0.00    -0.380 OA
ATOM     13  C   UNL     1       1.042   2.824  27.524  0.00  0.00    +0.058 C 
ATOM     17  C   UNL     1       0.305   1.966  28.555  0.00  0.00    +0.047 C 
ATOM     18  C   UNL     1       2.549   2.797  27.801  0.00  0.00    +0.047 C 
ATOM     20  C   UNL     1       0.706   2.374  29.969  0.00  0.00    +0.161 C 
ATOM     21  C   UNL     1       2.826   3.158  29.257  0.00  0.00    +0.161 C 
ENDBRANCH   6  13
ENDBRANCH  12   6
ENDBRANCH   9  12
BRANCH  11  14
ATOM     14  C   UNL     1       1.940   0.125  22.794  0.00  0.00    +0.190 C 
BRANCH  14   4
ATOM      4  O   UNL     1       2.608   1.257  23.326  0.00  0.00    -0.392 OA
ATOM     29  H   UNL     1       2.051   1.610  24.040  0.00  0.00    +0.210 HD
ENDBRANCH  14   4
ENDBRANCH  11  14
TORSDOF 10
ENDMDL
