MODEL 1
REMARK VINA RESULT:      -5.3      0.000      0.000
REMARK  Name = 45784118
REMARK  13 active torsions:
REMARK  status: ('A' for Active; 'I' for Inactive)
REMARK    1  A    between atoms: N_2  and  C_13
REMARK    2  A    between atoms: N_2  and  C_19
REMARK    3  A    between atoms: C_6  and  C_10
REMARK    4  A    between atoms: C_7  and  C_13
REMARK    5  A    between atoms: C_9  and  C_14
REMARK    6  A    between atoms: C_10  and  C_15
REMARK    7  A    between atoms: C_10  and  C_16
REMARK    8  A    between atoms: C_11  and  C_17
REMARK    9  A    between atoms: C_14  and  C_18
REMARK   10  A    between atoms: C_20  and  C_21
REMARK   11  A    between atoms: C_20  and  C_23
REMARK   12  A    between atoms: C_20  and  C_24
REMARK   13  A    between atoms: C_20  and  C_25
REMARK                            x       y       z     vdW  Elec       q    Type
REMARK                         _______ _______ _______ _____ _____    ______ ____
ROOT
ATOM      6  C   UNL     1      -0.829   0.701  24.394  0.00  0.00    +0.000 C 
ATOM      7  C   UNL     1       0.140  -0.447  24.016  0.00  0.00    +0.032 C 
ATOM      8  C   UNL     1      -1.762   0.263  25.533  0.00  0.00    +0.012 C 
ATOM      9  C   UNL     1      -2.597  -0.977  25.157  0.00  0.00    +0.024 C 
ATOM     11  C   UNL     1      -1.745  -2.058  24.526  0.00  0.00    -0.073 C 
ATOM     12  C   UNL     1      -0.520  -1.807  24.033  0.00  0.00    -0.022 C 
ATOM     17  C   UNL     1      -2.317  -3.449  24.514  0.00  0.00    +0.039 C 
ENDROOT
BRANCH   6  10
ATOM     10  C   UNL     1      -0.074   1.970  24.801  0.00  0.00    -0.013 C 
ATOM     15  C   UNL     1      -0.577   3.168  24.000  0.00  0.00    +0.007 C 
ATOM     16  C   UNL     1      -0.223   2.220  26.298  0.00  0.00    +0.007 C 
ENDBRANCH   6  10
BRANCH   7  13
ATOM     13  C   UNL     1       0.775  -0.206  22.642  0.00  0.00    +0.109 C 
BRANCH  13   2
ATOM      2  N   UNL     1       1.934   0.630  22.788  0.00  0.00    -0.342 N 
ATOM     29  H   UNL     1       1.866   1.623  22.590  0.00  0.00    +0.146 HD
BRANCH   2  19
ATOM      5  N   UNL     1       4.567  -1.677  23.913  0.00  0.00    -0.261 NA
ATOM     19  C   UNL     1       3.191   0.158  23.148  0.00  0.00    +0.045 A 
ATOM     22  C   UNL     1       4.305   0.989  23.117  0.00  0.00    +0.026 A 
ATOM     26  C   UNL     1       3.373  -1.156  23.551  0.00  0.00    +0.133 A 
ATOM     27  C   UNL     1       5.550   0.489  23.482  0.00  0.00    +0.021 A 
ATOM     28  C   UNL     1       5.627  -0.839  23.868  0.00  0.00    +0.111 A 
ENDBRANCH   2  19
ENDBRANCH  13   2
ENDBRANCH   7  13
BRANCH   9  14
ATOM     14  C   UNL     1      -3.769  -0.598  24.245  0.00  0.00    +0.105 C 
BRANCH  14  18
ATOM      1  O   UNL     1      -3.886   1.807  24.645  0.00  0.00    -0.424 OA
ATOM      3  N   UNL     1      -5.685   0.673  25.341  0.00  0.00    -0.112 NA
ATOM      4  N   UNL     1      -5.886   2.010  25.627  0.00  0.00    -0.112 NA
ATOM     18  C   UNL     1      -4.507   0.601  24.768  0.00  0.00    +0.218 A 
ATOM     21  C   UNL     1      -4.811   2.634  25.204  0.00  0.00    +0.223 A 
BRANCH  21  20
ATOM     20  C   UNL     1      -4.481   4.064  25.247  0.00  0.00    +0.040 C 
ATOM     23  C   UNL     1      -5.732   4.947  25.591  0.00  0.00    +0.020 C 
ATOM     24  C   UNL     1      -3.928   4.583  23.874  0.00  0.00    +0.020 C 
ATOM     25  C   UNL     1      -3.392   4.495  26.300  0.00  0.00    +0.020 C 
ENDBRANCH  21  20
ENDBRANCH  14  18
ENDBRANCH   9  14
TORSDOF 7
ENDMDL
MODEL 2
REMARK VINA RESULT:      -2.3      2.148      6.693
REMARK  Name = 45784118
REMARK  13 active torsions:
REMARK  status: ('A' for Active; 'I' for Inactive)
REMARK    1  A    between atoms: N_2  and  C_13
REMARK    2  A    between atoms: N_2  and  C_19
REMARK    3  A    between atoms: C_6  and  C_10
REMARK    4  A    between atoms: C_7  and  C_13
REMARK    5  A    between atoms: C_9  and  C_14
REMARK    6  A    between atoms: C_10  and  C_15
REMARK    7  A    between atoms: C_10  and  C_16
REMARK    8  A    between atoms: C_11  and  C_17
REMARK    9  A    between atoms: C_14  and  C_18
REMARK   10  A    between atoms: C_20  and  C_21
REMARK   11  A    between atoms: C_20  and  C_23
REMARK   12  A    between atoms: C_20  and  C_24
REMARK   13  A    between atoms: C_20  and  C_25
REMARK                            x       y       z     vdW  Elec       q    Type
REMARK                         _______ _______ _______ _____ _____    ______ ____
ROOT
ATOM      6  C   UNL     1      -3.566   3.005  25.520  0.00  0.00    +0.000 C 
ATOM      7  C   UNL     1      -3.650   3.101  23.976  0.00  0.00    +0.032 C 
ATOM      8  C   UNL     1      -2.564   4.032  26.068  0.00  0.00    +0.012 C 
ATOM      9  C   UNL     1      -1.149   3.831  25.489  0.00  0.00    +0.024 C 
ATOM     11  C   UNL     1      -1.178   3.648  23.986  0.00  0.00    -0.073 C 
ATOM     12  C   UNL     1      -2.306   3.336  23.325  0.00  0.00    -0.022 C 
ATOM     17  C   UNL     1       0.114   3.879  23.252  0.00  0.00    +0.039 C 
ENDROOT
BRANCH   6  10
ATOM     10  C   UNL     1      -4.934   3.214  26.177  0.00  0.00    -0.013 C 
ATOM     15  C   UNL     1      -5.639   4.421  25.564  0.00  0.00    +0.007 C 
ATOM     16  C   UNL     1      -5.789   1.960  26.036  0.00  0.00    +0.007 C 
ENDBRANCH   6  10
BRANCH   7  13
ATOM     13  C   UNL     1      -4.295   1.846  23.377  0.00  0.00    +0.109 C 
BRANCH  13   2
ATOM      2  N   UNL     1      -3.329   0.784  23.333  0.00  0.00    -0.342 N 
ATOM     29  H   UNL     1      -2.512   0.873  22.738  0.00  0.00    +0.146 HD
BRANCH   2  19
ATOM      5  N   UNL     1      -3.937  -2.780  23.998  0.00  0.00    -0.261 NA
ATOM     19  C   UNL     1      -3.456  -0.411  24.031  0.00  0.00    +0.045 A 
ATOM     22  C   UNL     1      -3.245  -0.466  25.403  0.00  0.00    +0.026 A 
ATOM     26  C   UNL     1      -3.798  -1.586  23.380  0.00  0.00    +0.133 A 
ATOM     27  C   UNL     1      -3.379  -1.676  26.075  0.00  0.00    +0.021 A 
ATOM     28  C   UNL     1      -3.723  -2.794  25.333  0.00  0.00    +0.111 A 
ENDBRANCH   2  19
ENDBRANCH  13   2
ENDBRANCH   7  13
BRANCH   9  14
ATOM     14  C   UNL     1      -0.434   2.660  26.172  0.00  0.00    +0.105 C 
BRANCH  14  18
ATOM      1  O   UNL     1       1.106   1.616  24.593  0.00  0.00    -0.424 OA
ATOM      3  N   UNL     1      -0.845   0.544  24.815  0.00  0.00    -0.112 NA
ATOM      4  N   UNL     1      -0.077  -0.152  23.900  0.00  0.00    -0.112 NA
ATOM     18  C   UNL     1      -0.115   1.567  25.193  0.00  0.00    +0.218 A 
ATOM     21  C   UNL     1       1.053   0.510  23.801  0.00  0.00    +0.223 A 
BRANCH  21  20
ATOM     20  C   UNL     1       2.235   0.227  22.978  0.00  0.00    +0.040 C 
ATOM     23  C   UNL     1       3.154   1.488  22.813  0.00  0.00    +0.020 C 
ATOM     24  C   UNL     1       1.848  -0.241  21.532  0.00  0.00    +0.020 C 
ATOM     25  C   UNL     1       3.200  -0.898  23.512  0.00  0.00    +0.020 C 
ENDBRANCH  21  20
ENDBRANCH  14  18
ENDBRANCH   9  14
TORSDOF 7
ENDMDL
MODEL 3
REMARK VINA RESULT:      -1.7      1.621      4.577
REMARK  Name = 45784118
REMARK  13 active torsions:
REMARK  status: ('A' for Active; 'I' for Inactive)
REMARK    1  A    between atoms: N_2  and  C_13
REMARK    2  A    between atoms: N_2  and  C_19
REMARK    3  A    between atoms: C_6  and  C_10
REMARK    4  A    between atoms: C_7  and  C_13
REMARK    5  A    between atoms: C_9  and  C_14
REMARK    6  A    between atoms: C_10  and  C_15
REMARK    7  A    between atoms: C_10  and  C_16
REMARK    8  A    between atoms: C_11  and  C_17
REMARK    9  A    between atoms: C_14  and  C_18
REMARK   10  A    between atoms: C_20  and  C_21
REMARK   11  A    between atoms: C_20  and  C_23
REMARK   12  A    between atoms: C_20  and  C_24
REMARK   13  A    between atoms: C_20  and  C_25
REMARK                            x       y       z     vdW  Elec       q    Type
REMARK                         _______ _______ _______ _____ _____    ______ ____
ROOT
ATOM      6  C   UNL     1      -2.705   2.394  23.822  0.00  0.00    +0.000 C 
ATOM      7  C   UNL     1      -1.469   2.801  24.663  0.00  0.00    +0.032 C 
ATOM      8  C   UNL     1      -3.776   3.495  23.874  0.00  0.00    +0.012 C 
ATOM      9  C   UNL     1      -4.240   3.788  25.314  0.00  0.00    +0.024 C 
ATOM     11  C   UNL     1      -3.068   3.937  26.263  0.00  0.00    -0.073 C 
ATOM     12  C   UNL     1      -1.835   3.502  25.950  0.00  0.00    -0.022 C 
ATOM     17  C   UNL     1      -3.337   4.639  27.565  0.00  0.00    +0.039 C 
ENDROOT
BRANCH   6  10
ATOM     10  C   UNL     1      -2.331   2.104  22.365  0.00  0.00    -0.013 C 
ATOM     15  C   UNL     1      -2.441   0.609  22.075  0.00  0.00    +0.007 C 
ATOM     16  C   UNL     1      -3.218   2.905  21.418  0.00  0.00    +0.007 C 
ENDBRANCH   6  10
BRANCH   7  13
ATOM     13  C   UNL     1      -0.588   1.586  24.976  0.00  0.00    +0.109 C 
BRANCH  13   2
ATOM      2  N   UNL     1       0.768   1.864  24.592  0.00  0.00    -0.342 N 
ATOM     29  H   UNL     1       1.264   2.637  25.025  0.00  0.00    +0.146 HD
BRANCH   2  19
ATOM      5  N   UNL     1       3.525   0.765  22.422  0.00  0.00    -0.261 NA
ATOM     19  C   UNL     1       1.458   1.161  23.612  0.00  0.00    +0.045 A 
ATOM     22  C   UNL     1       0.826   0.183  22.853  0.00  0.00    +0.026 A 
ATOM     26  C   UNL     1       2.797   1.413  23.360  0.00  0.00    +0.133 A 
ATOM     27  C   UNL     1       1.542  -0.505  21.880  0.00  0.00    +0.021 A 
ATOM     28  C   UNL     1       2.877  -0.180  21.706  0.00  0.00    +0.111 A 
ENDBRANCH   2  19
ENDBRANCH  13   2
ENDBRANCH   7  13
BRANCH   9  14
ATOM     14  C   UNL     1      -5.215   2.714  25.810  0.00  0.00    +0.105 C 
BRANCH  14  18
ATOM      1  O   UNL     1      -3.981   0.609  25.788  0.00  0.00    -0.424 OA
ATOM      3  N   UNL     1      -5.456   0.824  24.120  0.00  0.00    -0.112 NA
ATOM      4  N   UNL     1      -4.836  -0.404  23.986  0.00  0.00    -0.112 NA
ATOM     18  C   UNL     1      -4.927   1.380  25.184  0.00  0.00    +0.218 A 
ATOM     21  C   UNL     1      -3.983  -0.487  24.980  0.00  0.00    +0.223 A 
BRANCH  21  20
ATOM     20  C   UNL     1      -3.059  -1.572  25.332  0.00  0.00    +0.040 C 
ATOM     23  C   UNL     1      -3.546  -2.960  24.788  0.00  0.00    +0.020 C 
ATOM     24  C   UNL     1      -2.897  -1.727  26.885  0.00  0.00    +0.020 C 
ATOM     25  C   UNL     1      -1.585  -1.432  24.794  0.00  0.00    +0.020 C 
ENDBRANCH  21  20
ENDBRANCH  14  18
ENDBRANCH   9  14
TORSDOF 7
ENDMDL
MODEL 4
REMARK VINA RESULT:      -1.7      2.215      6.663
REMARK  Name = 45784118
REMARK  13 active torsions:
REMARK  status: ('A' for Active; 'I' for Inactive)
REMARK    1  A    between atoms: N_2  and  C_13
REMARK    2  A    between atoms: N_2  and  C_19
REMARK    3  A    between atoms: C_6  and  C_10
REMARK    4  A    between atoms: C_7  and  C_13
REMARK    5  A    between atoms: C_9  and  C_14
REMARK    6  A    between atoms: C_10  and  C_15
REMARK    7  A    between atoms: C_10  and  C_16
REMARK    8  A    between atoms: C_11  and  C_17
REMARK    9  A    between atoms: C_14  and  C_18
REMARK   10  A    between atoms: C_20  and  C_21
REMARK   11  A    between atoms: C_20  and  C_23
REMARK   12  A    between atoms: C_20  and  C_24
REMARK   13  A    between atoms: C_20  and  C_25
REMARK                            x       y       z     vdW  Elec       q    Type
REMARK                         _______ _______ _______ _____ _____    ______ ____
ROOT
ATOM      6  C   UNL     1      -4.379   2.971  25.383  0.00  0.00    +0.000 C 
ATOM      7  C   UNL     1      -4.011   3.098  23.883  0.00  0.00    +0.032 C 
ATOM      8  C   UNL     1      -3.902   4.209  26.159  0.00  0.00    +0.012 C 
ATOM      9  C   UNL     1      -2.379   4.416  26.045  0.00  0.00    +0.024 C 
ATOM     11  C   UNL     1      -1.899   4.288  24.614  0.00  0.00    -0.073 C 
ATOM     12  C   UNL     1      -2.647   3.708  23.659  0.00  0.00    -0.022 C 
ATOM     17  C   UNL     1      -0.556   4.883  24.294  0.00  0.00    +0.039 C 
ENDROOT
BRANCH   6  10
ATOM     10  C   UNL     1      -5.885   2.781  25.585  0.00  0.00    -0.013 C 
ATOM     15  C   UNL     1      -6.152   1.899  26.802  0.00  0.00    +0.007 C 
ATOM     16  C   UNL     1      -6.576   4.132  25.734  0.00  0.00    +0.007 C 
ENDBRANCH   6  10
BRANCH   7  13
ATOM     13  C   UNL     1      -4.085   1.739  23.178  0.00  0.00    +0.109 C 
BRANCH  13   2
ATOM      2  N   UNL     1      -4.806   0.809  24.002  0.00  0.00    -0.342 N 
ATOM     29  H   UNL     1      -5.739   1.043  24.325  0.00  0.00    +0.146 HD
BRANCH   2  19
ATOM      5  N   UNL     1      -3.828  -2.735  23.989  0.00  0.00    -0.261 NA
ATOM     19  C   UNL     1      -4.288  -0.404  24.439  0.00  0.00    +0.045 A 
ATOM     22  C   UNL     1      -3.728  -0.531  25.704  0.00  0.00    +0.026 A 
ATOM     26  C   UNL     1      -4.314  -1.527  23.626  0.00  0.00    +0.133 A 
ATOM     27  C   UNL     1      -3.218  -1.758  26.114  0.00  0.00    +0.021 A 
ATOM     28  C   UNL     1      -3.291  -2.819  25.226  0.00  0.00    +0.111 A 
ENDBRANCH   2  19
ENDBRANCH  13   2
ENDBRANCH   7  13
BRANCH   9  14
ATOM     14  C   UNL     1      -1.620   3.455  26.967  0.00  0.00    +0.105 C 
BRANCH  14  18
ATOM      1  O   UNL     1      -1.095   1.725  25.328  0.00  0.00    -0.424 OA
ATOM      3  N   UNL     1       0.701   2.687  26.252  0.00  0.00    -0.112 NA
ATOM      4  N   UNL     1       1.142   1.737  25.351  0.00  0.00    -0.112 NA
ATOM     18  C   UNL     1      -0.610   2.646  26.205  0.00  0.00    +0.218 A 
ATOM     21  C   UNL     1       0.060   1.200  24.835  0.00  0.00    +0.223 A 
BRANCH  21  20
ATOM     20  C   UNL     1      -0.070   0.142  23.826  0.00  0.00    +0.040 C 
ATOM     23  C   UNL     1      -1.277   0.399  22.856  0.00  0.00    +0.020 C 
ATOM     24  C   UNL     1      -0.306  -1.266  24.475  0.00  0.00    +0.020 C 
ATOM     25  C   UNL     1       1.166  -0.065  22.872  0.00  0.00    +0.020 C 
ENDBRANCH  21  20
ENDBRANCH  14  18
ENDBRANCH   9  14
TORSDOF 7
ENDMDL
MODEL 5
REMARK VINA RESULT:      -1.6      1.774      7.992
REMARK  Name = 45784118
REMARK  13 active torsions:
REMARK  status: ('A' for Active; 'I' for Inactive)
REMARK    1  A    between atoms: N_2  and  C_13
REMARK    2  A    between atoms: N_2  and  C_19
REMARK    3  A    between atoms: C_6  and  C_10
REMARK    4  A    between atoms: C_7  and  C_13
REMARK    5  A    between atoms: C_9  and  C_14
REMARK    6  A    between atoms: C_10  and  C_15
REMARK    7  A    between atoms: C_10  and  C_16
REMARK    8  A    between atoms: C_11  and  C_17
REMARK    9  A    between atoms: C_14  and  C_18
REMARK   10  A    between atoms: C_20  and  C_21
REMARK   11  A    between atoms: C_20  and  C_23
REMARK   12  A    between atoms: C_20  and  C_24
REMARK   13  A    between atoms: C_20  and  C_25
REMARK                            x       y       z     vdW  Elec       q    Type
REMARK                         _______ _______ _______ _____ _____    ______ ____
ROOT
ATOM      6  C   UNL     1      -2.235  -1.557  24.430  0.00  0.00    +0.000 C 
ATOM      7  C   UNL     1      -2.860  -0.611  25.486  0.00  0.00    +0.032 C 
ATOM      8  C   UNL     1      -0.711  -1.633  24.613  0.00  0.00    +0.012 C 
ATOM      9  C   UNL     1      -0.040  -0.251  24.490  0.00  0.00    +0.024 C 
ATOM     11  C   UNL     1      -0.767   0.802  25.300  0.00  0.00    -0.073 C 
ATOM     12  C   UNL     1      -2.022   0.619  25.748  0.00  0.00    -0.022 C 
ATOM     17  C   UNL     1      -0.002   2.056  25.623  0.00  0.00    +0.039 C 
ENDROOT
BRANCH   6  10
ATOM     10  C   UNL     1      -2.836  -2.963  24.500  0.00  0.00    -0.013 C 
ATOM     15  C   UNL     1      -3.149  -3.336  25.947  0.00  0.00    +0.007 C 
ATOM     16  C   UNL     1      -4.090  -3.049  23.637  0.00  0.00    +0.007 C 
ENDBRANCH   6  10
BRANCH   7  13
ATOM     13  C   UNL     1      -4.276  -0.186  25.080  0.00  0.00    +0.109 C 
BRANCH  13   2
ATOM      2  N   UNL     1      -4.203   0.935  24.184  0.00  0.00    -0.342 N 
ATOM     29  H   UNL     1      -3.917   0.791  23.222  0.00  0.00    +0.146 HD
BRANCH   2  19
ATOM      5  N   UNL     1      -5.840   3.813  25.782  0.00  0.00    -0.261 NA
ATOM     19  C   UNL     1      -4.460   2.247  24.561  0.00  0.00    +0.045 A 
ATOM     22  C   UNL     1      -3.647   3.289  24.131  0.00  0.00    +0.026 A 
ATOM     26  C   UNL     1      -5.535   2.559  25.379  0.00  0.00    +0.133 A 
ATOM     27  C   UNL     1      -3.928   4.593  24.525  0.00  0.00    +0.021 A 
ATOM     28  C   UNL     1      -5.026   4.800  25.344  0.00  0.00    +0.111 A 
ENDBRANCH   2  19
ENDBRANCH  13   2
ENDBRANCH   7  13
BRANCH   9  14
ATOM     14  C   UNL     1       0.085   0.174  23.022  0.00  0.00    +0.105 C 
BRANCH  14  18
ATOM      1  O   UNL     1       2.470  -0.057  23.481  0.00  0.00    -0.424 OA
ATOM      3  N   UNL     1       1.959   0.030  21.304  0.00  0.00    -0.112 NA
ATOM      4  N   UNL     1       3.331  -0.101  21.416  0.00  0.00    -0.112 NA
ATOM     18  C   UNL     1       1.499   0.051  22.533  0.00  0.00    +0.218 A 
ATOM     21  C   UNL     1       3.584  -0.147  22.704  0.00  0.00    +0.223 A 
BRANCH  21  20
ATOM     20  C   UNL     1       4.869  -0.283  23.400  0.00  0.00    +0.040 C 
ATOM     23  C   UNL     1       6.083  -0.268  22.406  0.00  0.00    +0.020 C 
ATOM     24  C   UNL     1       4.964  -1.625  24.206  0.00  0.00    +0.020 C 
ATOM     25  C   UNL     1       5.210   0.836  24.455  0.00  0.00    +0.020 C 
ENDBRANCH  21  20
ENDBRANCH  14  18
ENDBRANCH   9  14
TORSDOF 7
ENDMDL
MODEL 6
REMARK VINA RESULT:      -1.6      1.925      6.847
REMARK  Name = 45784118
REMARK  13 active torsions:
REMARK  status: ('A' for Active; 'I' for Inactive)
REMARK    1  A    between atoms: N_2  and  C_13
REMARK    2  A    between atoms: N_2  and  C_19
REMARK    3  A    between atoms: C_6  and  C_10
REMARK    4  A    between atoms: C_7  and  C_13
REMARK    5  A    between atoms: C_9  and  C_14
REMARK    6  A    between atoms: C_10  and  C_15
REMARK    7  A    between atoms: C_10  and  C_16
REMARK    8  A    between atoms: C_11  and  C_17
REMARK    9  A    between atoms: C_14  and  C_18
REMARK   10  A    between atoms: C_20  and  C_21
REMARK   11  A    between atoms: C_20  and  C_23
REMARK   12  A    between atoms: C_20  and  C_24
REMARK   13  A    between atoms: C_20  and  C_25
REMARK                            x       y       z     vdW  Elec       q    Type
REMARK                         _______ _______ _______ _____ _____    ______ ____
ROOT
ATOM      6  C   UNL     1      -3.588   2.950  25.408  0.00  0.00    +0.000 C 
ATOM      7  C   UNL     1      -4.431   2.408  24.227  0.00  0.00    +0.032 C 
ATOM      8  C   UNL     1      -2.333   3.667  24.887  0.00  0.00    +0.012 C 
ATOM      9  C   UNL     1      -1.443   2.740  24.037  0.00  0.00    +0.024 C 
ATOM     11  C   UNL     1      -2.252   1.964  23.017  0.00  0.00    -0.073 C 
ATOM     12  C   UNL     1      -3.587   1.837  23.111  0.00  0.00    -0.022 C 
ATOM     17  C   UNL     1      -1.494   1.373  21.860  0.00  0.00    +0.039 C 
ENDROOT
BRANCH   6  10
ATOM     10  C   UNL     1      -4.397   3.900  26.295  0.00  0.00    -0.013 C 
ATOM     15  C   UNL     1      -3.490   4.970  26.896  0.00  0.00    +0.007 C 
ATOM     16  C   UNL     1      -5.530   4.537  25.498  0.00  0.00    +0.007 C 
ENDBRANCH   6  10
BRANCH   7  13
ATOM     13  C   UNL     1      -5.433   1.349  24.701  0.00  0.00    +0.109 C 
BRANCH  13   2
ATOM      2  N   UNL     1      -4.778   0.434  25.594  0.00  0.00    -0.342 N 
ATOM     29  H   UNL     1      -4.834   0.583  26.596  0.00  0.00    +0.146 HD
BRANCH   2  19
ATOM      5  N   UNL     1      -1.975  -1.935  25.367  0.00  0.00    -0.261 NA
ATOM     19  C   UNL     1      -4.013  -0.647  25.174  0.00  0.00    +0.045 A 
ATOM     22  C   UNL     1      -4.470  -1.507  24.182  0.00  0.00    +0.026 A 
ATOM     26  C   UNL     1      -2.769  -0.902  25.730  0.00  0.00    +0.133 A 
ATOM     27  C   UNL     1      -3.682  -2.580  23.782  0.00  0.00    +0.021 A 
ATOM     28  C   UNL     1      -2.454  -2.750  24.401  0.00  0.00    +0.111 A 
ENDBRANCH   2  19
ENDBRANCH  13   2
ENDBRANCH   7  13
BRANCH   9  14
ATOM     14  C   UNL     1      -0.624   1.795  24.923  0.00  0.00    +0.105 C 
BRANCH  14  18
ATOM      1  O   UNL     1       1.551   1.449  23.871  0.00  0.00    -0.424 OA
ATOM      3  N   UNL     1       0.109  -0.234  23.569  0.00  0.00    -0.112 NA
ATOM      4  N   UNL     1       1.288  -0.562  22.927  0.00  0.00    -0.112 NA
ATOM     18  C   UNL     1       0.308   0.946  24.106  0.00  0.00    +0.218 A 
ATOM     21  C   UNL     1       2.101   0.449  23.129  0.00  0.00    +0.223 A 
BRANCH  21  20
ATOM     20  C   UNL     1       3.485   0.642  22.679  0.00  0.00    +0.040 C 
ATOM     23  C   UNL     1       3.911   2.152  22.716  0.00  0.00    +0.020 C 
ATOM     24  C   UNL     1       3.700   0.149  21.206  0.00  0.00    +0.020 C 
ATOM     25  C   UNL     1       4.596  -0.102  23.511  0.00  0.00    +0.020 C 
ENDBRANCH  21  20
ENDBRANCH  14  18
ENDBRANCH   9  14
TORSDOF 7
ENDMDL
MODEL 7
REMARK VINA RESULT:      -1.5      1.527      3.527
REMARK  Name = 45784118
REMARK  13 active torsions:
REMARK  status: ('A' for Active; 'I' for Inactive)
REMARK    1  A    between atoms: N_2  and  C_13
REMARK    2  A    between atoms: N_2  and  C_19
REMARK    3  A    between atoms: C_6  and  C_10
REMARK    4  A    between atoms: C_7  and  C_13
REMARK    5  A    between atoms: C_9  and  C_14
REMARK    6  A    between atoms: C_10  and  C_15
REMARK    7  A    between atoms: C_10  and  C_16
REMARK    8  A    between atoms: C_11  and  C_17
REMARK    9  A    between atoms: C_14  and  C_18
REMARK   10  A    between atoms: C_20  and  C_21
REMARK   11  A    between atoms: C_20  and  C_23
REMARK   12  A    between atoms: C_20  and  C_24
REMARK   13  A    between atoms: C_20  and  C_25
REMARK                            x       y       z     vdW  Elec       q    Type
REMARK                         _______ _______ _______ _____ _____    ______ ____
ROOT
ATOM      6  C   UNL     1      -2.568  -0.972  24.705  0.00  0.00    +0.000 C 
ATOM      7  C   UNL     1      -1.649  -0.341  23.629  0.00  0.00    +0.032 C 
ATOM      8  C   UNL     1      -4.042  -0.862  24.284  0.00  0.00    +0.012 C 
ATOM      9  C   UNL     1      -4.478   0.600  24.066  0.00  0.00    +0.024 C 
ATOM     11  C   UNL     1      -3.475   1.367  23.228  0.00  0.00    -0.073 C 
ATOM     12  C   UNL     1      -2.221   0.925  23.033  0.00  0.00    -0.022 C 
ATOM     17  C   UNL     1      -3.963   2.634  22.582  0.00  0.00    +0.039 C 
ENDROOT
BRANCH   6  10
ATOM     10  C   UNL     1      -2.212  -2.438  24.967  0.00  0.00    -0.013 C 
ATOM     15  C   UNL     1      -3.469  -3.304  24.941  0.00  0.00    +0.007 C 
ATOM     16  C   UNL     1      -1.195  -2.930  23.943  0.00  0.00    +0.007 C 
ENDBRANCH   6  10
BRANCH   7  13
ATOM     13  C   UNL     1      -0.253  -0.055  24.192  0.00  0.00    +0.109 C 
BRANCH  13   2
ATOM      2  N   UNL     1       0.646   0.253  23.114  0.00  0.00    -0.342 N 
ATOM     29  H   UNL     1       0.274   0.579  22.228  0.00  0.00    +0.146 HD
BRANCH   2  19
ATOM      5  N   UNL     1       3.913  -1.330  23.694  0.00  0.00    -0.261 NA
ATOM     19  C   UNL     1       2.024   0.090  23.183  0.00  0.00    +0.045 A 
ATOM     22  C   UNL     1       2.886   1.122  22.830  0.00  0.00    +0.026 A 
ATOM     26  C   UNL     1       2.583  -1.106  23.605  0.00  0.00    +0.133 A 
ATOM     27  C   UNL     1       4.261   0.930  22.909  0.00  0.00    +0.021 A 
ATOM     28  C   UNL     1       4.720  -0.304  23.342  0.00  0.00    +0.111 A 
ENDBRANCH   2  19
ENDBRANCH  13   2
ENDBRANCH   7  13
BRANCH   9  14
ATOM     14  C   UNL     1      -4.732   1.306  25.402  0.00  0.00    +0.105 C 
BRANCH  14  18
ATOM      1  O   UNL     1      -2.602   2.471  25.157  0.00  0.00    -0.424 OA
ATOM      3  N   UNL     1      -4.259   3.748  25.950  0.00  0.00    -0.112 NA
ATOM      4  N   UNL     1      -3.123   4.530  25.862  0.00  0.00    -0.112 NA
ATOM     18  C   UNL     1      -3.909   2.556  25.528  0.00  0.00    +0.218 A 
ATOM     21  C   UNL     1      -2.181   3.744  25.395  0.00  0.00    +0.223 A 
BRANCH  21  20
ATOM     20  C   UNL     1      -0.774   4.042  25.099  0.00  0.00    +0.040 C 
ATOM     23  C   UNL     1       0.198   3.396  26.148  0.00  0.00    +0.020 C 
ATOM     24  C   UNL     1      -0.485   5.584  25.106  0.00  0.00    +0.020 C 
ATOM     25  C   UNL     1      -0.236   3.546  23.704  0.00  0.00    +0.020 C 
ENDBRANCH  21  20
ENDBRANCH  14  18
ENDBRANCH   9  14
TORSDOF 7
ENDMDL
