MODEL 1
REMARK VINA RESULT:       3.0      0.000      0.000
REMARK  Name = 45361621
REMARK  14 active torsions:
REMARK  status: ('A' for Active; 'I' for Inactive)
REMARK    1  A    between atoms: O_1  and  C_12
REMARK    2  A    between atoms: O_4  and  C_34
REMARK    3  A    between atoms: O_4  and  C_37
REMARK    4  A    between atoms: O_5  and  C_36
REMARK    5  A    between atoms: O_5  and  C_38
REMARK    6  A    between atoms: N_6  and  C_16
REMARK    7  A    between atoms: N_7  and  C_26
REMARK    8  A    between atoms: C_9  and  C_19
REMARK    9  A    between atoms: C_11  and  C_21
REMARK   10  A    between atoms: C_15  and  C_20
REMARK   11  A    between atoms: C_20  and  C_22
REMARK   12  A    between atoms: C_20  and  C_23
REMARK   13  A    between atoms: C_24  and  C_25
REMARK   14  A    between atoms: C_26  and  C_28
REMARK                            x       y       z     vdW  Elec       q    Type
REMARK                         _______ _______ _______ _____ _____    ______ ____
ROOT
ATOM      9  C   UNL     1      -3.097  -1.409  24.844  0.00  0.00    -0.027 C 
ATOM     10  C   UNL     1      -2.773  -0.065  24.111  0.00  0.00    +0.028 C 
ATOM     11  C   UNL     1      -1.240   0.267  24.202  0.00  0.00    +0.012 C 
ATOM     12  C   UNL     1      -3.731   1.073  24.569  0.00  0.00    +0.122 C 
ATOM     13  C   UNL     1      -4.589  -1.761  24.639  0.00  0.00    +0.007 C 
ATOM     14  C   UNL     1      -2.255  -2.542  24.214  0.00  0.00    +0.009 C 
ATOM     15  C   UNL     1      -5.222   0.676  24.459  0.00  0.00    +0.029 C 
ATOM     16  C   UNL     1      -0.400  -0.912  23.635  0.00  0.00    +0.076 C 
ATOM     17  C   UNL     1      -5.532  -0.667  25.122  0.00  0.00    +0.007 C 
ATOM     18  C   UNL     1      -0.759  -2.265  24.250  0.00  0.00    +0.023 C 
ATOM     19  C   UNL     1      -2.806  -1.341  26.365  0.00  0.00    +0.011 C 
ATOM     21  C   UNL     1      -0.846   1.563  23.476  0.00  0.00    +0.010 C 
ENDROOT
BRANCH  16   6
ATOM      3  O   UNL     1       1.518  -0.374  21.567  0.00  0.00    -0.269 OA
ATOM      6  N   UNL     1       1.020  -0.691  23.810  0.00  0.00    -0.307 N 
ATOM     24  C   UNL     1       1.865  -0.438  22.743  0.00  0.00    +0.263 C 
ATOM     39  H   UNL     1       1.411  -0.784  24.743  0.00  0.00    +0.149 HD
BRANCH  24  25
ATOM      8  N   UNL     1       3.903  -1.326  23.661  0.00  0.00    -0.250 NA
ATOM     25  C   UNL     1       3.301  -0.260  23.086  0.00  0.00    +0.125 A 
ATOM     27  C   UNL     1       3.940   0.939  22.813  0.00  0.00    +0.033 A 
ATOM     29  C   UNL     1       5.284   1.051  23.153  0.00  0.00    +0.004 A 
ATOM     30  C   UNL     1       5.208  -1.179  23.976  0.00  0.00    +0.111 A 
ATOM     33  C   UNL     1       5.937  -0.022  23.746  0.00  0.00    +0.020 A 
ENDBRANCH  24  25
ENDBRANCH  16   6
BRANCH  12   1
ATOM      1  O   UNL     1      -3.550   2.215  23.730  0.00  0.00    -0.391 OA
ATOM     40  H   UNL     1      -3.102   2.903  24.249  0.00  0.00    +0.210 HD
ENDBRANCH  12   1
BRANCH  15  20
ATOM     20  C   UNL     1      -6.143   1.757  25.036  0.00  0.00    +0.077 C 
ATOM     22  C   UNL     1      -7.319   2.000  24.097  0.00  0.00    +0.017 C 
BRANCH  20  23
ATOM      2  O   UNL     1      -5.238   3.920  24.431  0.00  0.00    -0.276 OA
ATOM      7  N   UNL     1      -4.789   3.083  26.547  0.00  0.00    -0.311 N 
ATOM     23  C   UNL     1      -5.352   3.038  25.280  0.00  0.00    +0.216 C 
ATOM     41  H   UNL     1      -4.961   2.326  27.201  0.00  0.00    +0.149 HD
BRANCH   7  26
ATOM     26  C   UNL     1      -3.993   4.195  27.009  0.00  0.00    +0.139 C 
BRANCH  26  28
ATOM     28  C   UNL     1      -2.745   4.372  26.193  0.00  0.00    -0.027 A 
ATOM     31  C   UNL     1      -1.660   3.517  26.384  0.00  0.00    +0.054 A 
ATOM     32  C   UNL     1      -2.673   5.391  25.243  0.00  0.00    +0.009 A 
ATOM     34  C   UNL     1      -0.501   3.682  25.625  0.00  0.00    +0.162 A 
ATOM     35  C   UNL     1      -1.513   5.556  24.485  0.00  0.00    +0.050 A 
ATOM     36  C   UNL     1      -0.427   4.701  24.675  0.00  0.00    +0.162 A 
BRANCH  34   4
ATOM      4  O   UNL     1       0.552   2.839  25.819  0.00  0.00    -0.491 OA
ATOM     37  C   UNL     1       0.746   2.337  27.139  0.00  0.00    +0.277 C 
ENDBRANCH  34   4
BRANCH  36   5
ATOM      5  O   UNL     1       0.699   4.871  23.928  0.00  0.00    -0.491 OA
ATOM     38  C   UNL     1       0.526   5.351  22.596  0.00  0.00    +0.277 C 
ENDBRANCH  36   5
ENDBRANCH  26  28
ENDBRANCH   7  26
ENDBRANCH  20  23
ENDBRANCH  15  20
TORSDOF 9
ENDMDL
