MODEL 1
REMARK VINA RESULT:      -3.6      0.000      0.000
REMARK  Name = 11942317
REMARK  9 active torsions:
REMARK  status: ('A' for Active; 'I' for Inactive)
REMARK    1  A    between atoms: N_4  and  C_15
REMARK    2  A    between atoms: N_5  and  C_18
REMARK    3  A    between atoms: C_9  and  C_15
REMARK    4  A    between atoms: C_10  and  C_16
REMARK    5  A    between atoms: C_18  and  C_21
REMARK    6  A    between atoms: C_19  and  C_20
REMARK    7  A    between atoms: C_20  and  C_22
REMARK    8  A    between atoms: C_20  and  C_23
REMARK    9  A    between atoms: C_20  and  C_24
REMARK                            x       y       z     vdW  Elec       q    Type
REMARK                         _______ _______ _______ _____ _____    ______ ____
ROOT
ATOM      3  N   UNL     1      -1.859   4.421  25.805  0.00  0.00    -0.297 NA
ATOM      8  C   UNL     1      -3.698   4.049  24.002  0.00  0.00    +0.005 C 
ATOM      9  C   UNL     1      -1.436   3.351  24.863  0.00  0.00    +0.078 C 
ATOM     10  C   UNL     1      -4.288   3.981  25.424  0.00  0.00    +0.092 C 
ATOM     11  C   UNL     1      -2.572   3.003  23.875  0.00  0.00    +0.025 C 
ATOM     12  C   UNL     1      -3.051   5.438  23.856  0.00  0.00    +0.020 C 
ATOM     13  C   UNL     1      -3.145   4.060  26.451  0.00  0.00    +0.097 C 
ATOM     14  C   UNL     1      -2.069   5.663  25.020  0.00  0.00    +0.085 C 
ENDROOT
BRANCH  10  16
ATOM      2  O   UNL     1      -5.940   2.647  26.516  0.00  0.00    -0.275 OA
ATOM      5  N   UNL     1      -4.823   1.772  24.670  0.00  0.00    -0.311 N 
ATOM     16  C   UNL     1      -5.117   2.746  25.608  0.00  0.00    +0.218 C 
ATOM     30  H   UNL     1      -4.121   1.960  23.960  0.00  0.00    +0.149 HD
BRANCH   5  18
ATOM     18  C   UNL     1      -5.467   0.479  24.643  0.00  0.00    +0.139 C 
BRANCH  18  21
ATOM      1  F   UNL     1      -1.748  -3.721  24.999  0.00  0.00    -0.205 F 
ATOM     21  C   UNL     1      -4.473  -0.644  24.738  0.00  0.00    -0.030 A 
ATOM     25  C   UNL     1      -4.468  -1.641  23.770  0.00  0.00    +0.008 A 
ATOM     26  C   UNL     1      -3.570  -0.674  25.793  0.00  0.00    +0.008 A 
ATOM     27  C   UNL     1      -3.546  -2.684  23.859  0.00  0.00    +0.038 A 
ATOM     28  C   UNL     1      -2.647  -1.717  25.882  0.00  0.00    +0.038 A 
ATOM     29  C   UNL     1      -2.635  -2.721  24.914  0.00  0.00    +0.123 A 
ENDBRANCH  18  21
ENDBRANCH   5  18
ENDBRANCH  10  16
BRANCH   9  15
ATOM     15  C   UNL     1      -0.914   2.109  25.589  0.00  0.00    +0.164 C 
BRANCH  15   4
ATOM      4  N   UNL     1      -0.097   1.279  24.719  0.00  0.00    -0.250 N 
ATOM      6  N   UNL     1      -0.570   0.114  24.263  0.00  0.00    -0.065 NA
ATOM      7  N   UNL     1       0.386  -0.418  23.508  0.00  0.00    -0.134 NA
ATOM     17  C   UNL     1       1.158   1.536  24.282  0.00  0.00    +0.134 A 
ATOM     19  C   UNL     1       1.450   0.440  23.510  0.00  0.00    +0.088 A 
BRANCH  19  20
ATOM     20  C   UNL     1       2.676   0.135  22.761  0.00  0.00    +0.008 C 
ATOM     22  C   UNL     1       2.387  -0.315  21.283  0.00  0.00    +0.017 C 
ATOM     23  C   UNL     1       3.517  -1.019  23.419  0.00  0.00    +0.017 C 
ATOM     24  C   UNL     1       3.704   1.321  22.609  0.00  0.00    +0.017 C 
ENDBRANCH  19  20
ENDBRANCH  15   4
ENDBRANCH   9  15
TORSDOF 6
ENDMDL
MODEL 2
REMARK VINA RESULT:      -3.5     16.149     18.855
REMARK  Name = 11942317
REMARK  9 active torsions:
REMARK  status: ('A' for Active; 'I' for Inactive)
REMARK    1  A    between atoms: N_4  and  C_15
REMARK    2  A    between atoms: N_5  and  C_18
REMARK    3  A    between atoms: C_9  and  C_15
REMARK    4  A    between atoms: C_10  and  C_16
REMARK    5  A    between atoms: C_18  and  C_21
REMARK    6  A    between atoms: C_19  and  C_20
REMARK    7  A    between atoms: C_20  and  C_22
REMARK    8  A    between atoms: C_20  and  C_23
REMARK    9  A    between atoms: C_20  and  C_24
REMARK                            x       y       z     vdW  Elec       q    Type
REMARK                         _______ _______ _______ _____ _____    ______ ____
ROOT
ATOM      3  N   UNL     1      15.317  -5.960  31.862  0.00  0.00    -0.297 NA
ATOM      8  C   UNL     1      12.893  -6.410  31.028  0.00  0.00    +0.005 C 
ATOM      9  C   UNL     1      15.352  -6.694  30.568  0.00  0.00    +0.078 C 
ATOM     10  C   UNL     1      13.083  -6.893  32.479  0.00  0.00    +0.092 C 
ATOM     11  C   UNL     1      13.931  -7.107  30.127  0.00  0.00    +0.025 C 
ATOM     12  C   UNL     1      13.213  -4.905  31.016  0.00  0.00    +0.020 C 
ATOM     13  C   UNL     1      14.562  -6.740  32.873  0.00  0.00    +0.097 C 
ATOM     14  C   UNL     1      14.602  -4.679  31.639  0.00  0.00    +0.085 C 
ENDROOT
BRANCH  10  16
ATOM      2  O   UNL     1      13.386  -9.244  32.757  0.00  0.00    -0.275 OA
ATOM      5  N   UNL     1      11.223  -8.393  32.641  0.00  0.00    -0.311 N 
ATOM     16  C   UNL     1      12.604  -8.303  32.648  0.00  0.00    +0.218 C 
ATOM     30  H   UNL     1      10.669  -7.547  32.543  0.00  0.00    +0.149 HD
BRANCH   5  18
ATOM     18  C   UNL     1      10.511  -9.644  32.764  0.00  0.00    +0.139 C 
BRANCH  18  21
ATOM      1  F   UNL     1       5.556  -9.506  30.113  0.00  0.00    -0.205 F 
ATOM     21  C   UNL     1       9.187  -9.608  32.055  0.00  0.00    -0.030 A 
ATOM     25  C   UNL     1       8.813 -10.671  31.242  0.00  0.00    +0.008 A 
ATOM     26  C   UNL     1       8.350  -8.511  32.220  0.00  0.00    +0.008 A 
ATOM     27  C   UNL     1       7.584 -10.635  30.583  0.00  0.00    +0.038 A 
ATOM     28  C   UNL     1       7.120  -8.476  31.562  0.00  0.00    +0.038 A 
ATOM     29  C   UNL     1       6.737  -9.539  30.744  0.00  0.00    +0.123 A 
ENDBRANCH  18  21
ENDBRANCH   5  18
ENDBRANCH  10  16
BRANCH   9  15
ATOM     15  C   UNL     1      16.308  -7.889  30.602  0.00  0.00    +0.164 C 
BRANCH  15   4
ATOM      4  N   UNL     1      16.259  -8.655  29.368  0.00  0.00    -0.250 N 
ATOM      6  N   UNL     1      16.156  -9.987  29.407  0.00  0.00    -0.065 NA
ATOM      7  N   UNL     1      16.138 -10.408  28.147  0.00  0.00    -0.134 NA
ATOM     17  C   UNL     1      16.310  -8.176  28.103  0.00  0.00    +0.134 A 
ATOM     19  C   UNL     1      16.233  -9.312  27.336  0.00  0.00    +0.088 A 
BRANCH  19  20
ATOM     20  C   UNL     1      16.240  -9.443  25.874  0.00  0.00    +0.008 C 
ATOM     22  C   UNL     1      16.907 -10.781  25.389  0.00  0.00    +0.017 C 
ATOM     23  C   UNL     1      17.023  -8.278  25.165  0.00  0.00    +0.017 C 
ATOM     24  C   UNL     1      14.828  -9.439  25.173  0.00  0.00    +0.017 C 
ENDBRANCH  19  20
ENDBRANCH  15   4
ENDBRANCH   9  15
TORSDOF 6
ENDMDL
MODEL 3
REMARK VINA RESULT:      -3.0     16.161     18.458
REMARK  Name = 11942317
REMARK  9 active torsions:
REMARK  status: ('A' for Active; 'I' for Inactive)
REMARK    1  A    between atoms: N_4  and  C_15
REMARK    2  A    between atoms: N_5  and  C_18
REMARK    3  A    between atoms: C_9  and  C_15
REMARK    4  A    between atoms: C_10  and  C_16
REMARK    5  A    between atoms: C_18  and  C_21
REMARK    6  A    between atoms: C_19  and  C_20
REMARK    7  A    between atoms: C_20  and  C_22
REMARK    8  A    between atoms: C_20  and  C_23
REMARK    9  A    between atoms: C_20  and  C_24
REMARK                            x       y       z     vdW  Elec       q    Type
REMARK                         _______ _______ _______ _____ _____    ______ ____
ROOT
ATOM      3  N   UNL     1      15.551  -6.583  31.297  0.00  0.00    -0.297 NA
ATOM      8  C   UNL     1      12.990  -6.389  31.718  0.00  0.00    +0.005 C 
ATOM      9  C   UNL     1      14.833  -6.439  30.002  0.00  0.00    +0.078 C 
ATOM     10  C   UNL     1      13.580  -7.625  32.424  0.00  0.00    +0.092 C 
ATOM     11  C   UNL     1      13.303  -6.475  30.211  0.00  0.00    +0.025 C 
ATOM     12  C   UNL     1      13.737  -5.163  32.271  0.00  0.00    +0.020 C 
ATOM     13  C   UNL     1      15.059  -7.777  32.027  0.00  0.00    +0.097 C 
ATOM     14  C   UNL     1      15.254  -5.383  32.118  0.00  0.00    +0.085 C 
ENDROOT
BRANCH  10  16
ATOM      2  O   UNL     1      13.270  -9.789  31.465  0.00  0.00    -0.275 OA
ATOM      5  N   UNL     1      11.498  -8.794  32.600  0.00  0.00    -0.311 N 
ATOM     16  C   UNL     1      12.790  -8.859  32.108  0.00  0.00    +0.218 C 
ATOM     30  H   UNL     1      11.203  -7.972  33.120  0.00  0.00    +0.149 HD
BRANCH   5  18
ATOM     18  C   UNL     1      10.525  -9.846  32.411  0.00  0.00    +0.139 C 
BRANCH  18  21
ATOM      1  F   UNL     1       5.273  -7.847  32.288  0.00  0.00    -0.205 F 
ATOM     21  C   UNL     1       9.122  -9.312  32.378  0.00  0.00    -0.030 A 
ATOM     25  C   UNL     1       8.088 -10.124  31.926  0.00  0.00    +0.008 A 
ATOM     26  C   UNL     1       8.872  -8.011  32.798  0.00  0.00    +0.008 A 
ATOM     27  C   UNL     1       6.785  -9.627  31.895  0.00  0.00    +0.038 A 
ATOM     28  C   UNL     1       7.568  -7.515  32.768  0.00  0.00    +0.038 A 
ATOM     29  C   UNL     1       6.525  -8.323  32.317  0.00  0.00    +0.123 A 
ENDBRANCH  18  21
ENDBRANCH   5  18
ENDBRANCH  10  16
BRANCH   9  15
ATOM     15  C   UNL     1      15.291  -7.466  28.965  0.00  0.00    +0.164 C 
BRANCH  15   4
ATOM      4  N   UNL     1      15.936  -6.834  27.826  0.00  0.00    -0.250 N 
ATOM      6  N   UNL     1      17.046  -7.365  27.302  0.00  0.00    -0.065 NA
ATOM      7  N   UNL     1      17.405  -6.581  26.292  0.00  0.00    -0.134 NA
ATOM     17  C   UNL     1      15.547  -5.709  27.183  0.00  0.00    +0.134 A 
ATOM     19  C   UNL     1      16.499  -5.562  26.206  0.00  0.00    +0.088 A 
BRANCH  19  20
ATOM     20  C   UNL     1      16.619  -4.518  25.181  0.00  0.00    +0.008 C 
ATOM     22  C   UNL     1      17.371  -5.016  23.894  0.00  0.00    +0.017 C 
ATOM     23  C   UNL     1      17.405  -3.256  25.692  0.00  0.00    +0.017 C 
ATOM     24  C   UNL     1      15.263  -3.929  24.632  0.00  0.00    +0.017 C 
ENDBRANCH  19  20
ENDBRANCH  15   4
ENDBRANCH   9  15
TORSDOF 6
ENDMDL
MODEL 4
REMARK VINA RESULT:      -2.9      2.397      5.811
REMARK  Name = 11942317
REMARK  9 active torsions:
REMARK  status: ('A' for Active; 'I' for Inactive)
REMARK    1  A    between atoms: N_4  and  C_15
REMARK    2  A    between atoms: N_5  and  C_18
REMARK    3  A    between atoms: C_9  and  C_15
REMARK    4  A    between atoms: C_10  and  C_16
REMARK    5  A    between atoms: C_18  and  C_21
REMARK    6  A    between atoms: C_19  and  C_20
REMARK    7  A    between atoms: C_20  and  C_22
REMARK    8  A    between atoms: C_20  and  C_23
REMARK    9  A    between atoms: C_20  and  C_24
REMARK                            x       y       z     vdW  Elec       q    Type
REMARK                         _______ _______ _______ _____ _____    ______ ____
ROOT
ATOM      3  N   UNL     1      -2.644   4.269  23.655  0.00  0.00    -0.297 NA
ATOM      8  C   UNL     1      -1.337   3.423  25.741  0.00  0.00    +0.005 C 
ATOM      9  C   UNL     1      -3.546   3.475  24.532  0.00  0.00    +0.078 C 
ATOM     10  C   UNL     1      -0.603   3.058  24.437  0.00  0.00    +0.092 C 
ATOM     11  C   UNL     1      -2.761   2.834  25.698  0.00  0.00    +0.025 C 
ATOM     12  C   UNL     1      -1.477   4.956  25.759  0.00  0.00    +0.020 C 
ATOM     13  C   UNL     1      -1.482   3.448  23.235  0.00  0.00    +0.097 C 
ATOM     14  C   UNL     1      -2.136   5.418  24.446  0.00  0.00    +0.085 C 
ENDROOT
BRANCH  10  16
ATOM      2  O   UNL     1      -0.578   0.834  25.303  0.00  0.00    -0.275 OA
ATOM      5  N   UNL     1       0.527   1.277  23.303  0.00  0.00    -0.311 N 
ATOM     16  C   UNL     1      -0.235   1.605  24.410  0.00  0.00    +0.218 C 
ATOM     30  H   UNL     1       0.755   1.998  22.623  0.00  0.00    +0.149 HD
BRANCH   5  18
ATOM     18  C   UNL     1       1.030  -0.054  23.054  0.00  0.00    +0.139 C 
BRANCH  18  21
ATOM      1  F   UNL     1       6.630  -0.296  23.479  0.00  0.00    -0.205 F 
ATOM     21  C   UNL     1       2.526  -0.119  23.168  0.00  0.00    -0.030 A 
ATOM     25  C   UNL     1       3.127  -1.257  23.693  0.00  0.00    +0.008 A 
ATOM     26  C   UNL     1       3.295   0.960  22.748  0.00  0.00    +0.008 A 
ATOM     27  C   UNL     1       4.517  -1.316  23.799  0.00  0.00    +0.038 A 
ATOM     28  C   UNL     1       4.684   0.900  22.853  0.00  0.00    +0.038 A 
ATOM     29  C   UNL     1       5.296  -0.238  23.379  0.00  0.00    +0.123 A 
ENDBRANCH  18  21
ENDBRANCH   5  18
ENDBRANCH  10  16
BRANCH   9  15
ATOM     15  C   UNL     1      -4.352   2.436  23.750  0.00  0.00    +0.164 C 
BRANCH  15   4
ATOM      4  N   UNL     1      -4.163   1.095  24.278  0.00  0.00    -0.250 N 
ATOM      6  N   UNL     1      -4.697   0.755  25.456  0.00  0.00    -0.065 NA
ATOM      7  N   UNL     1      -4.358  -0.510  25.679  0.00  0.00    -0.134 NA
ATOM     17  C   UNL     1      -3.473   0.079  23.710  0.00  0.00    +0.134 A 
ATOM     19  C   UNL     1      -3.609  -0.939  24.620  0.00  0.00    +0.088 A 
BRANCH  19  20
ATOM     20  C   UNL     1      -3.077  -2.306  24.565  0.00  0.00    +0.008 C 
ATOM     22  C   UNL     1      -3.863  -3.222  23.557  0.00  0.00    +0.017 C 
ATOM     23  C   UNL     1      -3.131  -3.033  25.958  0.00  0.00    +0.017 C 
ATOM     24  C   UNL     1      -1.571  -2.444  24.118  0.00  0.00    +0.017 C 
ENDBRANCH  19  20
ENDBRANCH  15   4
ENDBRANCH   9  15
TORSDOF 6
ENDMDL
MODEL 5
REMARK VINA RESULT:      -1.8      2.269      4.995
REMARK  Name = 11942317
REMARK  9 active torsions:
REMARK  status: ('A' for Active; 'I' for Inactive)
REMARK    1  A    between atoms: N_4  and  C_15
REMARK    2  A    between atoms: N_5  and  C_18
REMARK    3  A    between atoms: C_9  and  C_15
REMARK    4  A    between atoms: C_10  and  C_16
REMARK    5  A    between atoms: C_18  and  C_21
REMARK    6  A    between atoms: C_19  and  C_20
REMARK    7  A    between atoms: C_20  and  C_22
REMARK    8  A    between atoms: C_20  and  C_23
REMARK    9  A    between atoms: C_20  and  C_24
REMARK                            x       y       z     vdW  Elec       q    Type
REMARK                         _______ _______ _______ _____ _____    ______ ____
ROOT
ATOM      3  N   UNL     1      -2.794  -1.683  23.675  0.00  0.00    -0.297 NA
ATOM      8  C   UNL     1      -3.394  -1.114  26.143  0.00  0.00    +0.005 C 
ATOM      9  C   UNL     1      -1.714  -0.862  24.284  0.00  0.00    +0.078 C 
ATOM     10  C   UNL     1      -4.545  -0.739  25.188  0.00  0.00    +0.092 C 
ATOM     11  C   UNL     1      -2.113  -0.382  25.697  0.00  0.00    +0.025 C 
ATOM     12  C   UNL     1      -3.145  -2.623  25.967  0.00  0.00    +0.020 C 
ATOM     13  C   UNL     1      -4.087  -0.958  23.735  0.00  0.00    +0.097 C 
ATOM     14  C   UNL     1      -2.926  -2.928  24.473  0.00  0.00    +0.085 C 
ENDROOT
BRANCH  10  16
ATOM      2  O   UNL     1      -5.826   0.944  26.293  0.00  0.00    -0.275 OA
ATOM      5  N   UNL     1      -4.422   1.563  24.543  0.00  0.00    -0.311 N 
ATOM     16  C   UNL     1      -5.006   0.667  25.421  0.00  0.00    +0.218 C 
ATOM     30  H   UNL     1      -3.754   1.225  23.856  0.00  0.00    +0.149 HD
BRANCH   5  18
ATOM     18  C   UNL     1      -4.716   2.978  24.543  0.00  0.00    +0.139 C 
BRANCH  18  21
ATOM      1  F   UNL     1      -0.062   6.090  25.038  0.00  0.00    -0.205 F 
ATOM     21  C   UNL     1      -3.472   3.809  24.676  0.00  0.00    -0.030 A 
ATOM     25  C   UNL     1      -2.368   3.293  25.344  0.00  0.00    +0.008 A 
ATOM     26  C   UNL     1      -3.439   5.087  24.129  0.00  0.00    +0.008 A 
ATOM     27  C   UNL     1      -1.214   4.067  25.467  0.00  0.00    +0.038 A 
ATOM     28  C   UNL     1      -2.283   5.859  24.252  0.00  0.00    +0.038 A 
ATOM     29  C   UNL     1      -1.171   5.349  24.921  0.00  0.00    +0.123 A 
ENDBRANCH  18  21
ENDBRANCH   5  18
ENDBRANCH  10  16
BRANCH   9  15
ATOM     15  C   UNL     1      -1.291   0.302  23.386  0.00  0.00    +0.164 C 
BRANCH  15   4
ATOM      4  N   UNL     1       0.142   0.537  23.444  0.00  0.00    -0.250 N 
ATOM      6  N   UNL     1       0.619   1.651  24.008  0.00  0.00    -0.065 NA
ATOM      7  N   UNL     1       1.943   1.593  23.912  0.00  0.00    -0.134 NA
ATOM     17  C   UNL     1       1.124  -0.266  22.972  0.00  0.00    +0.134 A 
ATOM     19  C   UNL     1       2.268   0.426  23.280  0.00  0.00    +0.088 A 
BRANCH  19  20
ATOM     20  C   UNL     1       3.667   0.064  23.019  0.00  0.00    +0.008 C 
ATOM     22  C   UNL     1       4.042   0.156  21.495  0.00  0.00    +0.017 C 
ATOM     23  C   UNL     1       4.007  -1.403  23.470  0.00  0.00    +0.017 C 
ATOM     24  C   UNL     1       4.755   0.949  23.738  0.00  0.00    +0.017 C 
ENDBRANCH  19  20
ENDBRANCH  15   4
ENDBRANCH   9  15
TORSDOF 6
ENDMDL
MODEL 6
REMARK VINA RESULT:      -1.4      2.379      5.513
REMARK  Name = 11942317
REMARK  9 active torsions:
REMARK  status: ('A' for Active; 'I' for Inactive)
REMARK    1  A    between atoms: N_4  and  C_15
REMARK    2  A    between atoms: N_5  and  C_18
REMARK    3  A    between atoms: C_9  and  C_15
REMARK    4  A    between atoms: C_10  and  C_16
REMARK    5  A    between atoms: C_18  and  C_21
REMARK    6  A    between atoms: C_19  and  C_20
REMARK    7  A    between atoms: C_20  and  C_22
REMARK    8  A    between atoms: C_20  and  C_23
REMARK    9  A    between atoms: C_20  and  C_24
REMARK                            x       y       z     vdW  Elec       q    Type
REMARK                         _______ _______ _______ _____ _____    ______ ____
ROOT
ATOM      3  N   UNL     1      -3.675   4.102  24.381  0.00  0.00    -0.297 NA
ATOM      8  C   UNL     1      -1.327   3.217  25.069  0.00  0.00    +0.005 C 
ATOM      9  C   UNL     1      -3.808   3.117  25.488  0.00  0.00    +0.078 C 
ATOM     10  C   UNL     1      -1.552   3.081  23.551  0.00  0.00    +0.092 C 
ATOM     11  C   UNL     1      -2.447   2.463  25.813  0.00  0.00    +0.025 C 
ATOM     12  C   UNL     1      -1.477   4.710  25.408  0.00  0.00    +0.020 C 
ATOM     13  C   UNL     1      -3.000   3.479  23.217  0.00  0.00    +0.097 C 
ATOM     14  C   UNL     1      -2.825   5.219  24.865  0.00  0.00    +0.085 C 
ENDROOT
BRANCH  10  16
ATOM      2  O   UNL     1      -2.031   1.035  22.418  0.00  0.00    -0.275 OA
ATOM      5  N   UNL     1       0.022   1.277  23.488  0.00  0.00    -0.311 N 
ATOM     16  C   UNL     1      -1.232   1.695  23.078  0.00  0.00    +0.218 C 
ATOM     30  H   UNL     1       0.603   1.907  24.034  0.00  0.00    +0.149 HD
BRANCH   5  18
ATOM     18  C   UNL     1       0.560  -0.029  23.183  0.00  0.00    +0.139 C 
BRANCH  18  21
ATOM      1  F   UNL     1       6.181  -0.043  23.213  0.00  0.00    -0.205 F 
ATOM     21  C   UNL     1       2.062  -0.032  23.191  0.00  0.00    -0.030 A 
ATOM     25  C   UNL     1       2.754   1.110  22.807  0.00  0.00    +0.008 A 
ATOM     26  C   UNL     1       2.744  -1.178  23.581  0.00  0.00    +0.008 A 
ATOM     27  C   UNL     1       4.149   1.106  22.814  0.00  0.00    +0.038 A 
ATOM     28  C   UNL     1       4.139  -1.182  23.589  0.00  0.00    +0.038 A 
ATOM     29  C   UNL     1       4.842  -0.039  23.205  0.00  0.00    +0.123 A 
ENDBRANCH  18  21
ENDBRANCH   5  18
ENDBRANCH  10  16
BRANCH   9  15
ATOM     15  C   UNL     1      -4.890   2.072  25.211  0.00  0.00    +0.164 C 
BRANCH  15   4
ATOM      4  N   UNL     1      -4.319   0.772  24.899  0.00  0.00    -0.250 N 
ATOM      6  N   UNL     1      -4.832   0.032  23.911  0.00  0.00    -0.065 NA
ATOM      7  N   UNL     1      -4.119  -1.089  23.863  0.00  0.00    -0.134 NA
ATOM     17  C   UNL     1      -3.276   0.167  25.513  0.00  0.00    +0.134 A 
ATOM     19  C   UNL     1      -3.163  -1.022  24.837  0.00  0.00    +0.088 A 
BRANCH  19  20
ATOM     20  C   UNL     1      -2.207  -2.117  25.044  0.00  0.00    +0.008 C 
ATOM     22  C   UNL     1      -2.808  -3.294  25.895  0.00  0.00    +0.017 C 
ATOM     23  C   UNL     1      -0.905  -1.650  25.792  0.00  0.00    +0.017 C 
ATOM     24  C   UNL     1      -1.668  -2.820  23.739  0.00  0.00    +0.017 C 
ENDBRANCH  19  20
ENDBRANCH  15   4
ENDBRANCH   9  15
TORSDOF 6
ENDMDL
