MODEL 1
REMARK VINA RESULT:      -5.4      0.000      0.000
REMARK  Name = 28990599
REMARK  3 active torsions:
REMARK  status: ('A' for Active; 'I' for Inactive)
REMARK    1  A    between atoms: N_3  and  C_13
REMARK    2  A    between atoms: C_13  and  C_18
REMARK    3  A    between atoms: C_16  and  C_19
REMARK                            x       y       z     vdW  Elec       q    Type
REMARK                         _______ _______ _______ _____ _____    ______ ____
ROOT
ATOM      2  O   UNL     1      16.195  -7.475  25.593  0.00  0.00    -0.267 OA
ATOM      3  N   UNL     1      14.326  -9.441  29.812  0.00  0.00    -0.296 NA
ATOM      4  N   UNL     1      16.483  -8.313  27.750  0.00  0.00    -0.311 N 
ATOM      6  C   UNL     1      15.928 -10.734  28.380  0.00  0.00    +0.024 C 
ATOM      7  C   UNL     1      16.799  -9.205  30.083  0.00  0.00    +0.050 C 
ATOM      8  C   UNL     1      17.027 -10.561  29.419  0.00  0.00    +0.017 C 
ATOM      9  C   UNL     1      14.544 -10.684  29.062  0.00  0.00    +0.090 C 
ATOM     10  C   UNL     1      15.414  -9.194  30.770  0.00  0.00    +0.094 C 
ATOM     11  C   UNL     1      16.093  -9.656  27.300  0.00  0.00    +0.130 C 
ATOM     12  C   UNL     1      16.896  -8.084  29.066  0.00  0.00    +0.026 A 
ATOM     14  C   UNL     1      17.355  -6.875  29.427  0.00  0.00    +0.022 A 
ATOM     15  C   UNL     1      16.519  -7.301  26.770  0.00  0.00    +0.260 A 
ATOM     16  C   UNL     1      17.006  -5.948  27.214  0.00  0.00    +0.053 A 
ATOM     17  C   UNL     1      17.403  -5.793  28.485  0.00  0.00    +0.016 A 
ENDROOT
BRANCH  16  19
ATOM      1  S   UNL     1      17.374  -3.245  26.880  0.00  0.00    -0.088 S 
ATOM     19  C   UNL     1      17.042  -4.806  26.282  0.00  0.00    +0.026 A 
ATOM     21  C   UNL     1      16.835  -4.806  24.923  0.00  0.00    +0.024 A 
ATOM     22  C   UNL     1      16.949  -3.498  24.342  0.00  0.00    -0.010 A 
ATOM     23  C   UNL     1      17.245  -2.536  25.313  0.00  0.00    +0.020 A 
ATOM     27  C   UNL     1      16.810  -3.072  22.998  0.00  0.00    +0.009 A 
ATOM     28  C   UNL     1      17.405  -1.177  24.979  0.00  0.00    +0.015 A 
ATOM     29  C   UNL     1      16.968  -1.724  22.664  0.00  0.00    +0.001 A 
ATOM     30  C   UNL     1      17.262  -0.788  23.645  0.00  0.00    +0.001 A 
ENDBRANCH  16  19
BRANCH   3  13
ATOM     13  C   UNL     1      13.030  -9.454  30.484  0.00  0.00    +0.139 C 
BRANCH  13  18
ATOM      5  N   UNL     1      11.880  -8.071  32.122  0.00  0.00    -0.259 NA
ATOM     18  C   UNL     1      12.662  -8.096  31.021  0.00  0.00    +0.055 A 
ATOM     20  C   UNL     1      13.133  -6.963  30.377  0.00  0.00    +0.024 A 
ATOM     24  C   UNL     1      12.777  -5.724  30.898  0.00  0.00    +0.003 A 
ATOM     25  C   UNL     1      11.554  -6.849  32.599  0.00  0.00    +0.111 A 
ATOM     26  C   UNL     1      11.972  -5.657  32.030  0.00  0.00    +0.020 A 
ENDBRANCH  13  18
ENDBRANCH   3  13
TORSDOF 3
ENDMDL
