MODEL 1
REMARK VINA RESULT:      -2.4      0.000      0.000
REMARK  Name = 71693203
REMARK  16 active torsions:
REMARK  status: ('A' for Active; 'I' for Inactive)
REMARK    1  A    between atoms: O_2  and  C_30
REMARK    2  A    between atoms: N_4  and  C_14
REMARK    3  A    between atoms: C_7  and  C_11
REMARK    4  A    between atoms: C_8  and  C_14
REMARK    5  A    between atoms: C_10  and  C_15
REMARK    6  A    between atoms: C_11  and  C_16
REMARK    7  A    between atoms: C_11  and  C_17
REMARK    8  A    between atoms: C_12  and  C_18
REMARK    9  A    between atoms: C_15  and  C_19
REMARK   10  A    between atoms: C_20  and  C_22
REMARK   11  A    between atoms: C_21  and  C_22
REMARK   12  A    between atoms: C_21  and  C_25
REMARK   13  A    between atoms: C_21  and  C_26
REMARK   14  A    between atoms: C_21  and  C_27
REMARK   15  A    between atoms: C_25  and  C_30
REMARK   16  A    between atoms: C_28  and  C_33
REMARK                            x       y       z     vdW  Elec       q    Type
REMARK                         _______ _______ _______ _____ _____    ______ ____
ROOT
ATOM      7  C   UNL     1      -2.637   2.347  23.631  0.00  0.00    +0.000 C 
ATOM      8  C   UNL     1      -1.447   2.854  24.483  0.00  0.00    +0.032 C 
ATOM      9  C   UNL     1      -3.753   3.401  23.586  0.00  0.00    +0.012 C 
ATOM     10  C   UNL     1      -4.276   3.758  24.991  0.00  0.00    +0.022 C 
ATOM     12  C   UNL     1      -3.143   4.012  25.964  0.00  0.00    -0.073 C 
ATOM     13  C   UNL     1      -1.883   3.613  25.715  0.00  0.00    -0.022 C 
ATOM     18  C   UNL     1      -3.483   4.776  27.214  0.00  0.00    +0.039 C 
ENDROOT
BRANCH   7  11
ATOM     11  C   UNL     1      -2.205   1.989  22.206  0.00  0.00    -0.013 C 
ATOM     16  C   UNL     1      -2.951   2.849  21.191  0.00  0.00    +0.007 C 
ATOM     17  C   UNL     1      -2.439   0.506  21.935  0.00  0.00    +0.007 C 
ENDBRANCH   7  11
BRANCH   8  14
ATOM     14  C   UNL     1      -0.528   1.699  24.894  0.00  0.00    +0.112 C 
BRANCH  14   4
ATOM      1  O   UNL     1       0.211  -0.984  24.158  0.00  0.00    -0.276 OA
ATOM      4  N   UNL     1       0.315   1.310  23.807  0.00  0.00    -0.315 N 
ATOM     20  C   UNL     1       0.623  -0.018  23.519  0.00  0.00    +0.214 C 
ATOM     34  H   UNL     1       0.661   2.032  23.181  0.00  0.00    +0.149 HD
BRANCH  20  22
ATOM     22  C   UNL     1       1.533  -0.185  22.313  0.00  0.00    +0.102 C 
BRANCH  22  21
ATOM     21  C   UNL     1       2.993   0.289  22.528  0.00  0.00    -0.017 C 
ATOM     26  C   UNL     1       3.736   0.373  21.178  0.00  0.00    +0.012 C 
ATOM     27  C   UNL     1       2.947   1.714  23.118  0.00  0.00    +0.012 C 
BRANCH  21  25
ATOM     25  C   UNL     1       3.799  -0.648  23.458  0.00  0.00    +0.127 C 
BRANCH  25  30
ATOM      3  O   UNL     1       6.170  -0.346  23.071  0.00  0.00    -0.251 OA
ATOM     30  C   UNL     1       5.195  -0.168  23.789  0.00  0.00    +0.305 C 
BRANCH  30   2
ATOM      2  O   UNL     1       5.262   0.480  24.979  0.00  0.00    -0.481 OA
ATOM     36  H   UNL     1       5.352   1.450  24.862  0.00  0.00    +0.295 HD
ENDBRANCH  30   2
ENDBRANCH  25  30
ENDBRANCH  21  25
ENDBRANCH  22  21
ENDBRANCH  20  22
ENDBRANCH  14   4
ENDBRANCH   8  14
BRANCH  10  15
ATOM     15  C   UNL     1      -5.221   2.674  25.519  0.00  0.00    +0.082 C 
BRANCH  15  19
ATOM      5  N   UNL     1      -5.218   0.442  24.389  0.00  0.00    -0.342 N 
ATOM      6  N   UNL     1      -3.621   0.766  25.901  0.00  0.00    -0.232 NA
ATOM     19  C   UNL     1      -4.659   1.300  25.296  0.00  0.00    +0.109 A 
ATOM     23  C   UNL     1      -4.492  -0.722  24.410  0.00  0.00    +0.066 A 
ATOM     24  C   UNL     1      -3.502  -0.493  25.362  0.00  0.00    +0.092 A 
ATOM     28  C   UNL     1      -2.568  -1.508  25.634  0.00  0.00    -0.023 A 
ATOM     29  C   UNL     1      -4.613  -1.917  23.701  0.00  0.00    +0.028 A 
ATOM     31  C   UNL     1      -2.670  -2.717  24.934  0.00  0.00    +0.005 A 
ATOM     32  C   UNL     1      -3.675  -2.915  23.985  0.00  0.00    +0.002 A 
ATOM     33  C   UNL     1      -1.475  -1.344  26.639  0.00  0.00    +0.046 C 
ATOM     35  H   UNL     1      -6.022   0.630  23.806  0.00  0.00    +0.167 HD
ENDBRANCH  15  19
ENDBRANCH  10  15
TORSDOF 10
ENDMDL
MODEL 2
REMARK VINA RESULT:      -1.9      2.040      5.441
REMARK  Name = 71693203
REMARK  16 active torsions:
REMARK  status: ('A' for Active; 'I' for Inactive)
REMARK    1  A    between atoms: O_2  and  C_30
REMARK    2  A    between atoms: N_4  and  C_14
REMARK    3  A    between atoms: C_7  and  C_11
REMARK    4  A    between atoms: C_8  and  C_14
REMARK    5  A    between atoms: C_10  and  C_15
REMARK    6  A    between atoms: C_11  and  C_16
REMARK    7  A    between atoms: C_11  and  C_17
REMARK    8  A    between atoms: C_12  and  C_18
REMARK    9  A    between atoms: C_15  and  C_19
REMARK   10  A    between atoms: C_20  and  C_22
REMARK   11  A    between atoms: C_21  and  C_22
REMARK   12  A    between atoms: C_21  and  C_25
REMARK   13  A    between atoms: C_21  and  C_26
REMARK   14  A    between atoms: C_21  and  C_27
REMARK   15  A    between atoms: C_25  and  C_30
REMARK   16  A    between atoms: C_28  and  C_33
REMARK                            x       y       z     vdW  Elec       q    Type
REMARK                         _______ _______ _______ _____ _____    ______ ____
ROOT
ATOM      7  C   UNL     1      -3.672   3.240  25.575  0.00  0.00    +0.000 C 
ATOM      8  C   UNL     1      -3.683   3.634  24.077  0.00  0.00    +0.032 C 
ATOM      9  C   UNL     1      -2.654   4.093  26.347  0.00  0.00    +0.012 C 
ATOM     10  C   UNL     1      -1.225   3.940  25.792  0.00  0.00    +0.022 C 
ATOM     12  C   UNL     1      -1.194   4.051  24.281  0.00  0.00    -0.073 C 
ATOM     13  C   UNL     1      -2.304   3.924  23.532  0.00  0.00    -0.022 C 
ATOM     18  C   UNL     1       0.138   4.354  23.652  0.00  0.00    +0.039 C 
ENDROOT
BRANCH   7  11
ATOM     11  C   UNL     1      -5.058   3.385  26.212  0.00  0.00    -0.013 C 
ATOM     16  C   UNL     1      -5.829   2.073  26.114  0.00  0.00    +0.007 C 
ATOM     17  C   UNL     1      -5.833   4.519  25.547  0.00  0.00    +0.007 C 
ENDBRANCH   7  11
BRANCH   8  14
ATOM     14  C   UNL     1      -4.351   2.549  23.225  0.00  0.00    +0.112 C 
BRANCH  14   4
ATOM      1  O   UNL     1      -5.099  -0.046  24.219  0.00  0.00    -0.276 OA
ATOM      4  N   UNL     1      -3.556   1.361  23.202  0.00  0.00    -0.315 N 
ATOM     20  C   UNL     1      -3.997   0.139  23.707  0.00  0.00    +0.214 C 
ATOM     34  H   UNL     1      -2.648   1.395  22.746  0.00  0.00    +0.149 HD
BRANCH  20  22
ATOM     22  C   UNL     1      -2.979  -0.981  23.567  0.00  0.00    +0.102 C 
BRANCH  22  21
ATOM     21  C   UNL     1      -3.027  -2.048  24.691  0.00  0.00    -0.017 C 
ATOM     26  C   UNL     1      -3.564  -1.428  25.999  0.00  0.00    +0.012 C 
ATOM     27  C   UNL     1      -4.019  -3.148  24.260  0.00  0.00    +0.012 C 
BRANCH  21  25
ATOM     25  C   UNL     1      -1.641  -2.666  24.991  0.00  0.00    +0.127 C 
BRANCH  25  30
ATOM      3  O   UNL     1      -1.047  -0.820  26.441  0.00  0.00    -0.251 OA
ATOM     30  C   UNL     1      -0.690  -1.759  25.741  0.00  0.00    +0.305 C 
BRANCH  30   2
ATOM      2  O   UNL     1       0.612  -2.087  25.552  0.00  0.00    -0.481 OA
ATOM     36  H   UNL     1       1.035  -2.398  26.381  0.00  0.00    +0.295 HD
ENDBRANCH  30   2
ENDBRANCH  25  30
ENDBRANCH  21  25
ENDBRANCH  22  21
ENDBRANCH  20  22
ENDBRANCH  14   4
ENDBRANCH   8  14
BRANCH  10  15
ATOM     15  C   UNL     1      -0.589   2.627  26.260  0.00  0.00    +0.082 C 
BRANCH  15  19
ATOM      5  N   UNL     1      -0.686   1.077  24.298  0.00  0.00    -0.342 N 
ATOM      6  N   UNL     1       1.316   1.919  24.772  0.00  0.00    -0.232 NA
ATOM     19  C   UNL     1       0.049   1.889  25.119  0.00  0.00    +0.109 A 
ATOM     23  C   UNL     1       0.165   0.549  23.361  0.00  0.00    +0.066 A 
ATOM     24  C   UNL     1       1.408   1.090  23.679  0.00  0.00    +0.092 A 
ATOM     28  C   UNL     1       2.524   0.746  22.897  0.00  0.00    -0.023 A 
ATOM     29  C   UNL     1      -0.039  -0.329  22.296  0.00  0.00    +0.028 A 
ATOM     31  C   UNL     1       2.342  -0.134  21.823  0.00  0.00    +0.005 A 
ATOM     32  C   UNL     1       1.082  -0.660  21.529  0.00  0.00    +0.002 A 
ATOM     33  C   UNL     1       3.892   1.282  23.170  0.00  0.00    +0.046 C 
ATOM     35  H   UNL     1      -1.678   0.897  24.369  0.00  0.00    +0.167 HD
ENDBRANCH  15  19
ENDBRANCH  10  15
TORSDOF 10
ENDMDL
MODEL 3
REMARK VINA RESULT:      -0.8      1.455      4.626
REMARK  Name = 71693203
REMARK  16 active torsions:
REMARK  status: ('A' for Active; 'I' for Inactive)
REMARK    1  A    between atoms: O_2  and  C_30
REMARK    2  A    between atoms: N_4  and  C_14
REMARK    3  A    between atoms: C_7  and  C_11
REMARK    4  A    between atoms: C_8  and  C_14
REMARK    5  A    between atoms: C_10  and  C_15
REMARK    6  A    between atoms: C_11  and  C_16
REMARK    7  A    between atoms: C_11  and  C_17
REMARK    8  A    between atoms: C_12  and  C_18
REMARK    9  A    between atoms: C_15  and  C_19
REMARK   10  A    between atoms: C_20  and  C_22
REMARK   11  A    between atoms: C_21  and  C_22
REMARK   12  A    between atoms: C_21  and  C_25
REMARK   13  A    between atoms: C_21  and  C_26
REMARK   14  A    between atoms: C_21  and  C_27
REMARK   15  A    between atoms: C_25  and  C_30
REMARK   16  A    between atoms: C_28  and  C_33
REMARK                            x       y       z     vdW  Elec       q    Type
REMARK                         _______ _______ _______ _____ _____    ______ ____
ROOT
ATOM      7  C   UNL     1      -1.747  -0.758  25.233  0.00  0.00    +0.000 C 
ATOM      8  C   UNL     1      -1.605  -2.260  24.880  0.00  0.00    +0.032 C 
ATOM      9  C   UNL     1      -3.165  -0.459  25.741  0.00  0.00    +0.012 C 
ATOM     10  C   UNL     1      -4.246  -0.821  24.704  0.00  0.00    +0.022 C 
ATOM     12  C   UNL     1      -4.016  -2.195  24.109  0.00  0.00    -0.073 C 
ATOM     13  C   UNL     1      -2.833  -2.829  24.209  0.00  0.00    -0.022 C 
ATOM     18  C   UNL     1      -5.192  -2.845  23.434  0.00  0.00    +0.039 C 
ENDROOT
BRANCH   7  11
ATOM     11  C   UNL     1      -0.718  -0.320  26.279  0.00  0.00    -0.013 C 
ATOM     16  C   UNL     1      -1.065  -0.904  27.644  0.00  0.00    +0.007 C 
ATOM     17  C   UNL     1      -0.641   1.202  26.346  0.00  0.00    +0.007 C 
ENDBRANCH   7  11
BRANCH   8  14
ATOM     14  C   UNL     1      -0.379  -2.507  23.993  0.00  0.00    +0.112 C 
BRANCH  14   4
ATOM      1  O   UNL     1      -0.132  -0.278  22.189  0.00  0.00    -0.276 OA
ATOM      4  N   UNL     1       0.546  -1.422  24.093  0.00  0.00    -0.315 N 
ATOM     20  C   UNL     1       0.599  -0.377  23.172  0.00  0.00    +0.214 C 
ATOM     34  H   UNL     1       1.156  -1.380  24.905  0.00  0.00    +0.149 HD
BRANCH  20  22
ATOM     22  C   UNL     1       1.660   0.663  23.490  0.00  0.00    +0.102 C 
BRANCH  22  21
ATOM     21  C   UNL     1       3.023   0.439  22.786  0.00  0.00    -0.017 C 
ATOM     26  C   UNL     1       2.807  -0.067  21.344  0.00  0.00    +0.012 C 
ATOM     27  C   UNL     1       3.740   1.802  22.694  0.00  0.00    +0.012 C 
BRANCH  21  25
ATOM     25  C   UNL     1       3.918  -0.586  23.522  0.00  0.00    +0.127 C 
BRANCH  25  30
ATOM      3  O   UNL     1       6.282  -0.273  23.100  0.00  0.00    -0.251 OA
ATOM     30  C   UNL     1       5.316  -0.100  23.832  0.00  0.00    +0.305 C 
BRANCH  30   2
ATOM      2  O   UNL     1       5.398   0.548  25.021  0.00  0.00    -0.481 OA
ATOM     36  H   UNL     1       4.610   1.107  25.188  0.00  0.00    +0.295 HD
ENDBRANCH  30   2
ENDBRANCH  25  30
ENDBRANCH  21  25
ENDBRANCH  22  21
ENDBRANCH  20  22
ENDBRANCH  14   4
ENDBRANCH   8  14
BRANCH  10  15
ATOM     15  C   UNL     1      -4.335   0.245  23.606  0.00  0.00    +0.082 C 
BRANCH  15  19
ATOM      5  N   UNL     1      -2.329   1.708  23.303  0.00  0.00    -0.342 N 
ATOM      6  N   UNL     1      -3.787   2.368  24.845  0.00  0.00    -0.232 NA
ATOM     19  C   UNL     1      -3.509   1.452  23.945  0.00  0.00    +0.109 A 
ATOM     23  C   UNL     1      -1.811   2.866  23.824  0.00  0.00    +0.066 A 
ATOM     24  C   UNL     1      -2.740   3.258  24.785  0.00  0.00    +0.092 A 
ATOM     28  C   UNL     1      -2.509   4.432  25.522  0.00  0.00    -0.023 A 
ATOM     29  C   UNL     1      -0.647   3.583  23.548  0.00  0.00    +0.028 A 
ATOM     31  C   UNL     1      -1.346   5.168  25.260  0.00  0.00    +0.005 A 
ATOM     32  C   UNL     1      -0.433   4.749  24.290  0.00  0.00    +0.002 A 
ATOM     33  C   UNL     1      -3.455   4.923  26.569  0.00  0.00    +0.046 C 
ATOM     35  H   UNL     1      -1.910   1.146  22.575  0.00  0.00    +0.167 HD
ENDBRANCH  15  19
ENDBRANCH  10  15
TORSDOF 10
ENDMDL
MODEL 4
REMARK VINA RESULT:      -0.7      1.556      2.346
REMARK  Name = 71693203
REMARK  16 active torsions:
REMARK  status: ('A' for Active; 'I' for Inactive)
REMARK    1  A    between atoms: O_2  and  C_30
REMARK    2  A    between atoms: N_4  and  C_14
REMARK    3  A    between atoms: C_7  and  C_11
REMARK    4  A    between atoms: C_8  and  C_14
REMARK    5  A    between atoms: C_10  and  C_15
REMARK    6  A    between atoms: C_11  and  C_16
REMARK    7  A    between atoms: C_11  and  C_17
REMARK    8  A    between atoms: C_12  and  C_18
REMARK    9  A    between atoms: C_15  and  C_19
REMARK   10  A    between atoms: C_20  and  C_22
REMARK   11  A    between atoms: C_21  and  C_22
REMARK   12  A    between atoms: C_21  and  C_25
REMARK   13  A    between atoms: C_21  and  C_26
REMARK   14  A    between atoms: C_21  and  C_27
REMARK   15  A    between atoms: C_25  and  C_30
REMARK   16  A    between atoms: C_28  and  C_33
REMARK                            x       y       z     vdW  Elec       q    Type
REMARK                         _______ _______ _______ _____ _____    ______ ____
ROOT
ATOM      7  C   UNL     1      -1.519   3.906  24.624  0.00  0.00    +0.000 C 
ATOM      8  C   UNL     1      -1.562   3.348  26.069  0.00  0.00    +0.032 C 
ATOM      9  C   UNL     1      -2.908   4.405  24.200  0.00  0.00    +0.012 C 
ATOM     10  C   UNL     1      -3.972   3.293  24.262  0.00  0.00    +0.022 C 
ATOM     12  C   UNL     1      -3.899   2.517  25.562  0.00  0.00    -0.073 C 
ATOM     13  C   UNL     1      -2.820   2.564  26.363  0.00  0.00    -0.022 C 
ATOM     18  C   UNL     1      -5.116   1.718  25.942  0.00  0.00    +0.039 C 
ENDROOT
BRANCH   7  11
ATOM     11  C   UNL     1      -0.496   5.037  24.482  0.00  0.00    -0.013 C 
ATOM     16  C   UNL     1      -1.123   6.374  24.863  0.00  0.00    +0.007 C 
ATOM     17  C   UNL     1       0.052   5.083  23.058  0.00  0.00    +0.007 C 
ENDBRANCH   7  11
BRANCH   8  14
ATOM     14  C   UNL     1      -0.337   2.476  26.362  0.00  0.00    +0.112 C 
BRANCH  14   4
ATOM      1  O   UNL     1       1.507   2.531  24.153  0.00  0.00    -0.276 OA
ATOM      4  N   UNL     1      -0.175   1.474  25.356  0.00  0.00    -0.315 N 
ATOM     20  C   UNL     1       0.746   1.580  24.316  0.00  0.00    +0.214 C 
ATOM     34  H   UNL     1      -0.718   0.618  25.434  0.00  0.00    +0.149 HD
BRANCH  20  22
ATOM     22  C   UNL     1       0.740   0.388  23.372  0.00  0.00    +0.102 C 
BRANCH  22  21
ATOM     21  C   UNL     1       2.135  -0.030  22.842  0.00  0.00    -0.017 C 
ATOM     26  C   UNL     1       2.631  -1.296  23.573  0.00  0.00    +0.012 C 
ATOM     27  C   UNL     1       1.989  -0.386  21.348  0.00  0.00    +0.012 C 
BRANCH  21  25
ATOM     25  C   UNL     1       3.203   1.074  23.025  0.00  0.00    +0.127 C 
BRANCH  25  30
ATOM      3  O   UNL     1       5.329   0.097  22.400  0.00  0.00    -0.251 OA
ATOM     30  C   UNL     1       4.607   0.565  23.271  0.00  0.00    +0.305 C 
BRANCH  30   2
ATOM      2  O   UNL     1       4.987   0.670  24.569  0.00  0.00    -0.481 OA
ATOM     36  H   UNL     1       5.331  -0.179  24.919  0.00  0.00    +0.295 HD
ENDBRANCH  30   2
ENDBRANCH  25  30
ENDBRANCH  21  25
ENDBRANCH  22  21
ENDBRANCH  20  22
ENDBRANCH  14   4
ENDBRANCH   8  14
BRANCH  10  15
ATOM     15  C   UNL     1      -3.861   2.355  23.055  0.00  0.00    +0.082 C 
BRANCH  15  19
ATOM      5  N   UNL     1      -4.525  -0.045  23.298  0.00  0.00    -0.342 N 
ATOM      6  N   UNL     1      -2.504   0.484  24.057  0.00  0.00    -0.232 NA
ATOM     19  C   UNL     1      -3.595   0.941  23.483  0.00  0.00    +0.109 A 
ATOM     23  C   UNL     1      -3.999  -1.214  23.784  0.00  0.00    +0.066 A 
ATOM     24  C   UNL     1      -2.737  -0.857  24.252  0.00  0.00    +0.092 A 
ATOM     28  C   UNL     1      -1.916  -1.842  24.826  0.00  0.00    -0.023 A 
ATOM     29  C   UNL     1      -4.503  -2.513  23.854  0.00  0.00    +0.028 A 
ATOM     31  C   UNL     1      -2.401  -3.154  24.906  0.00  0.00    +0.005 A 
ATOM     32  C   UNL     1      -3.672  -3.481  24.428  0.00  0.00    +0.002 A 
ATOM     33  C   UNL     1      -0.549  -1.543  25.351  0.00  0.00    +0.046 C 
ATOM     35  H   UNL     1      -5.438   0.066  22.878  0.00  0.00    +0.167 HD
ENDBRANCH  15  19
ENDBRANCH  10  15
TORSDOF 10
ENDMDL
MODEL 5
REMARK VINA RESULT:      -0.1      1.939      6.345
REMARK  Name = 71693203
REMARK  16 active torsions:
REMARK  status: ('A' for Active; 'I' for Inactive)
REMARK    1  A    between atoms: O_2  and  C_30
REMARK    2  A    between atoms: N_4  and  C_14
REMARK    3  A    between atoms: C_7  and  C_11
REMARK    4  A    between atoms: C_8  and  C_14
REMARK    5  A    between atoms: C_10  and  C_15
REMARK    6  A    between atoms: C_11  and  C_16
REMARK    7  A    between atoms: C_11  and  C_17
REMARK    8  A    between atoms: C_12  and  C_18
REMARK    9  A    between atoms: C_15  and  C_19
REMARK   10  A    between atoms: C_20  and  C_22
REMARK   11  A    between atoms: C_21  and  C_22
REMARK   12  A    between atoms: C_21  and  C_25
REMARK   13  A    between atoms: C_21  and  C_26
REMARK   14  A    between atoms: C_21  and  C_27
REMARK   15  A    between atoms: C_25  and  C_30
REMARK   16  A    between atoms: C_28  and  C_33
REMARK                            x       y       z     vdW  Elec       q    Type
REMARK                         _______ _______ _______ _____ _____    ______ ____
ROOT
ATOM      7  C   UNL     1      -1.865   2.678  24.889  0.00  0.00    +0.000 C 
ATOM      8  C   UNL     1      -3.229   3.006  24.232  0.00  0.00    +0.032 C 
ATOM      9  C   UNL     1      -0.729   2.820  23.865  0.00  0.00    +0.012 C 
ATOM     10  C   UNL     1      -0.920   1.893  22.649  0.00  0.00    +0.022 C 
ATOM     12  C   UNL     1      -2.333   1.962  22.106  0.00  0.00    -0.073 C 
ATOM     13  C   UNL     1      -3.350   2.475  22.823  0.00  0.00    -0.022 C 
ATOM     18  C   UNL     1      -2.544   1.468  20.701  0.00  0.00    +0.039 C 
ENDROOT
BRANCH   7  11
ATOM     11  C   UNL     1      -1.586   3.574  26.099  0.00  0.00    -0.013 C 
ATOM     16  C   UNL     1      -1.616   5.044  25.692  0.00  0.00    +0.007 C 
ATOM     17  C   UNL     1      -0.244   3.215  26.730  0.00  0.00    +0.007 C 
ENDBRANCH   7  11
BRANCH   8  14
ATOM     14  C   UNL     1      -4.392   2.476  25.078  0.00  0.00    +0.112 C 
BRANCH  14   4
ATOM      1  O   UNL     1      -5.026  -0.108  23.982  0.00  0.00    -0.276 OA
ATOM      4  N   UNL     1      -4.070   1.203  25.643  0.00  0.00    -0.315 N 
ATOM     20  C   UNL     1      -4.416  -0.006  25.044  0.00  0.00    +0.214 C 
ATOM     34  H   UNL     1      -3.513   1.178  26.493  0.00  0.00    +0.149 HD
BRANCH  20  22
ATOM     22  C   UNL     1      -3.962  -1.227  25.827  0.00  0.00    +0.102 C 
BRANCH  22  21
ATOM     21  C   UNL     1      -3.226  -2.303  24.989  0.00  0.00    -0.017 C 
ATOM     26  C   UNL     1      -3.046  -3.596  25.811  0.00  0.00    +0.012 C 
ATOM     27  C   UNL     1      -4.113  -2.648  23.774  0.00  0.00    +0.012 C 
BRANCH  21  25
ATOM     25  C   UNL     1      -1.827  -1.841  24.514  0.00  0.00    +0.127 C 
BRANCH  25  30
ATOM      3  O   UNL     1      -1.191  -0.343  26.307  0.00  0.00    -0.251 OA
ATOM     30  C   UNL     1      -0.927  -1.315  25.611  0.00  0.00    +0.305 C 
BRANCH  30   2
ATOM      2  O   UNL     1       0.218  -2.028  25.742  0.00  0.00    -0.481 OA
ATOM     36  H   UNL     1       0.723  -1.766  26.541  0.00  0.00    +0.295 HD
ENDBRANCH  30   2
ENDBRANCH  25  30
ENDBRANCH  21  25
ENDBRANCH  22  21
ENDBRANCH  20  22
ENDBRANCH  14   4
ENDBRANCH   8  14
BRANCH  10  15
ATOM     15  C   UNL     1      -0.532   0.450  22.989  0.00  0.00    +0.082 C 
BRANCH  15  19
ATOM      5  N   UNL     1       1.803   1.331  22.819  0.00  0.00    -0.342 N 
ATOM      6  N   UNL     1       1.609  -0.785  23.474  0.00  0.00    -0.232 NA
ATOM     19  C   UNL     1       0.957   0.295  23.105  0.00  0.00    +0.109 A 
ATOM     23  C   UNL     1       3.087   0.889  23.016  0.00  0.00    +0.066 A 
ATOM     24  C   UNL     1       2.938  -0.433  23.424  0.00  0.00    +0.092 A 
ATOM     28  C   UNL     1       4.084  -1.193  23.714  0.00  0.00    -0.023 A 
ATOM     29  C   UNL     1       4.327   1.513  22.876  0.00  0.00    +0.028 A 
ATOM     31  C   UNL     1       5.340  -0.587  23.581  0.00  0.00    +0.005 A 
ATOM     32  C   UNL     1       5.456   0.743  23.169  0.00  0.00    +0.002 A 
ATOM     33  C   UNL     1       4.013  -2.618  24.159  0.00  0.00    +0.046 C 
ATOM     35  H   UNL     1       1.534   2.257  22.516  0.00  0.00    +0.167 HD
ENDBRANCH  15  19
ENDBRANCH  10  15
TORSDOF 10
ENDMDL
MODEL 6
REMARK VINA RESULT:       0.4      1.609      3.028
REMARK  Name = 71693203
REMARK  16 active torsions:
REMARK  status: ('A' for Active; 'I' for Inactive)
REMARK    1  A    between atoms: O_2  and  C_30
REMARK    2  A    between atoms: N_4  and  C_14
REMARK    3  A    between atoms: C_7  and  C_11
REMARK    4  A    between atoms: C_8  and  C_14
REMARK    5  A    between atoms: C_10  and  C_15
REMARK    6  A    between atoms: C_11  and  C_16
REMARK    7  A    between atoms: C_11  and  C_17
REMARK    8  A    between atoms: C_12  and  C_18
REMARK    9  A    between atoms: C_15  and  C_19
REMARK   10  A    between atoms: C_20  and  C_22
REMARK   11  A    between atoms: C_21  and  C_22
REMARK   12  A    between atoms: C_21  and  C_25
REMARK   13  A    between atoms: C_21  and  C_26
REMARK   14  A    between atoms: C_21  and  C_27
REMARK   15  A    between atoms: C_25  and  C_30
REMARK   16  A    between atoms: C_28  and  C_33
REMARK                            x       y       z     vdW  Elec       q    Type
REMARK                         _______ _______ _______ _____ _____    ______ ____
ROOT
ATOM      7  C   UNL     1      -2.206   4.336  24.899  0.00  0.00    +0.000 C 
ATOM      8  C   UNL     1      -2.507   3.919  26.360  0.00  0.00    +0.032 C 
ATOM      9  C   UNL     1      -3.504   4.721  24.172  0.00  0.00    +0.012 C 
ATOM     10  C   UNL     1      -4.524   3.567  24.150  0.00  0.00    +0.022 C 
ATOM     12  C   UNL     1      -4.677   2.925  25.514  0.00  0.00    -0.073 C 
ATOM     13  C   UNL     1      -3.772   3.104  26.493  0.00  0.00    -0.022 C 
ATOM     18  C   UNL     1      -5.917   2.106  25.741  0.00  0.00    +0.039 C 
ENDROOT
BRANCH   7  11
ATOM     11  C   UNL     1      -1.211   5.498  24.832  0.00  0.00    -0.013 C 
ATOM     16  C   UNL     1      -1.933   6.799  24.494  0.00  0.00    +0.007 C 
ATOM     17  C   UNL     1      -0.116   5.205  23.810  0.00  0.00    +0.007 C 
ENDBRANCH   7  11
BRANCH   8  14
ATOM     14  C   UNL     1      -1.333   3.143  26.967  0.00  0.00    +0.112 C 
BRANCH  14   4
ATOM      1  O   UNL     1      -0.593   0.459  26.235  0.00  0.00    -0.276 OA
ATOM      4  N   UNL     1      -0.402   2.757  25.954  0.00  0.00    -0.315 N 
ATOM     20  C   UNL     1      -0.100   1.428  25.662  0.00  0.00    +0.214 C 
ATOM     34  H   UNL     1       0.018   3.484  25.381  0.00  0.00    +0.149 HD
BRANCH  20  22
ATOM     22  C   UNL     1       0.915   1.265  24.542  0.00  0.00    +0.102 C 
BRANCH  22  21
ATOM     21  C   UNL     1       0.476   0.316  23.398  0.00  0.00    -0.017 C 
ATOM     26  C   UNL     1       0.032  -1.047  23.969  0.00  0.00    +0.012 C 
ATOM     27  C   UNL     1      -0.749   0.946  22.702  0.00  0.00    +0.012 C 
BRANCH  21  25
ATOM     25  C   UNL     1       1.600   0.057  22.367  0.00  0.00    +0.127 C 
BRANCH  25  30
ATOM      3  O   UNL     1       3.640   1.252  22.896  0.00  0.00    -0.251 OA
ATOM     30  C   UNL     1       3.005   0.205  22.910  0.00  0.00    +0.305 C 
BRANCH  30   2
ATOM      2  O   UNL     1       3.501  -0.952  23.413  0.00  0.00    -0.481 OA
ATOM     36  H   UNL     1       3.954  -1.485  22.726  0.00  0.00    +0.295 HD
ENDBRANCH  30   2
ENDBRANCH  25  30
ENDBRANCH  21  25
ENDBRANCH  22  21
ENDBRANCH  20  22
ENDBRANCH  14   4
ENDBRANCH   8  14
BRANCH  10  15
ATOM     15  C   UNL     1      -4.154   2.524  23.090  0.00  0.00    +0.082 C 
BRANCH  15  19
ATOM      5  N   UNL     1      -3.363   1.026  24.931  0.00  0.00    -0.342 N 
ATOM      6  N   UNL     1      -4.278   0.009  23.178  0.00  0.00    -0.232 NA
ATOM     19  C   UNL     1      -3.947   1.169  23.703  0.00  0.00    +0.109 A 
ATOM     23  C   UNL     1      -3.313  -0.314  25.218  0.00  0.00    +0.066 A 
ATOM     24  C   UNL     1      -3.890  -0.926  24.109  0.00  0.00    +0.092 A 
ATOM     28  C   UNL     1      -3.997  -2.327  24.079  0.00  0.00    -0.023 A 
ATOM     29  C   UNL     1      -2.828  -1.022  26.318  0.00  0.00    +0.028 A 
ATOM     31  C   UNL     1      -3.516  -3.058  25.173  0.00  0.00    +0.005 A 
ATOM     32  C   UNL     1      -2.943  -2.415  26.271  0.00  0.00    +0.002 A 
ATOM     33  C   UNL     1      -4.603  -3.063  22.928  0.00  0.00    +0.046 C 
ATOM     35  H   UNL     1      -3.027   1.773  25.523  0.00  0.00    +0.167 HD
ENDBRANCH  15  19
ENDBRANCH  10  15
TORSDOF 10
ENDMDL
MODEL 7
REMARK VINA RESULT:       0.8      1.798      4.543
REMARK  Name = 71693203
REMARK  16 active torsions:
REMARK  status: ('A' for Active; 'I' for Inactive)
REMARK    1  A    between atoms: O_2  and  C_30
REMARK    2  A    between atoms: N_4  and  C_14
REMARK    3  A    between atoms: C_7  and  C_11
REMARK    4  A    between atoms: C_8  and  C_14
REMARK    5  A    between atoms: C_10  and  C_15
REMARK    6  A    between atoms: C_11  and  C_16
REMARK    7  A    between atoms: C_11  and  C_17
REMARK    8  A    between atoms: C_12  and  C_18
REMARK    9  A    between atoms: C_15  and  C_19
REMARK   10  A    between atoms: C_20  and  C_22
REMARK   11  A    between atoms: C_21  and  C_22
REMARK   12  A    between atoms: C_21  and  C_25
REMARK   13  A    between atoms: C_21  and  C_26
REMARK   14  A    between atoms: C_21  and  C_27
REMARK   15  A    between atoms: C_25  and  C_30
REMARK   16  A    between atoms: C_28  and  C_33
REMARK                            x       y       z     vdW  Elec       q    Type
REMARK                         _______ _______ _______ _____ _____    ______ ____
ROOT
ATOM      7  C   UNL     1      -0.943   0.597  24.683  0.00  0.00    +0.000 C 
ATOM      8  C   UNL     1       0.100  -0.459  24.237  0.00  0.00    +0.032 C 
ATOM      9  C   UNL     1      -1.909  -0.005  25.714  0.00  0.00    +0.012 C 
ATOM     10  C   UNL     1      -2.662  -1.231  25.162  0.00  0.00    +0.022 C 
ATOM     12  C   UNL     1      -1.726  -2.198  24.465  0.00  0.00    -0.073 C 
ATOM     13  C   UNL     1      -0.491  -1.840  24.071  0.00  0.00    -0.022 C 
ATOM     18  C   UNL     1      -2.228  -3.603  24.271  0.00  0.00    +0.039 C 
ENDROOT
BRANCH   7  11
ATOM     11  C   UNL     1      -0.274   1.845  25.266  0.00  0.00    -0.013 C 
ATOM     16  C   UNL     1      -0.996   2.293  26.533  0.00  0.00    +0.007 C 
ATOM     17  C   UNL     1      -0.246   2.967  24.233  0.00  0.00    +0.007 C 
ENDBRANCH   7  11
BRANCH   8  14
ATOM     14  C   UNL     1       0.790  -0.040  22.935  0.00  0.00    +0.112 C 
BRANCH  14   4
ATOM      1  O   UNL     1       3.159  -0.033  21.299  0.00  0.00    -0.276 OA
ATOM      4  N   UNL     1       2.018   0.640  23.208  0.00  0.00    -0.315 N 
ATOM     20  C   UNL     1       3.121   0.591  22.358  0.00  0.00    +0.214 C 
ATOM     34  H   UNL     1       2.070   1.232  24.032  0.00  0.00    +0.149 HD
BRANCH  20  22
ATOM     22  C   UNL     1       4.311   1.396  22.856  0.00  0.00    +0.102 C 
BRANCH  22  21
ATOM     21  C   UNL     1       5.448   0.554  23.488  0.00  0.00    -0.017 C 
ATOM     26  C   UNL     1       6.178  -0.266  22.403  0.00  0.00    +0.012 C 
ATOM     27  C   UNL     1       6.475   1.527  24.102  0.00  0.00    +0.012 C 
BRANCH  21  25
ATOM     25  C   UNL     1       4.937  -0.432  24.566  0.00  0.00    +0.127 C 
BRANCH  25  30
ATOM      3  O   UNL     1       5.391  -2.702  23.856  0.00  0.00    -0.251 OA
ATOM     30  C   UNL     1       4.578  -1.807  24.049  0.00  0.00    +0.305 C 
BRANCH  30   2
ATOM      2  O   UNL     1       3.251  -1.951  23.810  0.00  0.00    -0.481 OA
ATOM     36  H   UNL     1       3.080  -2.418  22.964  0.00  0.00    +0.295 HD
ENDBRANCH  30   2
ENDBRANCH  25  30
ENDBRANCH  21  25
ENDBRANCH  22  21
ENDBRANCH  20  22
ENDBRANCH  14   4
ENDBRANCH   8  14
BRANCH  10  15
ATOM     15  C   UNL     1      -3.803  -0.805  24.232  0.00  0.00    +0.082 C 
BRANCH  15  19
ATOM      5  N   UNL     1      -5.302   0.878  25.319  0.00  0.00    -0.342 N 
ATOM      6  N   UNL     1      -3.686   1.704  24.036  0.00  0.00    -0.232 NA
ATOM     19  C   UNL     1      -4.236   0.606  24.507  0.00  0.00    +0.109 A 
ATOM     23  C   UNL     1      -5.450   2.240  25.376  0.00  0.00    +0.066 A 
ATOM     24  C   UNL     1      -4.430   2.732  24.567  0.00  0.00    +0.092 A 
ATOM     28  C   UNL     1      -4.295   4.121  24.404  0.00  0.00    -0.023 A 
ATOM     29  C   UNL     1      -6.361   3.059  26.044  0.00  0.00    +0.028 A 
ATOM     31  C   UNL     1      -5.198   4.963  25.066  0.00  0.00    +0.005 A 
ATOM     32  C   UNL     1      -6.212   4.439  25.871  0.00  0.00    +0.002 A 
ATOM     33  C   UNL     1      -3.228   4.731  23.555  0.00  0.00    +0.046 C 
ATOM     35  H   UNL     1      -5.880   0.197  25.794  0.00  0.00    +0.167 HD
ENDBRANCH  15  19
ENDBRANCH  10  15
TORSDOF 10
ENDMDL
