MODEL 1
REMARK VINA RESULT:      -6.0      0.000      0.000
REMARK  Name = 56775056
REMARK  4 active torsions:
REMARK  status: ('A' for Active; 'I' for Inactive)
REMARK    1  A    between atoms: N_4  and  C_11
REMARK    2  A    between atoms: N_5  and  C_14
REMARK    3  A    between atoms: C_11  and  C_15
REMARK    4  A    between atoms: C_14  and  C_16
REMARK                            x       y       z     vdW  Elec       q    Type
REMARK                         _______ _______ _______ _____ _____    ______ ____
ROOT
ATOM      2  O   UNL     1       0.098   2.857  23.739  0.00  0.00    -0.364 OA
ATOM      3  O   UNL     1       0.477  -0.637  23.483  0.00  0.00    -0.273 OA
ATOM      4  N   UNL     1      -2.039   3.739  26.086  0.00  0.00    -0.292 NA
ATOM      5  N   UNL     1      -0.345   0.609  25.269  0.00  0.00    -0.288 N 
ATOM      7  C   UNL     1      -0.632   1.922  25.840  0.00  0.00    +0.120 C 
ATOM      8  C   UNL     1       0.055   3.093  25.144  0.00  0.00    +0.154 C 
ATOM      9  C   UNL     1      -2.103   2.317  25.752  0.00  0.00    +0.110 C 
ATOM     10  C   UNL     1      -0.870   4.289  25.389  0.00  0.00    +0.118 C 
ATOM     12  C   UNL     1       0.297   0.444  24.045  0.00  0.00    +0.242 C 
ATOM     13  C   UNL     1       0.864   1.712  23.443  0.00  0.00    +0.256 C 
ENDROOT
BRANCH   4  11
ATOM     11  C   UNL     1      -3.270   4.446  25.773  0.00  0.00    +0.140 C 
BRANCH  11  15
ATOM      6  N   UNL     1      -5.262   3.255  26.491  0.00  0.00    -0.259 NA
ATOM     15  C   UNL     1      -4.402   3.503  25.480  0.00  0.00    +0.055 A 
ATOM     17  C   UNL     1      -4.508   2.945  24.216  0.00  0.00    +0.024 A 
ATOM     22  C   UNL     1      -5.566   2.076  23.976  0.00  0.00    +0.003 A 
ATOM     23  C   UNL     1      -6.279   2.406  26.222  0.00  0.00    +0.111 A 
ATOM     25  C   UNL     1      -6.474   1.796  24.993  0.00  0.00    +0.020 A 
ENDBRANCH  11  15
ENDBRANCH   4  11
BRANCH   5  14
ATOM     14  C   UNL     1      -0.849  -0.552  25.990  0.00  0.00    +0.143 C 
BRANCH  14  16
ATOM      1  F   UNL     1      -5.136  -3.008  23.288  0.00  0.00    -0.205 F 
ATOM     16  C   UNL     1      -1.992  -1.207  25.269  0.00  0.00    -0.030 A 
ATOM     18  C   UNL     1      -1.885  -2.533  24.849  0.00  0.00    +0.008 A 
ATOM     19  C   UNL     1      -3.163  -0.489  25.020  0.00  0.00    +0.008 A 
ATOM     20  C   UNL     1      -2.946  -3.141  24.179  0.00  0.00    +0.038 A 
ATOM     21  C   UNL     1      -4.225  -1.098  24.350  0.00  0.00    +0.038 A 
ATOM     24  C   UNL     1      -4.116  -2.424  23.930  0.00  0.00    +0.123 A 
ENDBRANCH  14  16
ENDBRANCH   5  14
TORSDOF 4
ENDMDL
MODEL 2
REMARK VINA RESULT:      -5.7      2.325      5.269
REMARK  Name = 56775056
REMARK  4 active torsions:
REMARK  status: ('A' for Active; 'I' for Inactive)
REMARK    1  A    between atoms: N_4  and  C_11
REMARK    2  A    between atoms: N_5  and  C_14
REMARK    3  A    between atoms: C_11  and  C_15
REMARK    4  A    between atoms: C_14  and  C_16
REMARK                            x       y       z     vdW  Elec       q    Type
REMARK                         _______ _______ _______ _____ _____    ______ ____
ROOT
ATOM      2  O   UNL     1      -2.655   4.165  26.311  0.00  0.00    -0.364 OA
ATOM      3  O   UNL     1      -5.885   2.756  26.375  0.00  0.00    -0.273 OA
ATOM      4  N   UNL     1      -0.601   2.553  24.303  0.00  0.00    -0.292 NA
ATOM      5  N   UNL     1      -4.223   2.510  24.764  0.00  0.00    -0.288 N 
ATOM      7  C   UNL     1      -2.890   2.871  24.288  0.00  0.00    +0.120 C 
ATOM      8  C   UNL     1      -2.288   4.115  24.935  0.00  0.00    +0.154 C 
ATOM      9  C   UNL     1      -1.830   1.813  24.585  0.00  0.00    +0.110 C 
ATOM     10  C   UNL     1      -0.774   3.899  24.862  0.00  0.00    +0.118 C 
ATOM     12  C   UNL     1      -4.805   3.093  25.885  0.00  0.00    +0.242 C 
ATOM     13  C   UNL     1      -4.052   4.274  26.458  0.00  0.00    +0.256 C 
ENDROOT
BRANCH   4  11
ATOM     11  C   UNL     1       0.587   1.880  24.803  0.00  0.00    +0.140 C 
BRANCH  11  15
ATOM      6  N   UNL     1       2.621   1.438  23.550  0.00  0.00    -0.259 NA
ATOM     15  C   UNL     1       1.314   1.139  23.717  0.00  0.00    +0.055 A 
ATOM     17  C   UNL     1       0.627   0.207  22.957  0.00  0.00    +0.024 A 
ATOM     22  C   UNL     1       1.327  -0.462  21.960  0.00  0.00    +0.003 A 
ATOM     23  C   UNL     1       3.270   0.768  22.571  0.00  0.00    +0.111 A 
ATOM     25  C   UNL     1       2.675  -0.183  21.756  0.00  0.00    +0.020 A 
ENDBRANCH  11  15
ENDBRANCH   4  11
BRANCH   5  14
ATOM     14  C   UNL     1      -4.903   1.425  24.069  0.00  0.00    +0.143 C 
BRANCH  14  16
ATOM      1  F   UNL     1      -2.966  -3.622  25.643  0.00  0.00    -0.205 F 
ATOM     16  C   UNL     1      -4.387   0.079  24.489  0.00  0.00    -0.030 A 
ATOM     18  C   UNL     1      -4.336  -0.967  23.567  0.00  0.00    +0.008 A 
ATOM     19  C   UNL     1      -3.957  -0.125  25.801  0.00  0.00    +0.008 A 
ATOM     20  C   UNL     1      -3.857  -2.217  23.957  0.00  0.00    +0.038 A 
ATOM     21  C   UNL     1      -3.477  -1.376  26.190  0.00  0.00    +0.038 A 
ATOM     24  C   UNL     1      -3.427  -2.422  25.268  0.00  0.00    +0.123 A 
ENDBRANCH  14  16
ENDBRANCH   5  14
TORSDOF 4
ENDMDL
MODEL 3
REMARK VINA RESULT:      -5.6      3.303      7.022
REMARK  Name = 56775056
REMARK  4 active torsions:
REMARK  status: ('A' for Active; 'I' for Inactive)
REMARK    1  A    between atoms: N_4  and  C_11
REMARK    2  A    between atoms: N_5  and  C_14
REMARK    3  A    between atoms: C_11  and  C_15
REMARK    4  A    between atoms: C_14  and  C_16
REMARK                            x       y       z     vdW  Elec       q    Type
REMARK                         _______ _______ _______ _____ _____    ______ ____
ROOT
ATOM      2  O   UNL     1      -1.395  -2.414  24.462  0.00  0.00    -0.364 OA
ATOM      3  O   UNL     1      -4.782  -1.620  23.896  0.00  0.00    -0.273 OA
ATOM      4  N   UNL     1       0.655  -0.031  23.475  0.00  0.00    -0.292 NA
ATOM      5  N   UNL     1      -2.953  -0.186  24.018  0.00  0.00    -0.288 N 
ATOM      7  C   UNL     1      -1.522  -0.013  24.252  0.00  0.00    +0.120 C 
ATOM      8  C   UNL     1      -0.833  -1.192  24.933  0.00  0.00    +0.154 C 
ATOM      9  C   UNL     1      -0.708   0.134  22.969  0.00  0.00    +0.110 C 
ATOM     10  C   UNL     1       0.619  -1.128  24.450  0.00  0.00    +0.118 C 
ATOM     12  C   UNL     1      -3.599  -1.409  24.170  0.00  0.00    +0.242 C 
ATOM     13  C   UNL     1      -2.761  -2.503  24.795  0.00  0.00    +0.256 C 
ENDROOT
BRANCH   4  11
ATOM     11  C   UNL     1       1.625  -0.248  22.414  0.00  0.00    +0.140 C 
BRANCH  11  15
ATOM      6  N   UNL     1       3.494  -1.377  23.478  0.00  0.00    -0.259 NA
ATOM     15  C   UNL     1       3.035  -0.231  22.930  0.00  0.00    +0.055 A 
ATOM     17  C   UNL     1       3.783   0.931  22.821  0.00  0.00    +0.024 A 
ATOM     22  C   UNL     1       5.084   0.915  23.307  0.00  0.00    +0.003 A 
ATOM     23  C   UNL     1       4.764  -1.356  23.941  0.00  0.00    +0.111 A 
ATOM     25  C   UNL     1       5.593  -0.247  23.879  0.00  0.00    +0.020 A 
ENDBRANCH  11  15
ENDBRANCH   4  11
BRANCH   5  14
ATOM     14  C   UNL     1      -3.686   0.969  23.513  0.00  0.00    +0.143 C 
BRANCH  14  16
ATOM      1  F   UNL     1      -3.217   5.417  26.933  0.00  0.00    -0.205 F 
ATOM     16  C   UNL     1      -3.561   2.154  24.425  0.00  0.00    -0.030 A 
ATOM     18  C   UNL     1      -2.357   2.857  24.495  0.00  0.00    +0.008 A 
ATOM     19  C   UNL     1      -4.648   2.555  25.202  0.00  0.00    +0.008 A 
ATOM     20  C   UNL     1      -2.241   3.958  25.343  0.00  0.00    +0.038 A 
ATOM     21  C   UNL     1      -4.532   3.658  26.049  0.00  0.00    +0.038 A 
ATOM     24  C   UNL     1      -3.328   4.359  26.119  0.00  0.00    +0.123 A 
ENDBRANCH  14  16
ENDBRANCH   5  14
TORSDOF 4
ENDMDL
MODEL 4
REMARK VINA RESULT:      -5.1      2.113      4.874
REMARK  Name = 56775056
REMARK  4 active torsions:
REMARK  status: ('A' for Active; 'I' for Inactive)
REMARK    1  A    between atoms: N_4  and  C_11
REMARK    2  A    between atoms: N_5  and  C_14
REMARK    3  A    between atoms: C_11  and  C_15
REMARK    4  A    between atoms: C_14  and  C_16
REMARK                            x       y       z     vdW  Elec       q    Type
REMARK                         _______ _______ _______ _____ _____    ______ ____
ROOT
ATOM      2  O   UNL     1       0.524   2.764  25.418  0.00  0.00    -0.364 OA
ATOM      3  O   UNL     1      -2.287   4.877  25.643  0.00  0.00    -0.273 OA
ATOM      4  N   UNL     1       0.005   0.158  23.470  0.00  0.00    -0.292 NA
ATOM      5  N   UNL     1      -1.787   3.292  24.015  0.00  0.00    -0.288 N 
ATOM      7  C   UNL     1      -0.849   2.305  23.487  0.00  0.00    +0.120 C 
ATOM      8  C   UNL     1       0.570   2.404  24.040  0.00  0.00    +0.154 C 
ATOM      9  C   UNL     1      -1.224   0.865  23.827  0.00  0.00    +0.110 C 
ATOM     10  C   UNL     1       1.125   0.980  23.947  0.00  0.00    +0.118 C 
ATOM     12  C   UNL     1      -1.495   4.099  25.110  0.00  0.00    +0.242 C 
ATOM     13  C   UNL     1      -0.061   4.034  25.589  0.00  0.00    +0.256 C 
ENDROOT
BRANCH   4  11
ATOM     11  C   UNL     1       0.042  -1.201  23.986  0.00  0.00    +0.140 C 
BRANCH  11  15
ATOM      6  N   UNL     1      -1.975  -2.555  23.964  0.00  0.00    -0.259 NA
ATOM     15  C   UNL     1      -1.266  -1.602  24.607  0.00  0.00    +0.055 A 
ATOM     17  C   UNL     1      -1.674  -0.992  25.782  0.00  0.00    +0.024 A 
ATOM     22  C   UNL     1      -2.888  -1.385  26.332  0.00  0.00    +0.003 A 
ATOM     23  C   UNL     1      -3.151  -2.913  24.527  0.00  0.00    +0.111 A 
ATOM     25  C   UNL     1      -3.648  -2.364  25.699  0.00  0.00    +0.020 A 
ENDBRANCH  11  15
ENDBRANCH   4  11
BRANCH   5  14
ATOM     14  C   UNL     1      -3.111   3.339  23.406  0.00  0.00    +0.143 C 
BRANCH  14  16
ATOM      1  F   UNL     1      -7.091   1.379  26.873  0.00  0.00    -0.205 F 
ATOM     16  C   UNL     1      -4.172   2.817  24.330  0.00  0.00    -0.030 A 
ATOM     18  C   UNL     1      -4.371   1.442  24.457  0.00  0.00    +0.008 A 
ATOM     19  C   UNL     1      -4.959   3.706  25.063  0.00  0.00    +0.008 A 
ATOM     20  C   UNL     1      -5.358   0.956  25.315  0.00  0.00    +0.038 A 
ATOM     21  C   UNL     1      -5.945   3.220  25.922  0.00  0.00    +0.038 A 
ATOM     24  C   UNL     1      -6.145   1.845  26.048  0.00  0.00    +0.123 A 
ENDBRANCH  14  16
ENDBRANCH   5  14
TORSDOF 4
ENDMDL
MODEL 5
REMARK VINA RESULT:      -4.1      2.532      5.174
REMARK  Name = 56775056
REMARK  4 active torsions:
REMARK  status: ('A' for Active; 'I' for Inactive)
REMARK    1  A    between atoms: N_4  and  C_11
REMARK    2  A    between atoms: N_5  and  C_14
REMARK    3  A    between atoms: C_11  and  C_15
REMARK    4  A    between atoms: C_14  and  C_16
REMARK                            x       y       z     vdW  Elec       q    Type
REMARK                         _______ _______ _______ _____ _____    ______ ____
ROOT
ATOM      2  O   UNL     1      -1.585  -2.407  24.011  0.00  0.00    -0.364 OA
ATOM      3  O   UNL     1      -5.069  -2.506  23.484  0.00  0.00    -0.273 OA
ATOM      4  N   UNL     1      -0.600   0.363  25.498  0.00  0.00    -0.292 NA
ATOM      5  N   UNL     1      -3.861  -1.196  24.982  0.00  0.00    -0.288 N 
ATOM      7  C   UNL     1      -2.569  -0.845  25.565  0.00  0.00    +0.120 C 
ATOM      8  C   UNL     1      -1.454  -1.857  25.319  0.00  0.00    +0.154 C 
ATOM      9  C   UNL     1      -1.970   0.436  24.991  0.00  0.00    +0.110 C 
ATOM     10  C   UNL     1      -0.164  -1.032  25.352  0.00  0.00    +0.118 C 
ATOM     12  C   UNL     1      -4.019  -2.234  24.069  0.00  0.00    +0.242 C 
ATOM     13  C   UNL     1      -2.799  -3.110  23.878  0.00  0.00    +0.256 C 
ENDROOT
BRANCH   4  11
ATOM     11  C   UNL     1       0.292   1.307  24.844  0.00  0.00    +0.140 C 
BRANCH  11  15
ATOM      6  N   UNL     1       0.119   3.521  23.860  0.00  0.00    -0.259 NA
ATOM     15  C   UNL     1      -0.250   2.707  24.873  0.00  0.00    +0.055 A 
ATOM     17  C   UNL     1      -1.083   3.089  25.912  0.00  0.00    +0.024 A 
ATOM     22  C   UNL     1      -1.569   4.391  25.911  0.00  0.00    +0.003 A 
ATOM     23  C   UNL     1      -0.373   4.780  23.892  0.00  0.00    +0.111 A 
ATOM     25  C   UNL     1      -1.212   5.260  24.885  0.00  0.00    +0.020 A 
ENDBRANCH  11  15
ENDBRANCH   4  11
BRANCH   5  14
ATOM     14  C   UNL     1      -4.994  -0.343  25.318  0.00  0.00    +0.143 C 
BRANCH  14  16
ATOM      1  F   UNL     1      -4.162   4.990  23.715  0.00  0.00    -0.205 F 
ATOM     16  C   UNL     1      -4.772   1.079  24.890  0.00  0.00    -0.030 A 
ATOM     18  C   UNL     1      -5.274   2.126  25.664  0.00  0.00    +0.008 A 
ATOM     19  C   UNL     1      -4.065   1.353  23.720  0.00  0.00    +0.008 A 
ATOM     20  C   UNL     1      -5.069   3.447  25.267  0.00  0.00    +0.038 A 
ATOM     21  C   UNL     1      -3.859   2.675  23.323  0.00  0.00    +0.038 A 
ATOM     24  C   UNL     1      -4.361   3.722  24.096  0.00  0.00    +0.123 A 
ENDBRANCH  14  16
ENDBRANCH   5  14
TORSDOF 4
ENDMDL
MODEL 6
REMARK VINA RESULT:      -3.7      2.482      5.899
REMARK  Name = 56775056
REMARK  4 active torsions:
REMARK  status: ('A' for Active; 'I' for Inactive)
REMARK    1  A    between atoms: N_4  and  C_11
REMARK    2  A    between atoms: N_5  and  C_14
REMARK    3  A    between atoms: C_11  and  C_15
REMARK    4  A    between atoms: C_14  and  C_16
REMARK                            x       y       z     vdW  Elec       q    Type
REMARK                         _______ _______ _______ _____ _____    ______ ____
ROOT
ATOM      2  O   UNL     1       0.046   2.977  25.306  0.00  0.00    -0.364 OA
ATOM      3  O   UNL     1      -3.314   3.363  26.298  0.00  0.00    -0.273 OA
ATOM      4  N   UNL     1       0.471   0.489  23.188  0.00  0.00    -0.292 NA
ATOM      5  N   UNL     1      -2.467   2.268  24.427  0.00  0.00    -0.288 N 
ATOM      7  C   UNL     1      -1.306   1.902  23.620  0.00  0.00    +0.120 C 
ATOM      8  C   UNL     1      -0.041   2.704  23.910  0.00  0.00    +0.154 C 
ATOM      9  C   UNL     1      -0.834   0.469  23.847  0.00  0.00    +0.110 C 
ATOM     10  C   UNL     1       1.110   1.762  23.545  0.00  0.00    +0.118 C 
ATOM     12  C   UNL     1      -2.380   3.102  25.538  0.00  0.00    +0.242 C 
ATOM     13  C   UNL     1      -1.036   3.771  25.733  0.00  0.00    +0.256 C 
ENDROOT
BRANCH   4  11
ATOM     11  C   UNL     1       1.287  -0.667  23.520  0.00  0.00    +0.140 C 
BRANCH  11  15
ATOM      6  N   UNL     1       3.603  -1.266  23.946  0.00  0.00    -0.259 NA
ATOM     15  C   UNL     1       2.754  -0.379  23.380  0.00  0.00    +0.055 A 
ATOM     17  C   UNL     1       3.160   0.753  22.693  0.00  0.00    +0.024 A 
ATOM     22  C   UNL     1       4.524   0.992  22.580  0.00  0.00    +0.003 A 
ATOM     23  C   UNL     1       4.922  -1.001  23.817  0.00  0.00    +0.111 A 
ATOM     25  C   UNL     1       5.430   0.102  23.150  0.00  0.00    +0.020 A 
ENDBRANCH  11  15
ENDBRANCH   4  11
BRANCH   5  14
ATOM     14  C   UNL     1      -3.737   1.642  24.083  0.00  0.00    +0.143 C 
BRANCH  14  16
ATOM      1  F   UNL     1      -3.742  -3.871  25.226  0.00  0.00    -0.205 F 
ATOM     16  C   UNL     1      -3.739   0.172  24.388  0.00  0.00    -0.030 A 
ATOM     18  C   UNL     1      -4.112  -0.744  23.404  0.00  0.00    +0.008 A 
ATOM     19  C   UNL     1      -3.366  -0.278  25.655  0.00  0.00    +0.008 A 
ATOM     20  C   UNL     1      -4.114  -2.110  23.687  0.00  0.00    +0.038 A 
ATOM     21  C   UNL     1      -3.367  -1.644  25.938  0.00  0.00    +0.038 A 
ATOM     24  C   UNL     1      -3.741  -2.560  24.954  0.00  0.00    +0.123 A 
ENDBRANCH  14  16
ENDBRANCH   5  14
TORSDOF 4
ENDMDL
MODEL 7
REMARK VINA RESULT:      -3.1     18.413     20.666
REMARK  Name = 56775056
REMARK  4 active torsions:
REMARK  status: ('A' for Active; 'I' for Inactive)
REMARK    1  A    between atoms: N_4  and  C_11
REMARK    2  A    between atoms: N_5  and  C_14
REMARK    3  A    between atoms: C_11  and  C_15
REMARK    4  A    between atoms: C_14  and  C_16
REMARK                            x       y       z     vdW  Elec       q    Type
REMARK                         _______ _______ _______ _____ _____    ______ ____
ROOT
ATOM      2  O   UNL     1      17.106  -5.683  28.935  0.00  0.00    -0.364 OA
ATOM      3  O   UNL     1      17.315  -4.701  32.313  0.00  0.00    -0.273 OA
ATOM      4  N   UNL     1      15.530  -8.548  28.536  0.00  0.00    -0.292 NA
ATOM      5  N   UNL     1      15.849  -6.216  31.327  0.00  0.00    -0.288 N 
ATOM      7  C   UNL     1      15.365  -6.867  30.113  0.00  0.00    +0.120 C 
ATOM      8  C   UNL     1      15.781  -6.192  28.809  0.00  0.00    +0.154 C 
ATOM      9  C   UNL     1      15.902  -8.283  29.925  0.00  0.00    +0.110 C 
ATOM     10  C   UNL     1      15.811  -7.323  27.777  0.00  0.00    +0.118 C 
ATOM     12  C   UNL     1      16.813  -5.212  31.311  0.00  0.00    +0.242 C 
ATOM     13  C   UNL     1      17.174  -4.694  29.936  0.00  0.00    +0.256 C 
ENDROOT
BRANCH   4  11
ATOM     11  C   UNL     1      16.197  -9.718  27.989  0.00  0.00    +0.140 C 
BRANCH  11  15
ATOM      6  N   UNL     1      14.351 -10.417  26.572  0.00  0.00    -0.259 NA
ATOM     15  C   UNL     1      15.661 -10.090  26.636  0.00  0.00    +0.055 A 
ATOM     17  C   UNL     1      16.512 -10.081  25.543  0.00  0.00    +0.024 A 
ATOM     22  C   UNL     1      15.986 -10.429  24.305  0.00  0.00    +0.003 A 
ATOM     23  C   UNL     1      13.874 -10.751  25.352  0.00  0.00    +0.111 A 
ATOM     25  C   UNL     1      14.642 -10.772  24.199  0.00  0.00    +0.020 A 
ENDBRANCH  11  15
ENDBRANCH   4  11
BRANCH   5  14
ATOM     14  C   UNL     1      15.352  -6.729  32.598  0.00  0.00    +0.143 C 
BRANCH  14  16
ATOM      1  F   UNL     1       9.730  -6.587  32.870  0.00  0.00    -0.205 F 
ATOM     16  C   UNL     1      13.853  -6.691  32.670  0.00  0.00    -0.030 A 
ATOM     18  C   UNL     1      13.126  -7.881  32.707  0.00  0.00    +0.008 A 
ATOM     19  C   UNL     1      13.187  -5.466  32.702  0.00  0.00    +0.008 A 
ATOM     20  C   UNL     1      11.734  -7.846  32.773  0.00  0.00    +0.038 A 
ATOM     21  C   UNL     1      11.794  -5.431  32.770  0.00  0.00    +0.038 A 
ATOM     24  C   UNL     1      11.067  -6.621  32.805  0.00  0.00    +0.123 A 
ENDBRANCH  14  16
ENDBRANCH   5  14
TORSDOF 4
ENDMDL
MODEL 8
REMARK VINA RESULT:      -2.9      2.578      4.688
REMARK  Name = 56775056
REMARK  4 active torsions:
REMARK  status: ('A' for Active; 'I' for Inactive)
REMARK    1  A    between atoms: N_4  and  C_11
REMARK    2  A    between atoms: N_5  and  C_14
REMARK    3  A    between atoms: C_11  and  C_15
REMARK    4  A    between atoms: C_14  and  C_16
REMARK                            x       y       z     vdW  Elec       q    Type
REMARK                         _______ _______ _______ _____ _____    ______ ____
ROOT
ATOM      2  O   UNL     1      -2.884  -2.685  25.426  0.00  0.00    -0.364 OA
ATOM      3  O   UNL     1       0.606  -2.286  25.711  0.00  0.00    -0.273 OA
ATOM      4  N   UNL     1      -4.351  -0.094  24.015  0.00  0.00    -0.292 NA
ATOM      5  N   UNL     1      -0.874  -1.172  24.303  0.00  0.00    -0.288 N 
ATOM      7  C   UNL     1      -2.239  -1.012  23.811  0.00  0.00    +0.120 C 
ATOM      8  C   UNL     1      -3.180  -2.170  24.131  0.00  0.00    +0.154 C 
ATOM      9  C   UNL     1      -2.974   0.176  24.427  0.00  0.00    +0.110 C 
ATOM     10  C   UNL     1      -4.574  -1.536  24.188  0.00  0.00    +0.118 C 
ATOM     12  C   UNL     1      -0.509  -2.170  25.201  0.00  0.00    +0.242 C 
ATOM     13  C   UNL     1      -1.577  -3.208  25.473  0.00  0.00    +0.256 C 
ENDROOT
BRANCH   4  11
ATOM     11  C   UNL     1      -5.321   0.718  24.731  0.00  0.00    +0.140 C 
BRANCH  11  15
ATOM      6  N   UNL     1      -5.227   2.861  25.872  0.00  0.00    -0.259 NA
ATOM     15  C   UNL     1      -4.936   2.170  24.748  0.00  0.00    +0.055 A 
ATOM     17  C   UNL     1      -4.315   2.719  23.639  0.00  0.00    +0.024 A 
ATOM     22  C   UNL     1      -3.970   4.064  23.686  0.00  0.00    +0.003 A 
ATOM     23  C   UNL     1      -4.877   4.166  25.883  0.00  0.00    +0.111 A 
ATOM     25  C   UNL     1      -4.252   4.810  24.826  0.00  0.00    +0.020 A 
ENDBRANCH  11  15
ENDBRANCH   4  11
BRANCH   5  14
ATOM     14  C   UNL     1       0.101  -0.169  23.891  0.00  0.00    +0.143 C 
BRANCH  14  16
ATOM      1  F   UNL     1      -1.225   4.961  25.794  0.00  0.00    -0.205 F 
ATOM     16  C   UNL     1      -0.253   1.198  24.399  0.00  0.00    -0.030 A 
ATOM     18  C   UNL     1      -0.371   2.264  23.506  0.00  0.00    +0.008 A 
ATOM     19  C   UNL     1      -0.464   1.404  25.762  0.00  0.00    +0.008 A 
ATOM     20  C   UNL     1      -0.699   3.536  23.977  0.00  0.00    +0.038 A 
ATOM     21  C   UNL     1      -0.792   2.675  26.233  0.00  0.00    +0.038 A 
ATOM     24  C   UNL     1      -0.910   3.741  25.341  0.00  0.00    +0.123 A 
ENDBRANCH  14  16
ENDBRANCH   5  14
TORSDOF 4
ENDMDL
MODEL 9
REMARK VINA RESULT:      -2.7      2.546      5.737
REMARK  Name = 56775056
REMARK  4 active torsions:
REMARK  status: ('A' for Active; 'I' for Inactive)
REMARK    1  A    between atoms: N_4  and  C_11
REMARK    2  A    between atoms: N_5  and  C_14
REMARK    3  A    between atoms: C_11  and  C_15
REMARK    4  A    between atoms: C_14  and  C_16
REMARK                            x       y       z     vdW  Elec       q    Type
REMARK                         _______ _______ _______ _____ _____    ______ ____
ROOT
ATOM      2  O   UNL     1      -0.903  -1.721  25.186  0.00  0.00    -0.364 OA
ATOM      3  O   UNL     1      -3.870  -3.040  23.816  0.00  0.00    -0.273 OA
ATOM      4  N   UNL     1      -0.838   1.573  25.154  0.00  0.00    -0.292 NA
ATOM      5  N   UNL     1      -3.476  -0.900  24.643  0.00  0.00    -0.288 N 
ATOM      7  C   UNL     1      -2.557   0.033  25.289  0.00  0.00    +0.120 C 
ATOM      8  C   UNL     1      -1.349  -0.613  25.962  0.00  0.00    +0.154 C 
ATOM      9  C   UNL     1      -1.897   1.008  24.318  0.00  0.00    +0.110 C 
ATOM     10  C   UNL     1      -0.257   0.460  25.917  0.00  0.00    +0.118 C 
ATOM     12  C   UNL     1      -3.166  -2.241  24.436  0.00  0.00    +0.242 C 
ATOM     13  C   UNL     1      -1.897  -2.716  25.110  0.00  0.00    +0.256 C 
ENDROOT
BRANCH   4  11
ATOM     11  C   UNL     1       0.152   2.311  24.386  0.00  0.00    +0.140 C 
BRANCH  11  15
ATOM      6  N   UNL     1       2.356   1.664  23.596  0.00  0.00    -0.259 NA
ATOM     15  C   UNL     1       1.032   1.399  23.580  0.00  0.00    +0.055 A 
ATOM     17  C   UNL     1       0.459   0.353  22.874  0.00  0.00    +0.024 A 
ATOM     22  C   UNL     1       1.300  -0.473  22.138  0.00  0.00    +0.003 A 
ATOM     23  C   UNL     1       3.144   0.840  22.869  0.00  0.00    +0.111 A 
ATOM     25  C   UNL     1       2.670  -0.232  22.130  0.00  0.00    +0.020 A 
ENDBRANCH  11  15
ENDBRANCH   4  11
BRANCH   5  14
ATOM     14  C   UNL     1      -4.721  -0.350  24.122  0.00  0.00    +0.143 C 
BRANCH  14  16
ATOM      1  F   UNL     1      -5.590   4.928  25.880  0.00  0.00    -0.205 F 
ATOM     16  C   UNL     1      -4.953   1.057  24.591  0.00  0.00    -0.030 A 
ATOM     18  C   UNL     1      -4.366   2.124  23.911  0.00  0.00    +0.008 A 
ATOM     19  C   UNL     1      -5.755   1.297  25.707  0.00  0.00    +0.008 A 
ATOM     20  C   UNL     1      -4.580   3.432  24.347  0.00  0.00    +0.038 A 
ATOM     21  C   UNL     1      -5.970   2.605  26.142  0.00  0.00    +0.038 A 
ATOM     24  C   UNL     1      -5.382   3.672  25.462  0.00  0.00    +0.123 A 
ENDBRANCH  14  16
ENDBRANCH   5  14
TORSDOF 4
ENDMDL
MODEL 10
REMARK VINA RESULT:      -2.2      3.382      5.333
REMARK  Name = 56775056
REMARK  4 active torsions:
REMARK  status: ('A' for Active; 'I' for Inactive)
REMARK    1  A    between atoms: N_4  and  C_11
REMARK    2  A    between atoms: N_5  and  C_14
REMARK    3  A    between atoms: C_11  and  C_15
REMARK    4  A    between atoms: C_14  and  C_16
REMARK                            x       y       z     vdW  Elec       q    Type
REMARK                         _______ _______ _______ _____ _____    ______ ____
ROOT
ATOM      2  O   UNL     1      -1.158   1.520  25.997  0.00  0.00    -0.364 OA
ATOM      3  O   UNL     1       1.614   2.503  24.054  0.00  0.00    -0.273 OA
ATOM      4  N   UNL     1      -2.810  -1.004  24.674  0.00  0.00    -0.292 NA
ATOM      5  N   UNL     1       0.462   0.480  24.026  0.00  0.00    -0.288 N 
ATOM      7  C   UNL     1      -0.593  -0.357  24.589  0.00  0.00    +0.120 C 
ATOM      8  C   UNL     1      -1.120   0.096  25.948  0.00  0.00    +0.154 C 
ATOM      9  C   UNL     1      -1.865  -0.384  23.746  0.00  0.00    +0.110 C 
ATOM     10  C   UNL     1      -2.565  -0.411  25.995  0.00  0.00    +0.118 C 
ATOM     12  C   UNL     1       0.797   1.725  24.550  0.00  0.00    +0.242 C 
ATOM     13  C   UNL     1       0.136   2.063  25.869  0.00  0.00    +0.256 C 
ENDROOT
BRANCH   4  11
ATOM     11  C   UNL     1      -4.192  -0.871  24.241  0.00  0.00    +0.140 C 
BRANCH  11  15
ATOM      6  N   UNL     1      -4.099   1.539  23.950  0.00  0.00    -0.259 NA
ATOM     15  C   UNL     1      -4.740   0.498  24.525  0.00  0.00    +0.055 A 
ATOM     17  C   UNL     1      -5.851   0.627  25.342  0.00  0.00    +0.024 A 
ATOM     22  C   UNL     1      -6.335   1.907  25.585  0.00  0.00    +0.003 A 
ATOM     23  C   UNL     1      -4.597   2.769  24.208  0.00  0.00    +0.111 A 
ATOM     25  C   UNL     1      -5.702   3.005  25.011  0.00  0.00    +0.020 A 
ENDBRANCH  11  15
ENDBRANCH   4  11
BRANCH   5  14
ATOM     14  C   UNL     1       1.106   0.005  22.808  0.00  0.00    +0.143 C 
BRANCH  14  16
ATOM      1  F   UNL     1       6.694  -0.365  23.390  0.00  0.00    -0.205 F 
ATOM     16  C   UNL     1       2.596  -0.094  22.963  0.00  0.00    -0.030 A 
ATOM     18  C   UNL     1       3.417   0.922  22.472  0.00  0.00    +0.008 A 
ATOM     19  C   UNL     1       3.160  -1.200  23.598  0.00  0.00    +0.008 A 
ATOM     20  C   UNL     1       4.801   0.830  22.615  0.00  0.00    +0.038 A 
ATOM     21  C   UNL     1       4.544  -1.292  23.742  0.00  0.00    +0.038 A 
ATOM     24  C   UNL     1       5.365  -0.276  23.251  0.00  0.00    +0.123 A 
ENDBRANCH  14  16
ENDBRANCH   5  14
TORSDOF 4
ENDMDL
