MODEL 1
REMARK VINA RESULT:       4.1      0.000      0.000
REMARK  Name = 7049032
REMARK  13 active torsions:
REMARK  status: ('A' for Active; 'I' for Inactive)
REMARK    1  A    between atoms: O_1  and  C_11
REMARK    2  A    between atoms: O_2  and  C_12
REMARK    3  A    between atoms: N_7  and  C_13
REMARK    4  A    between atoms: N_8  and  C_17
REMARK    5  A    between atoms: N_9  and  C_25
REMARK    6  A    between atoms: C_15  and  C_18
REMARK    7  A    between atoms: C_17  and  C_19
REMARK    8  A    between atoms: C_17  and  C_24
REMARK    9  A    between atoms: C_19  and  C_20
REMARK   10  A    between atoms: C_20  and  C_22
REMARK   11  A    between atoms: C_20  and  C_23
REMARK   12  A    between atoms: C_30  and  C_31
REMARK   13  A    between atoms: C_31  and  C_32
REMARK                            x       y       z     vdW  Elec       q    Type
REMARK                         _______ _______ _______ _____ _____    ______ ____
ROOT
ATOM     11  C   UNL     1      -2.225  -2.238  24.868  0.00  0.00    +0.167 C 
ATOM     12  C   UNL     1      -3.598  -1.792  25.385  0.00  0.00    +0.149 C 
ATOM     13  C   UNL     1      -1.950  -1.696  23.452  0.00  0.00    +0.129 C 
ATOM     14  C   UNL     1      -3.756  -0.262  25.361  0.00  0.00    +0.074 C 
ATOM     15  C   UNL     1      -3.138   0.383  24.153  0.00  0.00    +0.015 C 
ATOM     16  C   UNL     1      -2.334  -0.250  23.285  0.00  0.00    +0.006 C 
ENDROOT
BRANCH  13   7
ATOM      4  O   UNL     1       0.246  -0.049  24.269  0.00  0.00    -0.252 OA
ATOM      7  N   UNL     1      -0.566  -1.857  23.080  0.00  0.00    -0.290 N 
ATOM      9  N   UNL     1       1.684  -1.405  23.003  0.00  0.00    -0.269 N 
ATOM     21  C   UNL     1       0.451  -1.004  23.525  0.00  0.00    +0.304 C 
ATOM     33  H   UNL     1      -0.321  -2.597  22.428  0.00  0.00    +0.151 HD
ATOM     37  H   UNL     1       1.680  -2.223  22.400  0.00  0.00    +0.156 HD
BRANCH   9  25
ATOM     25  C   UNL     1       2.950  -0.809  23.213  0.00  0.00    +0.035 A 
ATOM     26  C   UNL     1       3.175   0.482  22.763  0.00  0.00    +0.024 A 
ATOM     27  C   UNL     1       3.937  -1.528  23.867  0.00  0.00    +0.024 A 
ATOM     28  C   UNL     1       4.423   1.070  22.972  0.00  0.00    +0.013 A 
ATOM     29  C   UNL     1       5.185  -0.941  24.075  0.00  0.00    +0.013 A 
ATOM     30  C   UNL     1       5.427   0.359  23.628  0.00  0.00    +0.017 A 
BRANCH  30  31
ATOM      6  O   UNL     1       6.839   2.106  24.348  0.00  0.00    -0.292 OA
ATOM     31  C   UNL     1       6.729   0.971  23.844  0.00  0.00    +0.160 C 
ATOM     32  C   UNL     1       8.002   0.227  23.455  0.00  0.00    +0.091 C 
ENDBRANCH  30  31
ENDBRANCH   9  25
ENDBRANCH  13   7
BRANCH  15  18
ATOM      3  O   UNL     1      -3.233   2.280  22.784  0.00  0.00    -0.271 OA
ATOM      8  N   UNL     1      -3.972   2.442  24.990  0.00  0.00    -0.300 N 
ATOM     18  C   UNL     1      -3.446   1.791  23.889  0.00  0.00    +0.241 C 
ATOM     34  H   UNL     1      -4.241   1.919  25.814  0.00  0.00    +0.150 HD
BRANCH   8  17
ATOM     17  C   UNL     1      -4.350   3.831  24.973  0.00  0.00    +0.159 C 
BRANCH  17  24
ATOM      5  O   UNL     1      -6.336   4.970  25.793  0.00  0.00    -0.274 OA
ATOM     10  N   UNL     1      -6.014   2.770  26.370  0.00  0.00    -0.328 N 
ATOM     24  C   UNL     1      -5.653   3.949  25.752  0.00  0.00    +0.231 C 
ATOM     38  H   UNL     1      -5.451   1.927  26.309  0.00  0.00    +0.145 HD
ATOM     39  H   UNL     1      -6.869   2.707  26.912  0.00  0.00    +0.145 HD
ENDBRANCH  17  24
BRANCH  17  19
ATOM     19  C   UNL     1      -3.277   4.734  25.594  0.00  0.00    +0.034 C 
BRANCH  19  20
ATOM     20  C   UNL     1      -1.837   4.449  25.117  0.00  0.00    -0.015 C 
ATOM     22  C   UNL     1      -1.014   5.727  24.953  0.00  0.00    +0.007 C 
ATOM     23  C   UNL     1      -1.141   3.512  26.108  0.00  0.00    +0.007 C 
ENDBRANCH  19  20
ENDBRANCH  17  19
ENDBRANCH   8  17
ENDBRANCH  15  18
BRANCH  11   1
ATOM      1  O   UNL     1      -1.219  -1.764  25.766  0.00  0.00    -0.387 OA
ATOM     35  H   UNL     1      -1.628  -1.084  26.328  0.00  0.00    +0.210 HD
ENDBRANCH  11   1
BRANCH  12   2
ATOM      2  O   UNL     1      -4.633  -2.403  24.619  0.00  0.00    -0.389 OA
ATOM     36  H   UNL     1      -4.362  -2.376  23.686  0.00  0.00    +0.210 HD
ENDBRANCH  12   2
TORSDOF 10
ENDMDL
MODEL 2
REMARK VINA RESULT:       5.4      2.116      4.872
REMARK  Name = 7049032
REMARK  13 active torsions:
REMARK  status: ('A' for Active; 'I' for Inactive)
REMARK    1  A    between atoms: O_1  and  C_11
REMARK    2  A    between atoms: O_2  and  C_12
REMARK    3  A    between atoms: N_7  and  C_13
REMARK    4  A    between atoms: N_8  and  C_17
REMARK    5  A    between atoms: N_9  and  C_25
REMARK    6  A    between atoms: C_15  and  C_18
REMARK    7  A    between atoms: C_17  and  C_19
REMARK    8  A    between atoms: C_17  and  C_24
REMARK    9  A    between atoms: C_19  and  C_20
REMARK   10  A    between atoms: C_20  and  C_22
REMARK   11  A    between atoms: C_20  and  C_23
REMARK   12  A    between atoms: C_30  and  C_31
REMARK   13  A    between atoms: C_31  and  C_32
REMARK                            x       y       z     vdW  Elec       q    Type
REMARK                         _______ _______ _______ _____ _____    ______ ____
ROOT
ATOM     11  C   UNL     1      -3.090   4.041  23.807  0.00  0.00    +0.167 C 
ATOM     12  C   UNL     1      -4.492   3.971  24.425  0.00  0.00    +0.149 C 
ATOM     13  C   UNL     1      -2.079   3.194  24.602  0.00  0.00    +0.129 C 
ATOM     14  C   UNL     1      -4.996   2.524  24.553  0.00  0.00    +0.074 C 
ATOM     15  C   UNL     1      -3.923   1.552  24.957  0.00  0.00    +0.015 C 
ATOM     16  C   UNL     1      -2.613   1.842  24.992  0.00  0.00    +0.006 C 
ENDROOT
BRANCH  13   7
ATOM      4  O   UNL     1      -0.057   1.232  25.116  0.00  0.00    -0.252 OA
ATOM      7  N   UNL     1      -0.846   3.016  23.876  0.00  0.00    -0.290 N 
ATOM      9  N   UNL     1       1.183   2.095  23.320  0.00  0.00    -0.269 N 
ATOM     21  C   UNL     1       0.093   2.028  24.192  0.00  0.00    +0.304 C 
ATOM     33  H   UNL     1      -0.625   3.665  23.126  0.00  0.00    +0.151 HD
ATOM     37  H   UNL     1       1.151   2.817  22.605  0.00  0.00    +0.156 HD
BRANCH   9  25
ATOM     25  C   UNL     1       2.337   1.276  23.307  0.00  0.00    +0.035 A 
ATOM     26  C   UNL     1       3.585   1.863  23.184  0.00  0.00    +0.024 A 
ATOM     27  C   UNL     1       2.193  -0.098  23.420  0.00  0.00    +0.024 A 
ATOM     28  C   UNL     1       4.722   1.055  23.173  0.00  0.00    +0.013 A 
ATOM     29  C   UNL     1       3.330  -0.906  23.408  0.00  0.00    +0.013 A 
ATOM     30  C   UNL     1       4.595  -0.329  23.284  0.00  0.00    +0.017 A 
BRANCH  30  31
ATOM      6  O   UNL     1       5.731  -2.369  23.616  0.00  0.00    -0.292 OA
ATOM     31  C   UNL     1       5.779  -1.172  23.272  0.00  0.00    +0.160 C 
ATOM     32  C   UNL     1       7.124  -0.601  22.831  0.00  0.00    +0.091 C 
ENDBRANCH  30  31
ENDBRANCH   9  25
ENDBRANCH  13   7
BRANCH  15  18
ATOM      3  O   UNL     1      -5.402   0.017  25.926  0.00  0.00    -0.271 OA
ATOM      8  N   UNL     1      -3.392  -0.760  25.036  0.00  0.00    -0.300 N 
ATOM     18  C   UNL     1      -4.330   0.204  25.361  0.00  0.00    +0.241 C 
ATOM     34  H   UNL     1      -2.602  -0.528  24.447  0.00  0.00    +0.150 HD
BRANCH   8  17
ATOM     17  C   UNL     1      -3.569  -2.158  25.335  0.00  0.00    +0.159 C 
BRANCH  17  24
ATOM      5  O   UNL     1      -5.097  -2.238  23.446  0.00  0.00    -0.274 OA
ATOM     10  N   UNL     1      -3.727  -4.042  23.827  0.00  0.00    -0.328 N 
ATOM     24  C   UNL     1      -4.233  -2.793  24.121  0.00  0.00    +0.231 C 
ATOM     38  H   UNL     1      -2.997  -4.479  24.382  0.00  0.00    +0.145 HD
ATOM     39  H   UNL     1      -4.074  -4.570  23.034  0.00  0.00    +0.145 HD
ENDBRANCH  17  24
BRANCH  17  19
ATOM     19  C   UNL     1      -2.239  -2.860  25.640  0.00  0.00    +0.034 C 
BRANCH  19  20
ATOM     20  C   UNL     1      -0.980  -2.041  25.288  0.00  0.00    -0.015 C 
ATOM     22  C   UNL     1       0.312  -2.771  25.656  0.00  0.00    +0.007 C 
ATOM     23  C   UNL     1      -0.978  -1.715  23.792  0.00  0.00    +0.007 C 
ENDBRANCH  19  20
ENDBRANCH  17  19
ENDBRANCH   8  17
ENDBRANCH  15  18
BRANCH  11   1
ATOM      1  O   UNL     1      -3.157   3.570  22.460  0.00  0.00    -0.387 OA
ATOM     35  H   UNL     1      -2.267   3.656  22.077  0.00  0.00    +0.210 HD
ENDBRANCH  11   1
BRANCH  12   2
ATOM      2  O   UNL     1      -4.499   4.607  25.701  0.00  0.00    -0.389 OA
ATOM     36  H   UNL     1      -5.067   4.079  26.287  0.00  0.00    +0.210 HD
ENDBRANCH  12   2
TORSDOF 10
ENDMDL
