MODEL 1
REMARK VINA RESULT:      -0.8      0.000      0.000
REMARK  Name = 11865837
REMARK  12 active torsions:
REMARK  status: ('A' for Active; 'I' for Inactive)
REMARK    1  A    between atoms: S_1  and  C_19
REMARK    2  A    between atoms: S_1  and  C_28
REMARK    3  A    between atoms: N_7  and  C_11
REMARK    4  A    between atoms: N_8  and  C_17
REMARK    5  A    between atoms: N_9  and  C_22
REMARK    6  A    between atoms: C_12  and  C_15
REMARK    7  A    between atoms: C_16  and  C_19
REMARK    8  A    between atoms: C_17  and  C_20
REMARK    9  A    between atoms: C_17  and  C_21
REMARK   10  A    between atoms: C_20  and  C_23
REMARK   11  A    between atoms: C_22  and  C_24
REMARK   12  A    between atoms: C_22  and  C_25
REMARK                            x       y       z     vdW  Elec       q    Type
REMARK                         _______ _______ _______ _____ _____    ______ ____
ROOT
ATOM      3  O   UNL     1      -1.234  -0.228  26.447  0.00  0.00    -0.275 OA
ATOM      6  N   UNL     1      -0.683  -0.604  24.230  0.00  0.00    -0.287 N 
ATOM     11  C   UNL     1       0.873   0.390  22.742  0.00  0.00    +0.105 C 
ATOM     12  C   UNL     1       0.107   0.609  24.047  0.00  0.00    +0.182 C 
ATOM     13  C   UNL     1      -0.029  -0.565  21.955  0.00  0.00    +0.043 C 
ATOM     14  C   UNL     1      -0.662  -1.439  23.031  0.00  0.00    +0.110 C 
ATOM     16  C   UNL     1      -1.232  -0.957  25.453  0.00  0.00    +0.226 C 
ENDROOT
BRANCH  11   7
ATOM      4  O   UNL     1       3.416   1.752  22.839  0.00  0.00    -0.253 OA
ATOM      7  N   UNL     1       2.167  -0.199  22.995  0.00  0.00    -0.294 N 
ATOM      9  N   UNL     1       4.447  -0.277  23.289  0.00  0.00    -0.297 N 
ATOM     18  C   UNL     1       3.349   0.537  23.024  0.00  0.00    +0.300 C 
ATOM     32  H   UNL     1       2.214  -1.188  23.225  0.00  0.00    +0.151 HD
ATOM     34  H   UNL     1       4.281  -1.256  23.501  0.00  0.00    +0.150 HD
BRANCH   9  22
ATOM     22  C   UNL     1       5.795   0.231  23.374  0.00  0.00    +0.068 C 
ATOM     24  C   UNL     1       6.063   0.807  24.759  0.00  0.00    +0.027 C 
ATOM     25  C   UNL     1       6.797  -0.864  23.029  0.00  0.00    +0.027 C 
ENDBRANCH   9  22
ENDBRANCH  11   7
BRANCH  12  15
ATOM      2  O   UNL     1      -1.450   1.986  22.871  0.00  0.00    -0.274 OA
ATOM      8  N   UNL     1      -1.002   2.447  25.109  0.00  0.00    -0.302 N 
ATOM     15  C   UNL     1      -0.871   1.740  23.926  0.00  0.00    +0.236 C 
ATOM     33  H   UNL     1      -0.510   2.120  25.936  0.00  0.00    +0.150 HD
BRANCH   8  17
ATOM     17  C   UNL     1      -1.865   3.597  25.250  0.00  0.00    +0.163 C 
BRANCH  17  21
ATOM      5  O   UNL     1       0.163   4.787  24.634  0.00  0.00    -0.274 OA
ATOM     10  N   UNL     1      -1.723   6.007  25.119  0.00  0.00    -0.328 N 
ATOM     21  C   UNL     1      -1.015   4.832  24.981  0.00  0.00    +0.231 C 
ATOM     35  H   UNL     1      -1.278   6.904  24.954  0.00  0.00    +0.145 HD
ATOM     36  H   UNL     1      -2.702   6.027  25.384  0.00  0.00    +0.145 HD
ENDBRANCH  17  21
BRANCH  17  20
ATOM     20  C   UNL     1      -3.056   3.549  24.288  0.00  0.00    +0.067 C 
BRANCH  20  23
ATOM     23  C   UNL     1      -4.236   2.798  24.855  0.00  0.00    -0.045 A 
ATOM     26  C   UNL     1      -4.444   1.463  24.508  0.00  0.00    +0.004 A 
ATOM     27  C   UNL     1      -5.118   3.438  25.726  0.00  0.00    +0.004 A 
ATOM     29  C   UNL     1      -5.534   0.768  25.033  0.00  0.00    +0.000 A 
ATOM     30  C   UNL     1      -6.207   2.742  26.251  0.00  0.00    +0.000 A 
ATOM     31  C   UNL     1      -6.416   1.408  25.904  0.00  0.00    +0.000 A 
ENDBRANCH  20  23
ENDBRANCH  17  20
ENDBRANCH   8  17
ENDBRANCH  12  15
BRANCH  16  19
ATOM     19  C   UNL     1      -1.863  -2.326  25.512  0.00  0.00    +0.164 C 
BRANCH  19   1
ATOM      1  S   UNL     1      -3.648  -2.104  25.553  0.00  0.00    -0.155 S 
ATOM     28  C   UNL     1      -4.015  -2.474  23.819  0.00  0.00    +0.085 C 
ENDBRANCH  19   1
ENDBRANCH  16  19
TORSDOF 9
ENDMDL
MODEL 2
REMARK VINA RESULT:      -0.1      1.560      1.628
REMARK  Name = 11865837
REMARK  12 active torsions:
REMARK  status: ('A' for Active; 'I' for Inactive)
REMARK    1  A    between atoms: S_1  and  C_19
REMARK    2  A    between atoms: S_1  and  C_28
REMARK    3  A    between atoms: N_7  and  C_11
REMARK    4  A    between atoms: N_8  and  C_17
REMARK    5  A    between atoms: N_9  and  C_22
REMARK    6  A    between atoms: C_12  and  C_15
REMARK    7  A    between atoms: C_16  and  C_19
REMARK    8  A    between atoms: C_17  and  C_20
REMARK    9  A    between atoms: C_17  and  C_21
REMARK   10  A    between atoms: C_20  and  C_23
REMARK   11  A    between atoms: C_22  and  C_24
REMARK   12  A    between atoms: C_22  and  C_25
REMARK                            x       y       z     vdW  Elec       q    Type
REMARK                         _______ _______ _______ _____ _____    ______ ____
ROOT
ATOM      3  O   UNL     1      -1.658  -0.512  27.205  0.00  0.00    -0.275 OA
ATOM      6  N   UNL     1      -1.629   0.165  24.991  0.00  0.00    -0.287 N 
ATOM     11  C   UNL     1      -0.023   1.273  23.643  0.00  0.00    +0.105 C 
ATOM     12  C   UNL     1      -0.438   1.004  25.090  0.00  0.00    +0.182 C 
ATOM     13  C   UNL     1      -1.341   1.175  22.870  0.00  0.00    +0.043 C 
ATOM     14  C   UNL     1      -2.124   0.103  23.619  0.00  0.00    +0.110 C 
ATOM     16  C   UNL     1      -2.099  -0.587  26.057  0.00  0.00    +0.226 C 
ENDROOT
BRANCH  11   7
ATOM      4  O   UNL     1       2.854   1.427  23.809  0.00  0.00    -0.253 OA
ATOM      7  N   UNL     1       0.929   0.288  23.187  0.00  0.00    -0.294 N 
ATOM      9  N   UNL     1       2.990  -0.651  22.787  0.00  0.00    -0.297 N 
ATOM     18  C   UNL     1       2.307   0.446  23.307  0.00  0.00    +0.300 C 
ATOM     32  H   UNL     1       0.578  -0.590  22.816  0.00  0.00    +0.151 HD
ATOM     34  H   UNL     1       2.448  -1.447  22.462  0.00  0.00    +0.150 HD
BRANCH   9  22
ATOM     22  C   UNL     1       4.430  -0.747  22.784  0.00  0.00    +0.068 C 
ATOM     24  C   UNL     1       5.058   0.639  22.859  0.00  0.00    +0.027 C 
ATOM     25  C   UNL     1       4.905  -1.632  23.930  0.00  0.00    +0.027 C 
ENDBRANCH   9  22
ENDBRANCH  11   7
BRANCH  12  15
ATOM      2  O   UNL     1      -0.464   2.550  26.909  0.00  0.00    -0.274 OA
ATOM      8  N   UNL     1      -1.742   3.011  25.019  0.00  0.00    -0.302 N 
ATOM     15  C   UNL     1      -0.862   2.264  25.783  0.00  0.00    +0.236 C 
ATOM     33  H   UNL     1      -1.962   2.702  24.077  0.00  0.00    +0.150 HD
BRANCH   8  17
ATOM     17  C   UNL     1      -2.317   4.258  25.469  0.00  0.00    +0.163 C 
BRANCH  17  21
ATOM      5  O   UNL     1      -1.677   6.567  25.059  0.00  0.00    -0.274 OA
ATOM     10  N   UNL     1      -0.168   4.904  24.571  0.00  0.00    -0.328 N 
ATOM     21  C   UNL     1      -1.389   5.373  25.008  0.00  0.00    +0.231 C 
ATOM     35  H   UNL     1       0.550   5.544  24.248  0.00  0.00    +0.145 HD
ATOM     36  H   UNL     1       0.064   3.916  24.556  0.00  0.00    +0.145 HD
ENDBRANCH  17  21
BRANCH  17  20
ATOM     20  C   UNL     1      -3.730   4.477  24.918  0.00  0.00    +0.067 C 
BRANCH  20  23
ATOM     23  C   UNL     1      -4.630   3.285  25.126  0.00  0.00    -0.045 A 
ATOM     26  C   UNL     1      -4.637   2.246  24.195  0.00  0.00    +0.004 A 
ATOM     27  C   UNL     1      -5.456   3.220  26.248  0.00  0.00    +0.004 A 
ATOM     29  C   UNL     1      -5.468   1.142  24.387  0.00  0.00    +0.000 A 
ATOM     30  C   UNL     1      -6.287   2.116  26.440  0.00  0.00    +0.000 A 
ATOM     31  C   UNL     1      -6.294   1.077  25.510  0.00  0.00    +0.000 A 
ENDBRANCH  20  23
ENDBRANCH  17  20
ENDBRANCH   8  17
ENDBRANCH  12  15
BRANCH  16  19
ATOM     19  C   UNL     1      -3.228  -1.535  25.736  0.00  0.00    +0.164 C 
BRANCH  19   1
ATOM      1  S   UNL     1      -2.630  -2.700  24.503  0.00  0.00    -0.155 S 
ATOM     28  C   UNL     1      -4.159  -2.913  23.557  0.00  0.00    +0.085 C 
ENDBRANCH  19   1
ENDBRANCH  16  19
TORSDOF 9
ENDMDL
MODEL 3
REMARK VINA RESULT:      -0.0      2.941      5.229
REMARK  Name = 11865837
REMARK  12 active torsions:
REMARK  status: ('A' for Active; 'I' for Inactive)
REMARK    1  A    between atoms: S_1  and  C_19
REMARK    2  A    between atoms: S_1  and  C_28
REMARK    3  A    between atoms: N_7  and  C_11
REMARK    4  A    between atoms: N_8  and  C_17
REMARK    5  A    between atoms: N_9  and  C_22
REMARK    6  A    between atoms: C_12  and  C_15
REMARK    7  A    between atoms: C_16  and  C_19
REMARK    8  A    between atoms: C_17  and  C_20
REMARK    9  A    between atoms: C_17  and  C_21
REMARK   10  A    between atoms: C_20  and  C_23
REMARK   11  A    between atoms: C_22  and  C_24
REMARK   12  A    between atoms: C_22  and  C_25
REMARK                            x       y       z     vdW  Elec       q    Type
REMARK                         _______ _______ _______ _____ _____    ______ ____
ROOT
ATOM      3  O   UNL     1       0.683  -1.420  24.058  0.00  0.00    -0.275 OA
ATOM      6  N   UNL     1      -0.079   0.766  24.036  0.00  0.00    -0.287 N 
ATOM     11  C   UNL     1      -0.837   2.249  25.724  0.00  0.00    +0.105 C 
ATOM     12  C   UNL     1      -0.601   0.774  25.399  0.00  0.00    +0.182 C 
ATOM     13  C   UNL     1      -1.097   2.880  24.353  0.00  0.00    +0.043 C 
ATOM     14  C   UNL     1      -0.208   2.079  23.409  0.00  0.00    +0.110 C 
ATOM     16  C   UNL     1       0.592  -0.324  23.503  0.00  0.00    +0.226 C 
ENDROOT
BRANCH  11   7
ATOM      4  O   UNL     1       0.236   1.597  28.323  0.00  0.00    -0.253 OA
ATOM      7  N   UNL     1       0.323   2.830  26.357  0.00  0.00    -0.294 N 
ATOM      9  N   UNL     1       1.908   3.171  27.989  0.00  0.00    -0.297 N 
ATOM     18  C   UNL     1       0.772   2.454  27.621  0.00  0.00    +0.300 C 
ATOM     32  H   UNL     1       0.877   3.502  25.833  0.00  0.00    +0.151 HD
ATOM     34  H   UNL     1       2.320   3.804  27.310  0.00  0.00    +0.150 HD
BRANCH   9  22
ATOM     22  C   UNL     1       2.579   2.979  29.252  0.00  0.00    +0.068 C 
ATOM     24  C   UNL     1       1.698   2.186  30.210  0.00  0.00    +0.027 C 
ATOM     25  C   UNL     1       3.922   2.291  29.040  0.00  0.00    +0.027 C 
ENDBRANCH   9  22
ENDBRANCH  11   7
BRANCH  12  15
ATOM      2  O   UNL     1      -2.375  -0.489  26.378  0.00  0.00    -0.274 OA
ATOM      8  N   UNL     1      -2.415  -0.079  24.087  0.00  0.00    -0.302 N 
ATOM     15  C   UNL     1      -1.889   0.007  25.365  0.00  0.00    +0.236 C 
ATOM     33  H   UNL     1      -1.952   0.416  23.330  0.00  0.00    +0.150 HD
BRANCH   8  17
ATOM     17  C   UNL     1      -3.638  -0.785  23.781  0.00  0.00    +0.163 C 
BRANCH  17  21
ATOM      5  O   UNL     1      -4.285  -3.097  24.154  0.00  0.00    -0.274 OA
ATOM     10  N   UNL     1      -2.052  -2.561  24.193  0.00  0.00    -0.328 N 
ATOM     21  C   UNL     1      -3.391  -2.258  24.075  0.00  0.00    +0.231 C 
ATOM     35  H   UNL     1      -1.747  -3.512  24.375  0.00  0.00    +0.145 HD
ATOM     36  H   UNL     1      -1.323  -1.861  24.101  0.00  0.00    +0.145 HD
ENDBRANCH  17  21
BRANCH  17  20
ATOM     20  C   UNL     1      -4.825  -0.268  24.602  0.00  0.00    +0.067 C 
BRANCH  20  23
ATOM     23  C   UNL     1      -4.846   1.236  24.717  0.00  0.00    -0.045 A 
ATOM     26  C   UNL     1      -5.490   1.843  25.796  0.00  0.00    +0.004 A 
ATOM     27  C   UNL     1      -4.221   2.020  23.747  0.00  0.00    +0.004 A 
ATOM     29  C   UNL     1      -5.508   3.234  25.904  0.00  0.00    +0.000 A 
ATOM     30  C   UNL     1      -4.241   3.410  23.855  0.00  0.00    +0.000 A 
ATOM     31  C   UNL     1      -4.884   4.017  24.933  0.00  0.00    +0.000 A 
ENDBRANCH  20  23
ENDBRANCH  17  20
ENDBRANCH   8  17
ENDBRANCH  12  15
BRANCH  16  19
ATOM     19  C   UNL     1       1.223  -0.102  22.151  0.00  0.00    +0.164 C 
BRANCH  19   1
ATOM      1  S   UNL     1       2.988  -0.402  22.315  0.00  0.00    -0.155 S 
ATOM     28  C   UNL     1       3.508   1.258  22.818  0.00  0.00    +0.085 C 
ENDBRANCH  19   1
ENDBRANCH  16  19
TORSDOF 9
ENDMDL
MODEL 4
REMARK VINA RESULT:       0.0      3.004      5.039
REMARK  Name = 11865837
REMARK  12 active torsions:
REMARK  status: ('A' for Active; 'I' for Inactive)
REMARK    1  A    between atoms: S_1  and  C_19
REMARK    2  A    between atoms: S_1  and  C_28
REMARK    3  A    between atoms: N_7  and  C_11
REMARK    4  A    between atoms: N_8  and  C_17
REMARK    5  A    between atoms: N_9  and  C_22
REMARK    6  A    between atoms: C_12  and  C_15
REMARK    7  A    between atoms: C_16  and  C_19
REMARK    8  A    between atoms: C_17  and  C_20
REMARK    9  A    between atoms: C_17  and  C_21
REMARK   10  A    between atoms: C_20  and  C_23
REMARK   11  A    between atoms: C_22  and  C_24
REMARK   12  A    between atoms: C_22  and  C_25
REMARK                            x       y       z     vdW  Elec       q    Type
REMARK                         _______ _______ _______ _____ _____    ______ ____
ROOT
ATOM      3  O   UNL     1      -0.315  -0.831  24.031  0.00  0.00    -0.275 OA
ATOM      6  N   UNL     1      -0.058   1.457  23.791  0.00  0.00    -0.287 N 
ATOM     11  C   UNL     1      -0.569   3.312  25.177  0.00  0.00    +0.105 C 
ATOM     12  C   UNL     1      -0.888   1.838  24.929  0.00  0.00    +0.182 C 
ATOM     13  C   UNL     1      -0.148   3.823  23.796  0.00  0.00    +0.043 C 
ATOM     14  C   UNL     1       0.552   2.627  23.163  0.00  0.00    +0.110 C 
ATOM     16  C   UNL     1       0.218   0.134  23.481  0.00  0.00    +0.226 C 
ENDROOT
BRANCH  11   7
ATOM      4  O   UNL     1      -0.089   1.671  27.502  0.00  0.00    -0.253 OA
ATOM      7  N   UNL     1       0.499   3.455  26.138  0.00  0.00    -0.294 N 
ATOM      9  N   UNL     1       1.764   2.975  27.998  0.00  0.00    -0.297 N 
ATOM     18  C   UNL     1       0.656   2.614  27.237  0.00  0.00    +0.300 C 
ATOM     32  H   UNL     1       1.208   4.164  25.974  0.00  0.00    +0.151 HD
ATOM     34  H   UNL     1       2.361   3.723  27.656  0.00  0.00    +0.150 HD
BRANCH   9  22
ATOM     22  C   UNL     1       2.156   2.269  29.194  0.00  0.00    +0.068 C 
ATOM     24  C   UNL     1       3.591   2.615  29.573  0.00  0.00    +0.027 C 
ATOM     25  C   UNL     1       1.194   2.580  30.333  0.00  0.00    +0.027 C 
ENDBRANCH   9  22
ENDBRANCH  11   7
BRANCH  12  15
ATOM      2  O   UNL     1      -2.612   1.421  23.330  0.00  0.00    -0.274 OA
ATOM      8  N   UNL     1      -3.200   1.785  25.554  0.00  0.00    -0.302 N 
ATOM     15  C   UNL     1      -2.312   1.649  24.499  0.00  0.00    +0.236 C 
ATOM     33  H   UNL     1      -2.834   1.922  26.492  0.00  0.00    +0.150 HD
BRANCH   8  17
ATOM     17  C   UNL     1      -4.632   1.672  25.400  0.00  0.00    +0.163 C 
BRANCH  17  21
ATOM      5  O   UNL     1      -4.708   3.676  24.026  0.00  0.00    -0.274 OA
ATOM     10  N   UNL     1      -6.198   3.477  25.764  0.00  0.00    -0.328 N 
ATOM     21  C   UNL     1      -5.148   3.042  24.983  0.00  0.00    +0.231 C 
ATOM     35  H   UNL     1      -6.645   4.370  25.585  0.00  0.00    +0.145 HD
ATOM     36  H   UNL     1      -6.566   2.933  26.538  0.00  0.00    +0.145 HD
ENDBRANCH  17  21
BRANCH  17  20
ATOM     20  C   UNL     1      -5.022   0.616  24.360  0.00  0.00    +0.067 C 
BRANCH  20  23
ATOM     23  C   UNL     1      -4.358  -0.717  24.603  0.00  0.00    -0.045 A 
ATOM     26  C   UNL     1      -3.745  -0.977  25.829  0.00  0.00    +0.004 A 
ATOM     27  C   UNL     1      -4.357  -1.690  23.604  0.00  0.00    +0.004 A 
ATOM     29  C   UNL     1      -3.132  -2.210  26.055  0.00  0.00    +0.000 A 
ATOM     30  C   UNL     1      -3.744  -2.922  23.829  0.00  0.00    +0.000 A 
ATOM     31  C   UNL     1      -3.131  -3.182  25.055  0.00  0.00    +0.000 A 
ENDBRANCH  20  23
ENDBRANCH  17  20
ENDBRANCH   8  17
ENDBRANCH  12  15
BRANCH  16  19
ATOM     19  C   UNL     1       1.235  -0.079  22.387  0.00  0.00    +0.164 C 
BRANCH  19   1
ATOM      1  S   UNL     1       2.793  -0.521  23.169  0.00  0.00    -0.155 S 
ATOM     28  C   UNL     1       3.776   0.912  22.662  0.00  0.00    +0.085 C 
ENDBRANCH  19   1
ENDBRANCH  16  19
TORSDOF 9
ENDMDL
MODEL 5
REMARK VINA RESULT:       0.2      1.647      3.166
REMARK  Name = 11865837
REMARK  12 active torsions:
REMARK  status: ('A' for Active; 'I' for Inactive)
REMARK    1  A    between atoms: S_1  and  C_19
REMARK    2  A    between atoms: S_1  and  C_28
REMARK    3  A    between atoms: N_7  and  C_11
REMARK    4  A    between atoms: N_8  and  C_17
REMARK    5  A    between atoms: N_9  and  C_22
REMARK    6  A    between atoms: C_12  and  C_15
REMARK    7  A    between atoms: C_16  and  C_19
REMARK    8  A    between atoms: C_17  and  C_20
REMARK    9  A    between atoms: C_17  and  C_21
REMARK   10  A    between atoms: C_20  and  C_23
REMARK   11  A    between atoms: C_22  and  C_24
REMARK   12  A    between atoms: C_22  and  C_25
REMARK                            x       y       z     vdW  Elec       q    Type
REMARK                         _______ _______ _______ _____ _____    ______ ____
ROOT
ATOM      3  O   UNL     1      -2.359  -0.599  26.045  0.00  0.00    -0.275 OA
ATOM      6  N   UNL     1      -1.136  -0.617  24.080  0.00  0.00    -0.287 N 
ATOM     11  C   UNL     1       0.236   0.984  22.996  0.00  0.00    +0.105 C 
ATOM     12  C   UNL     1      -0.872   0.818  24.036  0.00  0.00    +0.182 C 
ATOM     13  C   UNL     1       0.030  -0.210  22.060  0.00  0.00    +0.043 C 
ATOM     14  C   UNL     1      -0.467  -1.315  22.985  0.00  0.00    +0.110 C 
ATOM     16  C   UNL     1      -1.805  -1.218  25.135  0.00  0.00    +0.226 C 
ENDROOT
BRANCH  11   7
ATOM      4  O   UNL     1       2.682  -0.032  21.850  0.00  0.00    -0.253 OA
ATOM      7  N   UNL     1       1.538   0.947  23.617  0.00  0.00    -0.294 N 
ATOM      9  N   UNL     1       3.791   0.521  23.811  0.00  0.00    -0.297 N 
ATOM     18  C   UNL     1       2.671   0.435  22.988  0.00  0.00    +0.300 C 
ATOM     32  H   UNL     1       1.651   1.369  24.534  0.00  0.00    +0.151 HD
ATOM     34  H   UNL     1       3.696   0.992  24.706  0.00  0.00    +0.150 HD
BRANCH   9  22
ATOM     22  C   UNL     1       5.097   0.062  23.405  0.00  0.00    +0.068 C 
ATOM     24  C   UNL     1       6.185   0.930  24.025  0.00  0.00    +0.027 C 
ATOM     25  C   UNL     1       5.283  -1.404  23.776  0.00  0.00    +0.027 C 
ENDBRANCH   9  22
ENDBRANCH  11   7
BRANCH  12  15
ATOM      2  O   UNL     1      -2.290   1.901  22.449  0.00  0.00    -0.274 OA
ATOM      8  N   UNL     1      -3.083   1.539  24.607  0.00  0.00    -0.302 N 
ATOM     15  C   UNL     1      -2.146   1.471  23.590  0.00  0.00    +0.236 C 
ATOM     33  H   UNL     1      -2.873   1.102  25.501  0.00  0.00    +0.150 HD
BRANCH   8  17
ATOM     17  C   UNL     1      -4.385   2.143  24.443  0.00  0.00    +0.163 C 
BRANCH  17  21
ATOM      5  O   UNL     1      -5.093   0.238  25.776  0.00  0.00    -0.274 OA
ATOM     10  N   UNL     1      -6.587   1.947  25.422  0.00  0.00    -0.328 N 
ATOM     21  C   UNL     1      -5.368   1.322  25.266  0.00  0.00    +0.231 C 
ATOM     35  H   UNL     1      -7.329   1.513  25.961  0.00  0.00    +0.145 HD
ATOM     36  H   UNL     1      -6.792   2.853  25.014  0.00  0.00    +0.145 HD
ENDBRANCH  17  21
BRANCH  17  20
ATOM     20  C   UNL     1      -4.406   3.608  24.893  0.00  0.00    +0.067 C 
BRANCH  20  23
ATOM     23  C   UNL     1      -3.028   4.221  24.949  0.00  0.00    -0.045 A 
ATOM     26  C   UNL     1      -2.045   3.655  25.760  0.00  0.00    +0.004 A 
ATOM     27  C   UNL     1      -2.737   5.354  24.189  0.00  0.00    +0.004 A 
ATOM     29  C   UNL     1      -0.771   4.221  25.811  0.00  0.00    +0.000 A 
ATOM     30  C   UNL     1      -1.464   5.921  24.241  0.00  0.00    +0.000 A 
ATOM     31  C   UNL     1      -0.480   5.354  25.052  0.00  0.00    +0.000 A 
ENDBRANCH  20  23
ENDBRANCH  17  20
ENDBRANCH   8  17
ENDBRANCH  12  15
BRANCH  16  19
ATOM     19  C   UNL     1      -1.834  -2.726  25.113  0.00  0.00    +0.164 C 
BRANCH  19   1
ATOM      1  S   UNL     1      -3.549  -3.237  24.931  0.00  0.00    -0.155 S 
ATOM     28  C   UNL     1      -4.059  -2.054  23.660  0.00  0.00    +0.085 C 
ENDBRANCH  19   1
ENDBRANCH  16  19
TORSDOF 9
ENDMDL
MODEL 6
REMARK VINA RESULT:       3.1      1.631      2.340
REMARK  Name = 11865837
REMARK  12 active torsions:
REMARK  status: ('A' for Active; 'I' for Inactive)
REMARK    1  A    between atoms: S_1  and  C_19
REMARK    2  A    between atoms: S_1  and  C_28
REMARK    3  A    between atoms: N_7  and  C_11
REMARK    4  A    between atoms: N_8  and  C_17
REMARK    5  A    between atoms: N_9  and  C_22
REMARK    6  A    between atoms: C_12  and  C_15
REMARK    7  A    between atoms: C_16  and  C_19
REMARK    8  A    between atoms: C_17  and  C_20
REMARK    9  A    between atoms: C_17  and  C_21
REMARK   10  A    between atoms: C_20  and  C_23
REMARK   11  A    between atoms: C_22  and  C_24
REMARK   12  A    between atoms: C_22  and  C_25
REMARK                            x       y       z     vdW  Elec       q    Type
REMARK                         _______ _______ _______ _____ _____    ______ ____
ROOT
ATOM      3  O   UNL     1      -1.104  -0.663  26.187  0.00  0.00    -0.275 OA
ATOM      6  N   UNL     1      -0.328  -0.940  24.023  0.00  0.00    -0.287 N 
ATOM     11  C   UNL     1       1.416   0.067  22.772  0.00  0.00    +0.105 C 
ATOM     12  C   UNL     1       0.521   0.247  23.998  0.00  0.00    +0.182 C 
ATOM     13  C   UNL     1       0.573  -0.805  21.838  0.00  0.00    +0.043 C 
ATOM     14  C   UNL     1      -0.205  -1.709  22.787  0.00  0.00    +0.110 C 
ATOM     16  C   UNL     1      -1.020  -1.336  25.158  0.00  0.00    +0.226 C 
ENDROOT
BRANCH  11   7
ATOM      4  O   UNL     1       3.990   1.309  23.174  0.00  0.00    -0.253 OA
ATOM      7  N   UNL     1       2.653  -0.589  23.128  0.00  0.00    -0.294 N 
ATOM      9  N   UNL     1       4.887  -0.779  23.641  0.00  0.00    -0.297 N 
ATOM     18  C   UNL     1       3.855   0.092  23.302  0.00  0.00    +0.300 C 
ATOM     32  H   UNL     1       2.636  -1.586  23.321  0.00  0.00    +0.151 HD
ATOM     34  H   UNL     1       4.660  -1.757  23.796  0.00  0.00    +0.150 HD
BRANCH   9  22
ATOM     22  C   UNL     1       6.239  -0.337  23.879  0.00  0.00    +0.068 C 
ATOM     24  C   UNL     1       7.116  -0.621  22.665  0.00  0.00    +0.027 C 
ATOM     25  C   UNL     1       6.258   1.144  24.238  0.00  0.00    +0.027 C 
ENDBRANCH   9  22
ENDBRANCH  11   7
BRANCH  12  15
ATOM      2  O   UNL     1      -0.063   2.556  24.174  0.00  0.00    -0.274 OA
ATOM      8  N   UNL     1      -1.624   1.061  23.309  0.00  0.00    -0.302 N 
ATOM     15  C   UNL     1      -0.397   1.422  23.839  0.00  0.00    +0.236 C 
ATOM     33  H   UNL     1      -1.772   0.098  23.019  0.00  0.00    +0.150 HD
BRANCH   8  17
ATOM     17  C   UNL     1      -2.694   2.005  23.078  0.00  0.00    +0.163 C 
BRANCH  17  21
ATOM      5  O   UNL     1      -3.265   3.269  21.083  0.00  0.00    -0.274 OA
ATOM     10  N   UNL     1      -2.070   1.322  20.845  0.00  0.00    -0.328 N 
ATOM     21  C   UNL     1      -2.735   2.279  21.582  0.00  0.00    +0.231 C 
ATOM     35  H   UNL     1      -2.010   1.391  19.834  0.00  0.00    +0.145 HD
ATOM     36  H   UNL     1      -1.617   0.521  21.273  0.00  0.00    +0.145 HD
ENDBRANCH  17  21
BRANCH  17  20
ATOM     20  C   UNL     1      -4.048   1.474  23.562  0.00  0.00    +0.067 C 
BRANCH  20  23
ATOM     23  C   UNL     1      -4.760   2.438  24.478  0.00  0.00    -0.045 A 
ATOM     26  C   UNL     1      -4.314   3.755  24.587  0.00  0.00    +0.004 A 
ATOM     27  C   UNL     1      -5.865   2.013  25.217  0.00  0.00    +0.004 A 
ATOM     29  C   UNL     1      -4.973   4.647  25.434  0.00  0.00    +0.000 A 
ATOM     30  C   UNL     1      -6.523   2.905  26.064  0.00  0.00    +0.000 A 
ATOM     31  C   UNL     1      -6.077   4.222  26.172  0.00  0.00    +0.000 A 
ENDBRANCH  20  23
ENDBRANCH  17  20
ENDBRANCH   8  17
ENDBRANCH  12  15
BRANCH  16  19
ATOM     19  C   UNL     1      -1.702  -2.678  25.069  0.00  0.00    +0.164 C 
BRANCH  19   1
ATOM      1  S   UNL     1      -3.403  -2.394  24.558  0.00  0.00    -0.155 S 
ATOM     28  C   UNL     1      -3.842  -1.107  25.753  0.00  0.00    +0.085 C 
ENDBRANCH  19   1
ENDBRANCH  16  19
TORSDOF 9
ENDMDL
