MODEL 1
REMARK VINA RESULT:      18.4      0.000      0.000
REMARK  Name = 25390052
REMARK  8 active torsions:
REMARK  status: ('A' for Active; 'I' for Inactive)
REMARK    1  A    between atoms: N_3  and  C_10
REMARK    2  A    between atoms: N_4  and  C_18
REMARK    3  A    between atoms: N_6  and  C_25
REMARK    4  A    between atoms: C_8  and  C_11
REMARK    5  A    between atoms: C_14  and  C_16
REMARK    6  A    between atoms: C_15  and  C_17
REMARK    7  A    between atoms: C_24  and  C_26
REMARK    8  A    between atoms: C_29  and  C_32
REMARK                            x       y       z     vdW  Elec       q    Type
REMARK                         _______ _______ _______ _____ _____    ______ ____
ROOT
ATOM      8  C   UNL     1      -1.421  -1.223  24.384  0.00  0.00    +0.047 C 
ATOM      9  C   UNL     1      -0.707  -1.401  25.740  0.00  0.00    +0.039 C 
ATOM     10  C   UNL     1      -0.034  -2.779  25.681  0.00  0.00    +0.098 C 
ATOM     12  C   UNL     1      -1.573  -2.640  23.912  0.00  0.00    -0.021 C 
ATOM     13  C   UNL     1      -0.814  -3.482  24.618  0.00  0.00    -0.009 C 
ENDROOT
BRANCH   8  11
ATOM      4  N   UNL     1      -4.218   1.118  24.729  0.00  0.00    -0.236 N 
ATOM      5  N   UNL     1      -4.952   0.013  24.515  0.00  0.00    -0.171 NA
ATOM     11  C   UNL     1      -2.715  -0.449  24.489  0.00  0.00    +0.003 A 
ATOM     14  C   UNL     1      -2.872   0.896  24.723  0.00  0.00    +0.046 A 
ATOM     15  C   UNL     1      -4.029  -0.941  24.369  0.00  0.00    +0.064 A 
ATOM     16  C   UNL     1      -1.873   1.962  24.936  0.00  0.00    +0.066 C 
ATOM     17  C   UNL     1      -4.455  -2.328  24.112  0.00  0.00    +0.068 C 
BRANCH   4  18
ATOM      1 CL   UNL     1      -4.465   6.092  23.609  0.00  0.00    -0.083 Cl
ATOM     18  C   UNL     1      -4.854   2.343  24.930  0.00  0.00    +0.067 A 
ATOM     20  C   UNL     1      -4.407   3.481  24.257  0.00  0.00    +0.048 A 
ATOM     21  C   UNL     1      -5.936   2.431  25.805  0.00  0.00    +0.028 A 
ATOM     22  C   UNL     1      -5.044   4.706  24.459  0.00  0.00    +0.046 A 
ATOM     23  C   UNL     1      -6.572   3.656  26.008  0.00  0.00    +0.007 A 
ATOM     24  C   UNL     1      -6.126   4.794  25.335  0.00  0.00    -0.032 A 
ATOM     26  C   UNL     1      -6.833   6.087  25.580  0.00  0.00    +0.045 C 
ENDBRANCH   4  18
ENDBRANCH   8  11
BRANCH  10   3
ATOM      2  O   UNL     1       1.206  -0.695  24.154  0.00  0.00    -0.252 OA
ATOM      3  N   UNL     1       1.347  -2.707  25.286  0.00  0.00    -0.293 N 
ATOM      6  N   UNL     1       3.243  -1.850  24.304  0.00  0.00    -0.269 N 
ATOM     19  C   UNL     1       1.880  -1.649  24.535  0.00  0.00    +0.304 C 
ATOM     33  H   UNL     1       1.963  -3.481  25.519  0.00  0.00    +0.151 HD
ATOM     34  H   UNL     1       3.651  -2.697  24.691  0.00  0.00    +0.156 HD
BRANCH   6  25
ATOM     25  C   UNL     1       4.135  -1.015  23.591  0.00  0.00    +0.036 A 
ATOM     27  C   UNL     1       5.510  -1.122  23.801  0.00  0.00    +0.042 A 
ATOM     28  C   UNL     1       3.640  -0.086  22.677  0.00  0.00    +0.023 A 
ATOM     29  C   UNL     1       6.390  -0.300  23.097  0.00  0.00    +0.054 A 
ATOM     30  C   UNL     1       4.519   0.738  21.973  0.00  0.00    +0.003 A 
ATOM     31  C   UNL     1       5.894   0.631  22.183  0.00  0.00    +0.019 A 
BRANCH  29  32
ATOM      7  N   UNL     1       8.942  -0.499  23.486  0.00  0.00    -0.191 NA
ATOM     32  C   UNL     1       7.798  -0.409  23.312  0.00  0.00    +0.099 C 
ENDBRANCH  29  32
ENDBRANCH   6  25
ENDBRANCH  10   3
TORSDOF 5
ENDMDL
MODEL 2
REMARK VINA RESULT:      20.1      2.350      3.757
REMARK  Name = 25390052
REMARK  8 active torsions:
REMARK  status: ('A' for Active; 'I' for Inactive)
REMARK    1  A    between atoms: N_3  and  C_10
REMARK    2  A    between atoms: N_4  and  C_18
REMARK    3  A    between atoms: N_6  and  C_25
REMARK    4  A    between atoms: C_8  and  C_11
REMARK    5  A    between atoms: C_14  and  C_16
REMARK    6  A    between atoms: C_15  and  C_17
REMARK    7  A    between atoms: C_24  and  C_26
REMARK    8  A    between atoms: C_29  and  C_32
REMARK                            x       y       z     vdW  Elec       q    Type
REMARK                         _______ _______ _______ _____ _____    ______ ____
ROOT
ATOM      8  C   UNL     1       1.313   0.259  24.055  0.00  0.00    +0.047 C 
ATOM      9  C   UNL     1       1.588  -0.416  22.696  0.00  0.00    +0.039 C 
ATOM     10  C   UNL     1       2.857   0.249  22.147  0.00  0.00    +0.098 C 
ATOM     12  C   UNL     1       2.056   1.557  23.926  0.00  0.00    -0.021 C 
ATOM     13  C   UNL     1       2.898   1.546  22.888  0.00  0.00    -0.009 C 
ENDROOT
BRANCH   8  11
ATOM      4  N   UNL     1      -2.160   1.178  24.770  0.00  0.00    -0.236 N 
ATOM      5  N   UNL     1      -2.327  -0.153  24.829  0.00  0.00    -0.171 NA
ATOM     11  C   UNL     1      -0.160   0.401  24.362  0.00  0.00    +0.003 A 
ATOM     14  C   UNL     1      -0.882   1.563  24.492  0.00  0.00    +0.046 A 
ATOM     15  C   UNL     1      -1.101  -0.624  24.580  0.00  0.00    +0.064 A 
ATOM     16  C   UNL     1      -0.467   2.976  24.378  0.00  0.00    +0.066 C 
ATOM     17  C   UNL     1      -0.873  -2.079  24.558  0.00  0.00    +0.068 C 
BRANCH   4  18
ATOM      1 CL   UNL     1      -7.215   1.849  24.525  0.00  0.00    -0.083 Cl
ATOM     18  C   UNL     1      -3.251   2.022  24.984  0.00  0.00    +0.067 A 
ATOM     20  C   UNL     1      -4.542   1.582  24.687  0.00  0.00    +0.048 A 
ATOM     21  C   UNL     1      -3.051   3.304  25.493  0.00  0.00    +0.028 A 
ATOM     22  C   UNL     1      -5.632   2.426  24.901  0.00  0.00    +0.046 A 
ATOM     23  C   UNL     1      -4.142   4.148  25.705  0.00  0.00    +0.007 A 
ATOM     24  C   UNL     1      -5.432   3.709  25.409  0.00  0.00    -0.032 A 
ATOM     26  C   UNL     1      -6.574   4.643  25.651  0.00  0.00    +0.045 C 
ENDBRANCH   4  18
ENDBRANCH   8  11
BRANCH  10   3
ATOM      2  O   UNL     1       5.212   1.219  23.460  0.00  0.00    -0.252 OA
ATOM      3  N   UNL     1       4.049  -0.500  22.438  0.00  0.00    -0.293 N 
ATOM      6  N   UNL     1       6.168  -0.913  23.234  0.00  0.00    -0.269 N 
ATOM     19  C   UNL     1       5.165   0.048  23.088  0.00  0.00    +0.304 C 
ATOM     33  H   UNL     1       4.111  -1.463  22.120  0.00  0.00    +0.151 HD
ATOM     34  H   UNL     1       5.968  -1.840  22.868  0.00  0.00    +0.156 HD
BRANCH   6  25
ATOM     25  C   UNL     1       7.440  -0.755  23.833  0.00  0.00    +0.036 A 
ATOM     27  C   UNL     1       7.721  -1.380  25.048  0.00  0.00    +0.042 A 
ATOM     28  C   UNL     1       8.413   0.023  23.208  0.00  0.00    +0.023 A 
ATOM     29  C   UNL     1       8.976  -1.225  25.638  0.00  0.00    +0.054 A 
ATOM     30  C   UNL     1       9.668   0.179  23.798  0.00  0.00    +0.003 A 
ATOM     31  C   UNL     1       9.950  -0.446  25.013  0.00  0.00    +0.019 A 
BRANCH  29  32
ATOM      7  N   UNL     1       9.499  -2.385  27.893  0.00  0.00    -0.191 NA
ATOM     32  C   UNL     1       9.264  -1.865  26.883  0.00  0.00    +0.099 C 
ENDBRANCH  29  32
ENDBRANCH   6  25
ENDBRANCH  10   3
TORSDOF 5
ENDMDL
MODEL 3
REMARK VINA RESULT:      20.1      2.194      3.502
REMARK  Name = 25390052
REMARK  8 active torsions:
REMARK  status: ('A' for Active; 'I' for Inactive)
REMARK    1  A    between atoms: N_3  and  C_10
REMARK    2  A    between atoms: N_4  and  C_18
REMARK    3  A    between atoms: N_6  and  C_25
REMARK    4  A    between atoms: C_8  and  C_11
REMARK    5  A    between atoms: C_14  and  C_16
REMARK    6  A    between atoms: C_15  and  C_17
REMARK    7  A    between atoms: C_24  and  C_26
REMARK    8  A    between atoms: C_29  and  C_32
REMARK                            x       y       z     vdW  Elec       q    Type
REMARK                         _______ _______ _______ _____ _____    ______ ____
ROOT
ATOM      8  C   UNL     1       0.995   0.405  24.332  0.00  0.00    +0.047 C 
ATOM      9  C   UNL     1       1.220  -0.602  23.186  0.00  0.00    +0.039 C 
ATOM     10  C   UNL     1       2.407  -0.061  22.379  0.00  0.00    +0.098 C 
ATOM     12  C   UNL     1       1.650   1.648  23.801  0.00  0.00    -0.021 C 
ATOM     13  C   UNL     1       2.419   1.388  22.740  0.00  0.00    -0.009 C 
ENDROOT
BRANCH   8  11
ATOM      4  N   UNL     1      -2.455   1.361  25.110  0.00  0.00    -0.236 N 
ATOM      5  N   UNL     1      -2.576   0.055  25.400  0.00  0.00    -0.171 NA
ATOM     11  C   UNL     1      -0.460   0.568  24.707  0.00  0.00    +0.003 A 
ATOM     14  C   UNL     1      -1.207   1.720  24.689  0.00  0.00    +0.046 A 
ATOM     15  C   UNL     1      -1.354  -0.425  25.153  0.00  0.00    +0.064 A 
ATOM     16  C   UNL     1      -0.844   3.102  24.316  0.00  0.00    +0.066 C 
ATOM     17  C   UNL     1      -1.083  -1.859  25.358  0.00  0.00    +0.068 C 
BRANCH   4  18
ATOM      1 CL   UNL     1      -7.475   2.054  24.497  0.00  0.00    -0.083 Cl
ATOM     18  C   UNL     1      -3.556   2.206  25.251  0.00  0.00    +0.067 A 
ATOM     20  C   UNL     1      -4.823   1.775  24.855  0.00  0.00    +0.048 A 
ATOM     21  C   UNL     1      -3.391   3.482  25.788  0.00  0.00    +0.028 A 
ATOM     22  C   UNL     1      -5.923   2.621  24.997  0.00  0.00    +0.046 A 
ATOM     23  C   UNL     1      -4.491   4.329  25.929  0.00  0.00    +0.007 A 
ATOM     24  C   UNL     1      -5.757   3.897  25.533  0.00  0.00    -0.032 A 
ATOM     26  C   UNL     1      -6.911   4.833  25.699  0.00  0.00    +0.045 C 
ENDBRANCH   4  18
ENDBRANCH   8  11
BRANCH  10   3
ATOM      2  O   UNL     1       5.015   1.085  22.070  0.00  0.00    -0.252 OA
ATOM      3  N   UNL     1       3.659  -0.656  22.765  0.00  0.00    -0.293 N 
ATOM      6  N   UNL     1       5.935  -0.840  23.048  0.00  0.00    -0.269 N 
ATOM     19  C   UNL     1       4.899  -0.027  22.579  0.00  0.00    +0.304 C 
ATOM     33  H   UNL     1       3.656  -1.596  23.149  0.00  0.00    +0.151 HD
ATOM     34  H   UNL     1       5.667  -1.738  23.444  0.00  0.00    +0.156 HD
BRANCH   6  25
ATOM     25  C   UNL     1       7.323  -0.568  23.041  0.00  0.00    +0.036 A 
ATOM     27  C   UNL     1       7.819   0.550  23.711  0.00  0.00    +0.042 A 
ATOM     28  C   UNL     1       8.196  -1.419  22.364  0.00  0.00    +0.023 A 
ATOM     29  C   UNL     1       9.188   0.818  23.705  0.00  0.00    +0.054 A 
ATOM     30  C   UNL     1       9.566  -1.152  22.357  0.00  0.00    +0.003 A 
ATOM     31  C   UNL     1      10.062  -0.033  23.027  0.00  0.00    +0.019 A 
BRANCH  29  32
ATOM      7  N   UNL     1      10.108   2.894  24.948  0.00  0.00    -0.191 NA
ATOM     32  C   UNL     1       9.695   1.963  24.391  0.00  0.00    +0.099 C 
ENDBRANCH  29  32
ENDBRANCH   6  25
ENDBRANCH  10   3
TORSDOF 5
ENDMDL
MODEL 4
REMARK VINA RESULT:      20.7      4.938      8.531
REMARK  Name = 25390052
REMARK  8 active torsions:
REMARK  status: ('A' for Active; 'I' for Inactive)
REMARK    1  A    between atoms: N_3  and  C_10
REMARK    2  A    between atoms: N_4  and  C_18
REMARK    3  A    between atoms: N_6  and  C_25
REMARK    4  A    between atoms: C_8  and  C_11
REMARK    5  A    between atoms: C_14  and  C_16
REMARK    6  A    between atoms: C_15  and  C_17
REMARK    7  A    between atoms: C_24  and  C_26
REMARK    8  A    between atoms: C_29  and  C_32
REMARK                            x       y       z     vdW  Elec       q    Type
REMARK                         _______ _______ _______ _____ _____    ______ ____
ROOT
ATOM      8  C   UNL     1       6.682   0.394  22.700  0.00  0.00    +0.047 C 
ATOM      9  C   UNL     1       7.377   1.326  23.714  0.00  0.00    +0.039 C 
ATOM     10  C   UNL     1       8.858   0.925  23.705  0.00  0.00    +0.098 C 
ATOM     12  C   UNL     1       7.637  -0.762  22.618  0.00  0.00    -0.021 C 
ATOM     13  C   UNL     1       8.821  -0.467  23.163  0.00  0.00    -0.009 C 
ENDROOT
BRANCH   8  11
ATOM      4  N   UNL     1       3.116   0.013  23.445  0.00  0.00    -0.236 N 
ATOM      5  N   UNL     1       3.516  -1.168  23.944  0.00  0.00    -0.171 NA
ATOM     11  C   UNL     1       5.272   0.024  23.099  0.00  0.00    +0.003 A 
ATOM     14  C   UNL     1       4.129   0.765  22.926  0.00  0.00    +0.046 A 
ATOM     15  C   UNL     1       4.835  -1.157  23.731  0.00  0.00    +0.064 A 
ATOM     16  C   UNL     1       3.923   2.097  22.324  0.00  0.00    +0.066 C 
ATOM     17  C   UNL     1       5.648  -2.311  24.151  0.00  0.00    +0.068 C 
BRANCH   4  18
ATOM      1 CL   UNL     1      -0.446   3.283  25.081  0.00  0.00    -0.083 Cl
ATOM     18  C   UNL     1       1.766   0.362  23.492  0.00  0.00    +0.067 A 
ATOM     20  C   UNL     1       1.364   1.509  24.178  0.00  0.00    +0.048 A 
ATOM     21  C   UNL     1       0.817  -0.437  22.855  0.00  0.00    +0.028 A 
ATOM     22  C   UNL     1       0.014   1.856  24.225  0.00  0.00    +0.046 A 
ATOM     23  C   UNL     1      -0.534  -0.090  22.903  0.00  0.00    +0.007 A 
ATOM     24  C   UNL     1      -0.935   1.057  23.588  0.00  0.00    -0.032 A 
ATOM     26  C   UNL     1      -2.391   1.394  23.617  0.00  0.00    +0.045 C 
ENDBRANCH   4  18
ENDBRANCH   8  11
BRANCH  10   3
ATOM      2  O   UNL     1       8.984   3.787  23.702  0.00  0.00    -0.252 OA
ATOM      3  N   UNL     1       9.653   1.750  22.835  0.00  0.00    -0.293 N 
ATOM      6  N   UNL     1      10.523   3.679  21.934  0.00  0.00    -0.269 N 
ATOM     19  C   UNL     1       9.660   3.151  22.897  0.00  0.00    +0.304 C 
ATOM     33  H   UNL     1      10.203   1.304  22.107  0.00  0.00    +0.151 HD
ATOM     34  H   UNL     1      11.011   3.011  21.342  0.00  0.00    +0.156 HD
BRANCH   6  25
ATOM     25  C   UNL     1      10.807   5.041  21.676  0.00  0.00    +0.036 A 
ATOM     27  C   UNL     1      11.873   5.387  20.845  0.00  0.00    +0.042 A 
ATOM     28  C   UNL     1      10.020   6.038  22.251  0.00  0.00    +0.023 A 
ATOM     29  C   UNL     1      12.153   6.729  20.591  0.00  0.00    +0.054 A 
ATOM     30  C   UNL     1      10.299   7.381  21.997  0.00  0.00    +0.003 A 
ATOM     31  C   UNL     1      11.366   7.727  21.167  0.00  0.00    +0.019 A 
BRANCH  29  32
ATOM      7  N   UNL     1      14.132   7.371  19.050  0.00  0.00    -0.191 NA
ATOM     32  C   UNL     1      13.245   7.084  19.740  0.00  0.00    +0.099 C 
ENDBRANCH  29  32
ENDBRANCH   6  25
ENDBRANCH  10   3
TORSDOF 5
ENDMDL
MODEL 5
REMARK VINA RESULT:      20.8      2.266      3.601
REMARK  Name = 25390052
REMARK  8 active torsions:
REMARK  status: ('A' for Active; 'I' for Inactive)
REMARK    1  A    between atoms: N_3  and  C_10
REMARK    2  A    between atoms: N_4  and  C_18
REMARK    3  A    between atoms: N_6  and  C_25
REMARK    4  A    between atoms: C_8  and  C_11
REMARK    5  A    between atoms: C_14  and  C_16
REMARK    6  A    between atoms: C_15  and  C_17
REMARK    7  A    between atoms: C_24  and  C_26
REMARK    8  A    between atoms: C_29  and  C_32
REMARK                            x       y       z     vdW  Elec       q    Type
REMARK                         _______ _______ _______ _____ _____    ______ ____
ROOT
ATOM      8  C   UNL     1       1.117   0.300  24.177  0.00  0.00    +0.047 C 
ATOM      9  C   UNL     1       1.288  -0.489  22.862  0.00  0.00    +0.039 C 
ATOM     10  C   UNL     1       2.508   0.123  22.162  0.00  0.00    +0.098 C 
ATOM     12  C   UNL     1       1.844   1.580  23.881  0.00  0.00    -0.021 C 
ATOM     13  C   UNL     1       2.602   1.477  22.785  0.00  0.00    -0.009 C 
ENDROOT
BRANCH   8  11
ATOM      4  N   UNL     1      -2.309   1.280  25.025  0.00  0.00    -0.236 N 
ATOM      5  N   UNL     1      -2.429  -0.022  25.335  0.00  0.00    -0.171 NA
ATOM     11  C   UNL     1      -0.328   0.473  24.585  0.00  0.00    +0.003 A 
ATOM     14  C   UNL     1      -1.071   1.628  24.571  0.00  0.00    +0.046 A 
ATOM     15  C   UNL     1      -1.215  -0.510  25.064  0.00  0.00    +0.064 A 
ATOM     16  C   UNL     1      -0.711   3.004  24.172  0.00  0.00    +0.066 C 
ATOM     17  C   UNL     1      -0.945  -1.942  25.280  0.00  0.00    +0.068 C 
BRANCH   4  18
ATOM      1 CL   UNL     1      -7.339   1.989  24.519  0.00  0.00    -0.083 Cl
ATOM     18  C   UNL     1      -3.403   2.132  25.183  0.00  0.00    +0.067 A 
ATOM     20  C   UNL     1      -4.681   1.702  24.820  0.00  0.00    +0.048 A 
ATOM     21  C   UNL     1      -3.220   3.412  25.703  0.00  0.00    +0.028 A 
ATOM     22  C   UNL     1      -5.774   2.554  24.978  0.00  0.00    +0.046 A 
ATOM     23  C   UNL     1      -4.314   4.265  25.860  0.00  0.00    +0.007 A 
ATOM     24  C   UNL     1      -5.590   3.836  25.497  0.00  0.00    -0.032 A 
ATOM     26  C   UNL     1      -6.735   4.779  25.680  0.00  0.00    +0.045 C 
ENDBRANCH   4  18
ENDBRANCH   8  11
BRANCH  10   3
ATOM      2  O   UNL     1       5.161   1.200  22.259  0.00  0.00    -0.252 OA
ATOM      3  N   UNL     1       3.722  -0.603  22.422  0.00  0.00    -0.293 N 
ATOM      6  N   UNL     1       5.975  -0.951  22.729  0.00  0.00    -0.269 N 
ATOM     19  C   UNL     1       4.988  -0.001  22.453  0.00  0.00    +0.304 C 
ATOM     33  H   UNL     1       3.671  -1.610  22.545  0.00  0.00    +0.151 HD
ATOM     34  H   UNL     1       5.662  -1.909  22.865  0.00  0.00    +0.156 HD
BRANCH   6  25
ATOM     25  C   UNL     1       7.370  -0.745  22.843  0.00  0.00    +0.036 A 
ATOM     27  C   UNL     1       8.259  -1.669  22.296  0.00  0.00    +0.042 A 
ATOM     28  C   UNL     1       7.856   0.384  23.503  0.00  0.00    +0.023 A 
ATOM     29  C   UNL     1       9.635  -1.466  22.409  0.00  0.00    +0.054 A 
ATOM     30  C   UNL     1       9.231   0.588  23.616  0.00  0.00    +0.003 A 
ATOM     31  C   UNL     1      10.121  -0.337  23.069  0.00  0.00    +0.019 A 
BRANCH  29  32
ATOM      7  N   UNL     1      11.286  -3.182  21.394  0.00  0.00    -0.191 NA
ATOM     32  C   UNL     1      10.546  -2.413  21.848  0.00  0.00    +0.099 C 
ENDBRANCH  29  32
ENDBRANCH   6  25
ENDBRANCH  10   3
TORSDOF 5
ENDMDL
MODEL 6
REMARK VINA RESULT:      21.4      2.614      9.155
REMARK  Name = 25390052
REMARK  8 active torsions:
REMARK  status: ('A' for Active; 'I' for Inactive)
REMARK    1  A    between atoms: N_3  and  C_10
REMARK    2  A    between atoms: N_4  and  C_18
REMARK    3  A    between atoms: N_6  and  C_25
REMARK    4  A    between atoms: C_8  and  C_11
REMARK    5  A    between atoms: C_14  and  C_16
REMARK    6  A    between atoms: C_15  and  C_17
REMARK    7  A    between atoms: C_24  and  C_26
REMARK    8  A    between atoms: C_29  and  C_32
REMARK                            x       y       z     vdW  Elec       q    Type
REMARK                         _______ _______ _______ _____ _____    ______ ____
ROOT
ATOM      8  C   UNL     1      -1.626  -1.328  25.010  0.00  0.00    +0.047 C 
ATOM      9  C   UNL     1      -2.407  -1.334  23.681  0.00  0.00    +0.039 C 
ATOM     10  C   UNL     1      -3.814  -1.840  24.024  0.00  0.00    +0.098 C 
ATOM     12  C   UNL     1      -2.408  -2.299  25.847  0.00  0.00    -0.021 C 
ATOM     13  C   UNL     1      -3.599  -2.572  25.308  0.00  0.00    -0.009 C 
ENDROOT
BRANCH   8  11
ATOM      4  N   UNL     1       1.972  -1.622  24.385  0.00  0.00    -0.236 N 
ATOM      5  N   UNL     1       1.794  -2.847  24.909  0.00  0.00    -0.171 NA
ATOM     11  C   UNL     1      -0.163  -1.671  24.845  0.00  0.00    +0.003 A 
ATOM     14  C   UNL     1       0.831  -0.877  24.326  0.00  0.00    +0.046 A 
ATOM     15  C   UNL     1       0.488  -2.872  25.188  0.00  0.00    +0.064 A 
ATOM     16  C   UNL     1       0.788   0.498  23.789  0.00  0.00    +0.066 C 
ATOM     17  C   UNL     1      -0.102  -4.080  25.790  0.00  0.00    +0.068 C 
BRANCH   4  18
ATOM      1 CL   UNL     1       4.877   1.953  22.188  0.00  0.00    -0.083 Cl
ATOM     18  C   UNL     1       3.243  -1.227  23.967  0.00  0.00    +0.067 A 
ATOM     20  C   UNL     1       3.421   0.015  23.356  0.00  0.00    +0.048 A 
ATOM     21  C   UNL     1       4.334  -2.074  24.157  0.00  0.00    +0.028 A 
ATOM     22  C   UNL     1       4.692   0.410  22.937  0.00  0.00    +0.046 A 
ATOM     23  C   UNL     1       5.605  -1.680  23.736  0.00  0.00    +0.007 A 
ATOM     24  C   UNL     1       5.783  -0.438  23.127  0.00  0.00    -0.032 A 
ATOM     26  C   UNL     1       7.160  -0.053  22.690  0.00  0.00    +0.045 C 
ENDBRANCH   4  18
ENDBRANCH   8  11
BRANCH  10   3
ATOM      2  O   UNL     1      -3.192   0.874  24.700  0.00  0.00    -0.252 OA
ATOM      3  N   UNL     1      -4.752  -0.770  24.240  0.00  0.00    -0.293 N 
ATOM      6  N   UNL     1      -5.489   1.356  24.717  0.00  0.00    -0.269 N 
ATOM     19  C   UNL     1      -4.367   0.537  24.569  0.00  0.00    +0.304 C 
ATOM     33  H   UNL     1      -5.746  -0.977  24.198  0.00  0.00    +0.151 HD
ATOM     34  H   UNL     1      -6.396   0.918  24.573  0.00  0.00    +0.156 HD
BRANCH   6  25
ATOM     25  C   UNL     1      -5.524   2.732  25.045  0.00  0.00    +0.036 A 
ATOM     27  C   UNL     1      -4.350   3.484  25.022  0.00  0.00    +0.042 A 
ATOM     28  C   UNL     1      -6.732   3.335  25.391  0.00  0.00    +0.023 A 
ATOM     29  C   UNL     1      -4.383   4.841  25.345  0.00  0.00    +0.054 A 
ATOM     30  C   UNL     1      -6.767   4.692  25.715  0.00  0.00    +0.003 A 
ATOM     31  C   UNL     1      -5.592   5.445  25.692  0.00  0.00    +0.019 A 
BRANCH  29  32
ATOM      7  N   UNL     1      -2.204   6.237  25.302  0.00  0.00    -0.191 NA
ATOM     32  C   UNL     1      -3.181   5.612  25.321  0.00  0.00    +0.099 C 
ENDBRANCH  29  32
ENDBRANCH   6  25
ENDBRANCH  10   3
TORSDOF 5
ENDMDL
