MODEL 1
REMARK VINA RESULT:      -3.1      0.000      0.000
REMARK  Name = 75537116
REMARK  5 active torsions:
REMARK  status: ('A' for Active; 'I' for Inactive)
REMARK    1  A    between atoms: O_2  and  C_19
REMARK    2  A    between atoms: O_2  and  C_20
REMARK    3  A    between atoms: N_4  and  C_13
REMARK    4  A    between atoms: N_5  and  C_14
REMARK    5  A    between atoms: C_13  and  C_15
REMARK                            x       y       z     vdW  Elec       q    Type
REMARK                         _______ _______ _______ _____ _____    ______ ____
ROOT
ATOM      1  O   UNL     1       8.609  -7.846  32.853  0.00  0.00    -0.252 OA
ATOM      3  N   UNL     1      10.902  -7.568  32.426  0.00  0.00    -0.278 N 
ATOM      4  N   UNL     1      13.266  -6.414  31.430  0.00  0.00    -0.295 NA
ATOM      5  N   UNL     1      10.019  -9.620  32.199  0.00  0.00    -0.287 N 
ATOM      7  C   UNL     1      12.038  -8.423  32.146  0.00  0.00    +0.109 C 
ATOM      8  C   UNL     1      12.916  -7.801  31.062  0.00  0.00    +0.109 C 
ATOM      9  C   UNL     1      11.400  -9.759  31.769  0.00  0.00    +0.132 C 
ATOM     10  C   UNL     1      11.119  -6.155  32.655  0.00  0.00    +0.125 C 
ATOM     11  C   UNL     1      12.052  -5.588  31.582  0.00  0.00    +0.104 C 
ATOM     12  C   UNL     1       9.706  -8.289  32.537  0.00  0.00    +0.305 C 
ATOM     14  C   UNL     1       9.080 -10.716  32.122  0.00  0.00    +0.133 C 
ENDROOT
BRANCH   4  13
ATOM     13  C   UNL     1      14.157  -5.831  30.428  0.00  0.00    +0.121 C 
BRANCH  13  15
ATOM      6  N   UNL     1      15.522  -3.283  32.873  0.00  0.00    -0.221 NA
ATOM     15  C   UNL     1      14.998  -4.721  31.002  0.00  0.00    -0.015 A 
ATOM     16  C   UNL     1      15.994  -4.113  30.246  0.00  0.00    +0.011 A 
ATOM     17  C   UNL     1      14.803  -4.273  32.298  0.00  0.00    +0.119 A 
ATOM     18  C   UNL     1      16.755  -3.090  30.803  0.00  0.00    +0.067 A 
ATOM     19  C   UNL     1      16.481  -2.715  32.108  0.00  0.00    +0.214 A 
BRANCH  19   2
ATOM      2  O   UNL     1      17.218  -1.710  32.679  0.00  0.00    -0.480 OA
ATOM     20  C   UNL     1      17.030  -0.402  32.150  0.00  0.00    +0.279 C 
ENDBRANCH  19   2
ENDBRANCH  13  15
ENDBRANCH   4  13
TORSDOF 3
ENDMDL
MODEL 2
REMARK VINA RESULT:      -2.5     17.329     18.686
REMARK  Name = 75537116
REMARK  5 active torsions:
REMARK  status: ('A' for Active; 'I' for Inactive)
REMARK    1  A    between atoms: O_2  and  C_19
REMARK    2  A    between atoms: O_2  and  C_20
REMARK    3  A    between atoms: N_4  and  C_13
REMARK    4  A    between atoms: N_5  and  C_14
REMARK    5  A    between atoms: C_13  and  C_15
REMARK                            x       y       z     vdW  Elec       q    Type
REMARK                         _______ _______ _______ _____ _____    ______ ____
ROOT
ATOM      1  O   UNL     1      -6.986   1.948  25.324  0.00  0.00    -0.252 OA
ATOM      3  N   UNL     1      -4.812   1.406  24.617  0.00  0.00    -0.278 N 
ATOM      4  N   UNL     1      -2.400  -0.025  24.410  0.00  0.00    -0.295 NA
ATOM      5  N   UNL     1      -5.252   3.540  25.161  0.00  0.00    -0.287 N 
ATOM      7  C   UNL     1      -3.596   2.122  24.291  0.00  0.00    +0.109 C 
ATOM      8  C   UNL     1      -2.379   1.386  24.849  0.00  0.00    +0.109 C 
ATOM      9  C   UNL     1      -3.828   3.514  24.875  0.00  0.00    +0.132 C 
ATOM     10  C   UNL     1      -4.884  -0.018  24.366  0.00  0.00    +0.125 C 
ATOM     11  C   UNL     1      -3.620  -0.706  24.886  0.00  0.00    +0.104 C 
ATOM     12  C   UNL     1      -5.831   2.259  25.063  0.00  0.00    +0.305 C 
ATOM     14  C   UNL     1      -5.917   4.734  25.634  0.00  0.00    +0.133 C 
ENDROOT
BRANCH   4  13
ATOM     13  C   UNL     1      -1.207  -0.724  24.889  0.00  0.00    +0.121 C 
BRANCH  13  15
ATOM      6  N   UNL     1       1.585   1.650  23.937  0.00  0.00    -0.221 NA
ATOM     15  C   UNL     1       0.049  -0.190  24.252  0.00  0.00    -0.015 A 
ATOM     16  C   UNL     1       0.824  -0.989  23.418  0.00  0.00    +0.011 A 
ATOM     17  C   UNL     1       0.469   1.110  24.477  0.00  0.00    +0.119 A 
ATOM     18  C   UNL     1       1.979  -0.469  22.843  0.00  0.00    +0.067 A 
ATOM     19  C   UNL     1       2.313   0.844  23.132  0.00  0.00    +0.214 A 
BRANCH  19   2
ATOM      2  O   UNL     1       3.446   1.378  22.578  0.00  0.00    -0.480 OA
ATOM     20  C   UNL     1       4.672   0.714  22.864  0.00  0.00    +0.279 C 
ENDBRANCH  19   2
ENDBRANCH  13  15
ENDBRANCH   4  13
TORSDOF 3
ENDMDL
MODEL 3
REMARK VINA RESULT:      -2.4     15.665     16.797
REMARK  Name = 75537116
REMARK  5 active torsions:
REMARK  status: ('A' for Active; 'I' for Inactive)
REMARK    1  A    between atoms: O_2  and  C_19
REMARK    2  A    between atoms: O_2  and  C_20
REMARK    3  A    between atoms: N_4  and  C_13
REMARK    4  A    between atoms: N_5  and  C_14
REMARK    5  A    between atoms: C_13  and  C_15
REMARK                            x       y       z     vdW  Elec       q    Type
REMARK                         _______ _______ _______ _____ _____    ______ ____
ROOT
ATOM      1  O   UNL     1      -2.549   4.232  26.105  0.00  0.00    -0.252 OA
ATOM      3  N   UNL     1      -1.616   2.249  25.260  0.00  0.00    -0.278 N 
ATOM      4  N   UNL     1       0.136   0.569  23.838  0.00  0.00    -0.295 NA
ATOM      5  N   UNL     1      -3.849   2.480  25.207  0.00  0.00    -0.287 N 
ATOM      7  C   UNL     1      -2.102   0.972  24.778  0.00  0.00    +0.109 C 
ATOM      8  C   UNL     1      -1.312   0.533  23.546  0.00  0.00    +0.109 C 
ATOM      9  C   UNL     1      -3.589   1.221  24.530  0.00  0.00    +0.132 C 
ATOM     10  C   UNL     1      -0.193   2.442  25.439  0.00  0.00    +0.125 C 
ATOM     11  C   UNL     1       0.563   1.933  24.210  0.00  0.00    +0.104 C 
ATOM     12  C   UNL     1      -2.658   3.125  25.593  0.00  0.00    +0.305 C 
ATOM     14  C   UNL     1      -5.182   3.033  25.311  0.00  0.00    +0.133 C 
ENDROOT
BRANCH   4  13
ATOM     13  C   UNL     1       0.900   0.092  22.686  0.00  0.00    +0.121 C 
BRANCH  13  15
ATOM      6  N   UNL     1       4.225  -1.305  23.836  0.00  0.00    -0.221 NA
ATOM     15  C   UNL     1       2.371  -0.004  22.989  0.00  0.00    -0.015 A 
ATOM     16  C   UNL     1       3.229   1.059  22.725  0.00  0.00    +0.011 A 
ATOM     17  C   UNL     1       2.915  -1.153  23.541  0.00  0.00    +0.119 A 
ATOM     18  C   UNL     1       4.584   0.941  23.016  0.00  0.00    +0.067 A 
ATOM     19  C   UNL     1       5.028  -0.251  23.566  0.00  0.00    +0.214 A 
BRANCH  19   2
ATOM      2  O   UNL     1       6.358  -0.390  23.861  0.00  0.00    -0.480 OA
ATOM     20  C   UNL     1       7.231  -0.651  22.767  0.00  0.00    +0.279 C 
ENDBRANCH  19   2
ENDBRANCH  13  15
ENDBRANCH   4  13
TORSDOF 3
ENDMDL
MODEL 4
REMARK VINA RESULT:      -2.3     17.563     19.141
REMARK  Name = 75537116
REMARK  5 active torsions:
REMARK  status: ('A' for Active; 'I' for Inactive)
REMARK    1  A    between atoms: O_2  and  C_19
REMARK    2  A    between atoms: O_2  and  C_20
REMARK    3  A    between atoms: N_4  and  C_13
REMARK    4  A    between atoms: N_5  and  C_14
REMARK    5  A    between atoms: C_13  and  C_15
REMARK                            x       y       z     vdW  Elec       q    Type
REMARK                         _______ _______ _______ _____ _____    ______ ____
ROOT
ATOM      1  O   UNL     1      -1.616  -3.376  23.474  0.00  0.00    -0.252 OA
ATOM      3  N   UNL     1      -2.968  -1.847  24.637  0.00  0.00    -0.278 N 
ATOM      4  N   UNL     1      -4.824   0.224  25.060  0.00  0.00    -0.295 NA
ATOM      5  N   UNL     1      -0.849  -2.131  25.325  0.00  0.00    -0.287 N 
ATOM      7  C   UNL     1      -2.867  -1.048  25.841  0.00  0.00    +0.109 C 
ATOM      8  C   UNL     1      -3.457   0.342  25.607  0.00  0.00    +0.109 C 
ATOM      9  C   UNL     1      -1.374  -1.066  26.163  0.00  0.00    +0.132 C 
ATOM     10  C   UNL     1      -4.232  -1.911  23.934  0.00  0.00    +0.125 C 
ATOM     11  C   UNL     1      -4.815  -0.505  23.776  0.00  0.00    +0.104 C 
ATOM     12  C   UNL     1      -1.791  -2.558  24.368  0.00  0.00    +0.305 C 
ATOM     14  C   UNL     1       0.530  -2.557  25.402  0.00  0.00    +0.133 C 
ENDROOT
BRANCH   4  13
ATOM     13  C   UNL     1      -5.420   1.548  24.889  0.00  0.00    +0.121 C 
BRANCH  13  15
ATOM      6  N   UNL     1      -2.606   3.901  23.951  0.00  0.00    -0.221 NA
ATOM     15  C   UNL     1      -4.392   2.644  24.989  0.00  0.00    -0.015 A 
ATOM     16  C   UNL     1      -4.257   3.397  26.150  0.00  0.00    +0.011 A 
ATOM     17  C   UNL     1      -3.549   2.932  23.928  0.00  0.00    +0.119 A 
ATOM     18  C   UNL     1      -3.298   4.402  26.213  0.00  0.00    +0.067 A 
ATOM     19  C   UNL     1      -2.505   4.613  25.096  0.00  0.00    +0.214 A 
BRANCH  19   2
ATOM      2  O   UNL     1      -1.553   5.598  25.134  0.00  0.00    -0.480 OA
ATOM     20  C   UNL     1      -0.243   5.236  24.713  0.00  0.00    +0.279 C 
ENDBRANCH  19   2
ENDBRANCH  13  15
ENDBRANCH   4  13
TORSDOF 3
ENDMDL
MODEL 5
REMARK VINA RESULT:      -2.0      4.308      6.655
REMARK  Name = 75537116
REMARK  5 active torsions:
REMARK  status: ('A' for Active; 'I' for Inactive)
REMARK    1  A    between atoms: O_2  and  C_19
REMARK    2  A    between atoms: O_2  and  C_20
REMARK    3  A    between atoms: N_4  and  C_13
REMARK    4  A    between atoms: N_5  and  C_14
REMARK    5  A    between atoms: C_13  and  C_15
REMARK                            x       y       z     vdW  Elec       q    Type
REMARK                         _______ _______ _______ _____ _____    ______ ____
ROOT
ATOM      1  O   UNL     1      14.616  -3.662  31.855  0.00  0.00    -0.252 OA
ATOM      3  N   UNL     1      15.375  -5.882  31.985  0.00  0.00    -0.278 N 
ATOM      4  N   UNL     1      16.849  -8.193  31.356  0.00  0.00    -0.295 NA
ATOM      5  N   UNL     1      13.167  -5.502  32.137  0.00  0.00    -0.287 N 
ATOM      7  C   UNL     1      14.802  -7.180  32.273  0.00  0.00    +0.109 C 
ATOM      8  C   UNL     1      15.372  -8.235  31.326  0.00  0.00    +0.109 C 
ATOM      9  C   UNL     1      13.298  -6.949  32.146  0.00  0.00    +0.132 C 
ATOM     10  C   UNL     1      16.810  -5.756  31.844  0.00  0.00    +0.125 C 
ATOM     11  C   UNL     1      17.346  -6.867  30.937  0.00  0.00    +0.104 C 
ATOM     12  C   UNL     1      14.412  -4.863  31.981  0.00  0.00    +0.305 C 
ATOM     14  C   UNL     1      11.876  -4.850  32.137  0.00  0.00    +0.133 C 
ENDROOT
BRANCH   4  13
ATOM     13  C   UNL     1      17.405  -9.239  30.499  0.00  0.00    +0.121 C 
BRANCH  13  15
ATOM      6  N   UNL     1      16.392  -8.265  26.983  0.00  0.00    -0.221 NA
ATOM     15  C   UNL     1      16.733  -9.278  29.152  0.00  0.00    -0.015 A 
ATOM     16  C   UNL     1      15.861 -10.308  28.816  0.00  0.00    +0.011 A 
ATOM     17  C   UNL     1      16.963  -8.290  28.209  0.00  0.00    +0.119 A 
ATOM     18  C   UNL     1      15.254 -10.317  27.565  0.00  0.00    +0.067 A 
ATOM     19  C   UNL     1      15.550  -9.282  26.693  0.00  0.00    +0.214 A 
BRANCH  19   2
ATOM      2  O   UNL     1      14.965  -9.270  25.454  0.00  0.00    -0.480 OA
ATOM     20  C   UNL     1      14.220 -10.426  25.088  0.00  0.00    +0.279 C 
ENDBRANCH  19   2
ENDBRANCH  13  15
ENDBRANCH   4  13
TORSDOF 3
ENDMDL
MODEL 6
REMARK VINA RESULT:      -1.9     17.950     20.147
REMARK  Name = 75537116
REMARK  5 active torsions:
REMARK  status: ('A' for Active; 'I' for Inactive)
REMARK    1  A    between atoms: O_2  and  C_19
REMARK    2  A    between atoms: O_2  and  C_20
REMARK    3  A    between atoms: N_4  and  C_13
REMARK    4  A    between atoms: N_5  and  C_14
REMARK    5  A    between atoms: C_13  and  C_15
REMARK                            x       y       z     vdW  Elec       q    Type
REMARK                         _______ _______ _______ _____ _____    ______ ____
ROOT
ATOM      1  O   UNL     1      -3.127   5.447  26.586  0.00  0.00    -0.252 OA
ATOM      3  N   UNL     1      -3.964   3.745  25.201  0.00  0.00    -0.278 N 
ATOM      4  N   UNL     1      -5.264   1.362  24.464  0.00  0.00    -0.295 NA
ATOM      5  N   UNL     1      -1.888   4.506  24.813  0.00  0.00    -0.287 N 
ATOM      7  C   UNL     1      -3.546   3.060  23.995  0.00  0.00    +0.109 C 
ATOM      8  C   UNL     1      -3.847   1.566  24.101  0.00  0.00    +0.109 C 
ATOM      9  C   UNL     1      -2.064   3.410  23.876  0.00  0.00    +0.132 C 
ATOM     10  C   UNL     1      -5.289   3.500  25.731  0.00  0.00    +0.125 C 
ATOM     11  C   UNL     1      -5.571   1.996  25.761  0.00  0.00    +0.104 C 
ATOM     12  C   UNL     1      -3.010   4.668  25.649  0.00  0.00    +0.305 C 
ATOM     14  C   UNL     1      -0.633   5.215  24.935  0.00  0.00    +0.133 C 
ENDROOT
BRANCH   4  13
ATOM     13  C   UNL     1      -5.578  -0.066  24.507  0.00  0.00    +0.121 C 
BRANCH  13  15
ATOM      6  N   UNL     1      -2.160  -1.260  25.615  0.00  0.00    -0.221 NA
ATOM     15  C   UNL     1      -4.336  -0.910  24.621  0.00  0.00    -0.015 A 
ATOM     16  C   UNL     1      -4.194  -2.079  23.880  0.00  0.00    +0.011 A 
ATOM     17  C   UNL     1      -3.300  -0.548  25.466  0.00  0.00    +0.119 A 
ATOM     18  C   UNL     1      -3.035  -2.838  24.006  0.00  0.00    +0.067 A 
ATOM     19  C   UNL     1      -2.057  -2.390  24.879  0.00  0.00    +0.214 A 
BRANCH  19   2
ATOM      2  O   UNL     1      -0.907  -3.121  25.019  0.00  0.00    -0.480 OA
ATOM     20  C   UNL     1       0.257  -2.410  25.423  0.00  0.00    +0.279 C 
ENDBRANCH  19   2
ENDBRANCH  13  15
ENDBRANCH   4  13
TORSDOF 3
ENDMDL
MODEL 7
REMARK VINA RESULT:      -0.3     17.673     19.264
REMARK  Name = 75537116
REMARK  5 active torsions:
REMARK  status: ('A' for Active; 'I' for Inactive)
REMARK    1  A    between atoms: O_2  and  C_19
REMARK    2  A    between atoms: O_2  and  C_20
REMARK    3  A    between atoms: N_4  and  C_13
REMARK    4  A    between atoms: N_5  and  C_14
REMARK    5  A    between atoms: C_13  and  C_15
REMARK                            x       y       z     vdW  Elec       q    Type
REMARK                         _______ _______ _______ _____ _____    ______ ____
ROOT
ATOM      1  O   UNL     1      -0.636  -3.115  25.264  0.00  0.00    -0.252 OA
ATOM      3  N   UNL     1      -0.969  -1.041  24.211  0.00  0.00    -0.278 N 
ATOM      4  N   UNL     1      -0.771   1.724  23.737  0.00  0.00    -0.295 NA
ATOM      5  N   UNL     1      -2.739  -2.399  24.471  0.00  0.00    -0.287 N 
ATOM      7  C   UNL     1      -2.048  -0.368  23.518  0.00  0.00    +0.109 C 
ATOM      8  C   UNL     1      -2.101   1.105  23.919  0.00  0.00    +0.109 C 
ATOM      9  C   UNL     1      -3.285  -1.181  23.896  0.00  0.00    +0.132 C 
ATOM     10  C   UNL     1       0.348  -0.441  24.223  0.00  0.00    +0.125 C 
ATOM     11  C   UNL     1       0.242   1.046  24.569  0.00  0.00    +0.104 C 
ATOM     12  C   UNL     1      -1.356  -2.291  24.715  0.00  0.00    +0.305 C 
ATOM     14  C   UNL     1      -3.583  -3.504  24.868  0.00  0.00    +0.133 C 
ENDROOT
BRANCH   4  13
ATOM     13  C   UNL     1      -0.825   3.149  24.060  0.00  0.00    +0.121 C 
BRANCH  13  15
ATOM      6  N   UNL     1      -4.531   3.878  24.320  0.00  0.00    -0.221 NA
ATOM     15  C   UNL     1      -2.158   3.544  24.639  0.00  0.00    -0.015 A 
ATOM     16  C   UNL     1      -2.276   3.929  25.970  0.00  0.00    +0.011 A 
ATOM     17  C   UNL     1      -3.306   3.536  23.863  0.00  0.00    +0.119 A 
ATOM     18  C   UNL     1      -3.520   4.288  26.477  0.00  0.00    +0.067 A 
ATOM     19  C   UNL     1      -4.607   4.246  25.619  0.00  0.00    +0.214 A 
BRANCH  19   2
ATOM      2  O   UNL     1      -5.843   4.596  26.095  0.00  0.00    -0.480 OA
ATOM     20  C   UNL     1      -6.601   5.502  25.302  0.00  0.00    +0.279 C 
ENDBRANCH  19   2
ENDBRANCH  13  15
ENDBRANCH   4  13
TORSDOF 3
ENDMDL
MODEL 8
REMARK VINA RESULT:      -0.2     17.289     19.309
REMARK  Name = 75537116
REMARK  5 active torsions:
REMARK  status: ('A' for Active; 'I' for Inactive)
REMARK    1  A    between atoms: O_2  and  C_19
REMARK    2  A    between atoms: O_2  and  C_20
REMARK    3  A    between atoms: N_4  and  C_13
REMARK    4  A    between atoms: N_5  and  C_14
REMARK    5  A    between atoms: C_13  and  C_15
REMARK                            x       y       z     vdW  Elec       q    Type
REMARK                         _______ _______ _______ _____ _____    ______ ____
ROOT
ATOM      1  O   UNL     1       2.850  -1.492  23.532  0.00  0.00    -0.252 OA
ATOM      3  N   UNL     1       0.799  -0.487  24.083  0.00  0.00    -0.278 N 
ATOM      4  N   UNL     1      -1.985  -0.139  24.277  0.00  0.00    -0.295 NA
ATOM      5  N   UNL     1       2.419   0.806  23.219  0.00  0.00    -0.287 N 
ATOM      7  C   UNL     1       0.262   0.856  24.142  0.00  0.00    +0.109 C 
ATOM      8  C   UNL     1      -1.164   0.883  23.594  0.00  0.00    +0.109 C 
ATOM      9  C   UNL     1       1.270   1.685  23.347  0.00  0.00    +0.132 C 
ATOM     10  C   UNL     1       0.009  -1.589  24.590  0.00  0.00    +0.125 C 
ATOM     11  C   UNL     1      -1.426  -1.489  24.067  0.00  0.00    +0.104 C 
ATOM     12  C   UNL     1       2.117  -0.514  23.606  0.00  0.00    +0.305 C 
ATOM     14  C   UNL     1       3.657   1.247  22.615  0.00  0.00    +0.133 C 
ENDROOT
BRANCH   4  13
ATOM     13  C   UNL     1      -3.367  -0.080  23.804  0.00  0.00    +0.121 C 
BRANCH  13  15
ATOM      6  N   UNL     1      -4.451   3.444  24.663  0.00  0.00    -0.221 NA
ATOM     15  C   UNL     1      -4.127   1.059  24.429  0.00  0.00    -0.015 A 
ATOM     16  C   UNL     1      -5.169   0.823  25.319  0.00  0.00    +0.011 A 
ATOM     17  C   UNL     1      -3.810   2.376  24.137  0.00  0.00    +0.119 A 
ATOM     18  C   UNL     1      -5.853   1.896  25.881  0.00  0.00    +0.067 A 
ATOM     19  C   UNL     1      -5.459   3.175  25.524  0.00  0.00    +0.214 A 
BRANCH  19   2
ATOM      2  O   UNL     1      -6.118   4.248  26.064  0.00  0.00    -0.480 OA
ATOM     20  C   UNL     1      -6.201   5.418  25.259  0.00  0.00    +0.279 C 
ENDBRANCH  19   2
ENDBRANCH  13  15
ENDBRANCH   4  13
TORSDOF 3
ENDMDL
MODEL 9
REMARK VINA RESULT:       0.1     15.975     18.087
REMARK  Name = 75537116
REMARK  5 active torsions:
REMARK  status: ('A' for Active; 'I' for Inactive)
REMARK    1  A    between atoms: O_2  and  C_19
REMARK    2  A    between atoms: O_2  and  C_20
REMARK    3  A    between atoms: N_4  and  C_13
REMARK    4  A    between atoms: N_5  and  C_14
REMARK    5  A    between atoms: C_13  and  C_15
REMARK                            x       y       z     vdW  Elec       q    Type
REMARK                         _______ _______ _______ _____ _____    ______ ____
ROOT
ATOM      1  O   UNL     1       3.893   2.060  22.756  0.00  0.00    -0.252 OA
ATOM      3  N   UNL     1       2.235   0.431  23.093  0.00  0.00    -0.278 N 
ATOM      4  N   UNL     1      -0.135  -0.745  24.050  0.00  0.00    -0.295 NA
ATOM      5  N   UNL     1       4.386  -0.197  23.231  0.00  0.00    -0.287 N 
ATOM      7  C   UNL     1       2.183  -1.006  23.265  0.00  0.00    +0.109 C 
ATOM      8  C   UNL     1       1.168  -1.376  24.346  0.00  0.00    +0.109 C 
ATOM      9  C   UNL     1       3.628  -1.384  23.586  0.00  0.00    +0.132 C 
ATOM     10  C   UNL     1       0.999   1.171  22.945  0.00  0.00    +0.125 C 
ATOM     11  C   UNL     1      -0.008   0.726  24.007  0.00  0.00    +0.104 C 
ATOM     12  C   UNL     1       3.548   0.910  22.993  0.00  0.00    +0.305 C 
ATOM     14  C   UNL     1       5.831  -0.168  23.281  0.00  0.00    +0.133 C 
ENDROOT
BRANCH   4  13
ATOM     13  C   UNL     1      -1.130  -1.142  25.045  0.00  0.00    +0.121 C 
BRANCH  13  15
ATOM      6  N   UNL     1      -3.344   1.928  25.119  0.00  0.00    -0.221 NA
ATOM     15  C   UNL     1      -2.361  -0.276  24.984  0.00  0.00    -0.015 A 
ATOM     16  C   UNL     1      -3.615  -0.829  24.750  0.00  0.00    +0.011 A 
ATOM     17  C   UNL     1      -2.280   1.095  25.161  0.00  0.00    +0.119 A 
ATOM     18  C   UNL     1      -4.734  -0.005  24.700  0.00  0.00    +0.067 A 
ATOM     19  C   UNL     1      -4.547   1.355  24.889  0.00  0.00    +0.214 A 
BRANCH  19   2
ATOM      2  O   UNL     1      -5.634   2.187  24.844  0.00  0.00    -0.480 OA
ATOM     20  C   UNL     1      -5.504   3.445  25.497  0.00  0.00    +0.279 C 
ENDBRANCH  19   2
ENDBRANCH  13  15
ENDBRANCH   4  13
TORSDOF 3
ENDMDL
MODEL 10
REMARK VINA RESULT:       0.2     17.132     18.328
REMARK  Name = 75537116
REMARK  5 active torsions:
REMARK  status: ('A' for Active; 'I' for Inactive)
REMARK    1  A    between atoms: O_2  and  C_19
REMARK    2  A    between atoms: O_2  and  C_20
REMARK    3  A    between atoms: N_4  and  C_13
REMARK    4  A    between atoms: N_5  and  C_14
REMARK    5  A    between atoms: C_13  and  C_15
REMARK                            x       y       z     vdW  Elec       q    Type
REMARK                         _______ _______ _______ _____ _____    ______ ____
ROOT
ATOM      1  O   UNL     1      -4.185   5.172  24.316  0.00  0.00    -0.252 OA
ATOM      3  N   UNL     1      -2.999   3.172  24.649  0.00  0.00    -0.278 N 
ATOM      4  N   UNL     1      -1.256   1.032  24.106  0.00  0.00    -0.295 NA
ATOM      5  N   UNL     1      -5.165   3.234  25.237  0.00  0.00    -0.287 N 
ATOM      7  C   UNL     1      -3.240   1.892  25.281  0.00  0.00    +0.109 C 
ATOM      8  C   UNL     1      -2.673   0.761  24.425  0.00  0.00    +0.109 C 
ATOM      9  C   UNL     1      -4.757   1.859  25.465  0.00  0.00    +0.132 C 
ATOM     10  C   UNL     1      -1.672   3.482  24.161  0.00  0.00    +0.125 C 
ATOM     11  C   UNL     1      -1.118   2.300  23.362  0.00  0.00    +0.104 C 
ATOM     12  C   UNL     1      -4.123   4.008  24.690  0.00  0.00    +0.305 C 
ATOM     14  C   UNL     1      -6.533   3.668  25.422  0.00  0.00    +0.133 C 
ENDROOT
BRANCH   4  13
ATOM     13  C   UNL     1      -0.686  -0.074  23.338  0.00  0.00    +0.121 C 
BRANCH  13  15
ATOM      6  N   UNL     1       2.850   1.254  23.597  0.00  0.00    -0.221 NA
ATOM     15  C   UNL     1       0.776   0.138  23.049  0.00  0.00    -0.015 A 
ATOM     16  C   UNL     1       1.408  -0.543  22.014  0.00  0.00    +0.011 A 
ATOM     17  C   UNL     1       1.534   1.018  23.803  0.00  0.00    +0.119 A 
ATOM     18  C   UNL     1       2.760  -0.327  21.770  0.00  0.00    +0.067 A 
ATOM     19  C   UNL     1       3.430   0.574  22.582  0.00  0.00    +0.214 A 
BRANCH  19   2
ATOM      2  O   UNL     1       4.762   0.803  22.362  0.00  0.00    -0.480 OA
ATOM     20  C   UNL     1       5.679   0.078  23.173  0.00  0.00    +0.279 C 
ENDBRANCH  19   2
ENDBRANCH  13  15
ENDBRANCH   4  13
TORSDOF 3
ENDMDL
