MODEL 1
REMARK VINA RESULT:       4.8      0.000      0.000
REMARK  Name = 11882569
REMARK  13 active torsions:
REMARK  status: ('A' for Active; 'I' for Inactive)
REMARK    1  A    between atoms: O_1  and  C_12
REMARK    2  A    between atoms: O_2  and  C_15
REMARK    3  A    between atoms: O_3  and  C_17
REMARK    4  A    between atoms: O_7  and  C_31
REMARK    5  A    between atoms: O_7  and  C_36
REMARK    6  A    between atoms: N_8  and  C_13
REMARK    7  A    between atoms: N_9  and  C_19
REMARK    8  A    between atoms: N_10  and  C_24
REMARK    9  A    between atoms: C_12  and  C_18
REMARK   10  A    between atoms: C_19  and  C_21
REMARK   11  A    between atoms: C_19  and  C_22
REMARK   12  A    between atoms: C_21  and  C_23
REMARK   13  A    between atoms: C_34  and  C_35
REMARK                            x       y       z     vdW  Elec       q    Type
REMARK                         _______ _______ _______ _____ _____    ______ ____
ROOT
ATOM     12  C   UNL     1      -3.946  -0.031  24.716  0.00  0.00    +0.146 C 
ATOM     13  C   UNL     1      -1.946  -1.519  24.220  0.00  0.00    +0.109 C 
ATOM     14  C   UNL     1      -2.554  -0.118  24.086  0.00  0.00    +0.069 C 
ATOM     15  C   UNL     1      -2.886  -2.603  23.678  0.00  0.00    +0.163 C 
ATOM     16  C   UNL     1      -4.877  -1.103  24.152  0.00  0.00    +0.078 C 
ATOM     17  C   UNL     1      -4.287  -2.507  24.288  0.00  0.00    +0.148 C 
ENDROOT
BRANCH  13   8
ATOM      5  O   UNL     1       0.481  -0.243  25.048  0.00  0.00    -0.252 OA
ATOM      8  N   UNL     1      -0.670  -1.564  23.540  0.00  0.00    -0.294 N 
ATOM     10  N   UNL     1       1.548  -1.132  23.155  0.00  0.00    -0.269 N 
ATOM     20  C   UNL     1       0.469  -0.910  24.016  0.00  0.00    +0.304 C 
ATOM     37  H   UNL     1      -0.619  -2.030  22.640  0.00  0.00    +0.151 HD
ATOM     42  H   UNL     1       1.367  -1.711  22.339  0.00  0.00    +0.156 HD
BRANCH  10  24
ATOM     24  C   UNL     1       2.871  -0.646  23.279  0.00  0.00    +0.035 A 
ATOM     27  C   UNL     1       3.829  -1.438  23.891  0.00  0.00    +0.023 A 
ATOM     28  C   UNL     1       3.181   0.611  22.786  0.00  0.00    +0.023 A 
ATOM     32  C   UNL     1       5.134  -0.959  24.013  0.00  0.00    +0.005 A 
ATOM     33  C   UNL     1       4.485   1.089  22.908  0.00  0.00    +0.005 A 
ATOM     34  C   UNL     1       5.462   0.304  23.522  0.00  0.00    -0.050 A 
ATOM     35  C   UNL     1       6.856   0.817  23.652  0.00  0.00    +0.044 C 
ENDBRANCH  10  24
ENDBRANCH  13   8
BRANCH  12  18
ATOM      4  O   UNL     1      -5.524   1.713  25.127  0.00  0.00    -0.273 OA
ATOM      9  N   UNL     1      -3.860   2.052  23.535  0.00  0.00    -0.301 N 
ATOM     18  C   UNL     1      -4.538   1.331  24.503  0.00  0.00    +0.246 C 
ATOM     41  H   UNL     1      -3.112   1.612  23.010  0.00  0.00    +0.150 HD
BRANCH   9  19
ATOM     19  C   UNL     1      -4.244   3.384  23.127  0.00  0.00    +0.163 C 
BRANCH  19  22
ATOM      6  O   UNL     1      -4.458   4.304  20.888  0.00  0.00    -0.274 OA
ATOM     11  N   UNL     1      -2.869   2.689  21.265  0.00  0.00    -0.328 N 
ATOM     22  C   UNL     1      -3.903   3.515  21.650  0.00  0.00    +0.231 C 
ATOM     43  H   UNL     1      -2.418   2.043  21.905  0.00  0.00    +0.145 HD
ATOM     44  H   UNL     1      -2.532   2.688  20.307  0.00  0.00    +0.145 HD
ENDBRANCH  19  22
BRANCH  19  21
ATOM     21  C   UNL     1      -3.530   4.471  23.940  0.00  0.00    +0.067 C 
BRANCH  21  23
ATOM     23  C   UNL     1      -2.330   3.935  24.685  0.00  0.00    -0.045 A 
ATOM     25  C   UNL     1      -1.152   3.701  23.994  0.00  0.00    +0.007 A 
ATOM     26  C   UNL     1      -2.431   3.689  26.044  0.00  0.00    +0.007 A 
ATOM     29  C   UNL     1      -0.044   3.205  24.682  0.00  0.00    +0.046 A 
ATOM     30  C   UNL     1      -1.323   3.192  26.732  0.00  0.00    +0.046 A 
ATOM     31  C   UNL     1      -0.130   2.951  26.051  0.00  0.00    +0.120 A 
BRANCH  31   7
ATOM      7  O   UNL     1       0.951   2.469  26.723  0.00  0.00    -0.495 OA
ATOM     36  C   UNL     1       0.907   2.521  28.148  0.00  0.00    +0.277 C 
ENDBRANCH  31   7
ENDBRANCH  21  23
ENDBRANCH  19  21
ENDBRANCH   9  19
ENDBRANCH  12  18
BRANCH  12   1
ATOM      1  O   UNL     1      -3.864  -0.182  26.129  0.00  0.00    -0.379 OA
ATOM     38  H   UNL     1      -4.322  -0.994  26.392  0.00  0.00    +0.211 HD
ENDBRANCH  12   1
BRANCH  15   2
ATOM      2  O   UNL     1      -2.357  -3.889  24.011  0.00  0.00    -0.387 OA
ATOM     39  H   UNL     1      -2.793  -4.541  23.436  0.00  0.00    +0.210 HD
ENDBRANCH  15   2
BRANCH  17   3
ATOM      3  O   UNL     1      -5.138  -3.433  23.612  0.00  0.00    -0.389 OA
ATOM     40  H   UNL     1      -4.676  -4.287  23.562  0.00  0.00    +0.210 HD
ENDBRANCH  17   3
TORSDOF 11
ENDMDL
MODEL 2
REMARK VINA RESULT:       5.5      1.733      2.377
REMARK  Name = 11882569
REMARK  13 active torsions:
REMARK  status: ('A' for Active; 'I' for Inactive)
REMARK    1  A    between atoms: O_1  and  C_12
REMARK    2  A    between atoms: O_2  and  C_15
REMARK    3  A    between atoms: O_3  and  C_17
REMARK    4  A    between atoms: O_7  and  C_31
REMARK    5  A    between atoms: O_7  and  C_36
REMARK    6  A    between atoms: N_8  and  C_13
REMARK    7  A    between atoms: N_9  and  C_19
REMARK    8  A    between atoms: N_10  and  C_24
REMARK    9  A    between atoms: C_12  and  C_18
REMARK   10  A    between atoms: C_19  and  C_21
REMARK   11  A    between atoms: C_19  and  C_22
REMARK   12  A    between atoms: C_21  and  C_23
REMARK   13  A    between atoms: C_34  and  C_35
REMARK                            x       y       z     vdW  Elec       q    Type
REMARK                         _______ _______ _______ _____ _____    ______ ____
ROOT
ATOM     12  C   UNL     1      -4.084  -0.207  25.350  0.00  0.00    +0.146 C 
ATOM     13  C   UNL     1      -1.979  -1.086  24.231  0.00  0.00    +0.109 C 
ATOM     14  C   UNL     1      -2.784   0.156  24.630  0.00  0.00    +0.069 C 
ATOM     15  C   UNL     1      -2.823  -2.077  23.419  0.00  0.00    +0.163 C 
ATOM     16  C   UNL     1      -4.924  -1.178  24.522  0.00  0.00    +0.078 C 
ATOM     17  C   UNL     1      -4.136  -2.426  24.125  0.00  0.00    +0.148 C 
ENDROOT
BRANCH  13   8
ATOM      5  O   UNL     1       0.741  -1.242  25.115  0.00  0.00    -0.252 OA
ATOM      8  N   UNL     1      -0.804  -0.688  23.487  0.00  0.00    -0.294 N 
ATOM     10  N   UNL     1       1.420  -0.340  23.056  0.00  0.00    -0.269 N 
ATOM     20  C   UNL     1       0.493  -0.799  23.995  0.00  0.00    +0.304 C 
ATOM     37  H   UNL     1      -0.933  -0.240  22.585  0.00  0.00    +0.151 HD
ATOM     42  H   UNL     1       1.045  -0.004  22.172  0.00  0.00    +0.156 HD
BRANCH  10  24
ATOM     24  C   UNL     1       2.828  -0.283  23.182  0.00  0.00    +0.035 A 
ATOM     27  C   UNL     1       3.502   0.849  22.755  0.00  0.00    +0.023 A 
ATOM     28  C   UNL     1       3.504  -1.362  23.730  0.00  0.00    +0.023 A 
ATOM     32  C   UNL     1       4.890   0.905  22.879  0.00  0.00    +0.005 A 
ATOM     33  C   UNL     1       4.892  -1.306  23.853  0.00  0.00    +0.005 A 
ATOM     34  C   UNL     1       5.585  -0.172  23.428  0.00  0.00    -0.050 A 
ATOM     35  C   UNL     1       7.069  -0.113  23.561  0.00  0.00    +0.044 C 
ENDBRANCH  10  24
ENDBRANCH  13   8
BRANCH  12  18
ATOM      4  O   UNL     1      -6.100   1.060  25.541  0.00  0.00    -0.273 OA
ATOM      9  N   UNL     1      -4.074   2.081  26.062  0.00  0.00    -0.301 N 
ATOM     18  C   UNL     1      -4.878   1.028  25.661  0.00  0.00    +0.246 C 
ATOM     41  H   UNL     1      -3.065   1.981  26.041  0.00  0.00    +0.150 HD
BRANCH   9  19
ATOM     19  C   UNL     1      -4.591   3.388  26.397  0.00  0.00    +0.163 C 
BRANCH  19  22
ATOM      6  O   UNL     1      -4.923   3.686  24.008  0.00  0.00    -0.274 OA
ATOM     11  N   UNL     1      -6.415   4.663  25.455  0.00  0.00    -0.328 N 
ATOM     22  C   UNL     1      -5.291   3.923  25.156  0.00  0.00    +0.231 C 
ATOM     43  H   UNL     1      -6.710   4.849  26.408  0.00  0.00    +0.145 HD
ATOM     44  H   UNL     1      -6.985   5.066  24.717  0.00  0.00    +0.145 HD
ENDBRANCH  19  22
BRANCH  19  21
ATOM     21  C   UNL     1      -3.488   4.353  26.847  0.00  0.00    +0.067 C 
BRANCH  21  23
ATOM     23  C   UNL     1      -2.320   4.377  25.889  0.00  0.00    -0.045 A 
ATOM     25  C   UNL     1      -1.604   3.212  25.663  0.00  0.00    +0.007 A 
ATOM     26  C   UNL     1      -1.987   5.562  25.256  0.00  0.00    +0.007 A 
ATOM     29  C   UNL     1      -0.525   3.234  24.779  0.00  0.00    +0.046 A 
ATOM     30  C   UNL     1      -0.908   5.585  24.372  0.00  0.00    +0.046 A 
ATOM     31  C   UNL     1      -0.177   4.421  24.134  0.00  0.00    +0.120 A 
BRANCH  31   7
ATOM      7  O   UNL     1       0.875   4.443  23.271  0.00  0.00    -0.495 OA
ATOM     36  C   UNL     1       0.829   5.399  22.213  0.00  0.00    +0.277 C 
ENDBRANCH  31   7
ENDBRANCH  21  23
ENDBRANCH  19  21
ENDBRANCH   9  19
ENDBRANCH  12  18
BRANCH  12   1
ATOM      1  O   UNL     1      -3.806  -0.795  26.616  0.00  0.00    -0.379 OA
ATOM     38  H   UNL     1      -4.027  -0.166  27.319  0.00  0.00    +0.211 HD
ENDBRANCH  12   1
BRANCH  15   2
ATOM      2  O   UNL     1      -2.086  -3.291  23.252  0.00  0.00    -0.387 OA
ATOM     39  H   UNL     1      -2.731  -4.012  23.152  0.00  0.00    +0.210 HD
ENDBRANCH  15   2
BRANCH  17   3
ATOM      3  O   UNL     1      -4.931  -3.211  23.236  0.00  0.00    -0.389 OA
ATOM     40  H   UNL     1      -4.497  -3.215  22.367  0.00  0.00    +0.210 HD
ENDBRANCH  17   3
TORSDOF 11
ENDMDL
MODEL 3
REMARK VINA RESULT:       7.2      2.158      4.912
REMARK  Name = 11882569
REMARK  13 active torsions:
REMARK  status: ('A' for Active; 'I' for Inactive)
REMARK    1  A    between atoms: O_1  and  C_12
REMARK    2  A    between atoms: O_2  and  C_15
REMARK    3  A    between atoms: O_3  and  C_17
REMARK    4  A    between atoms: O_7  and  C_31
REMARK    5  A    between atoms: O_7  and  C_36
REMARK    6  A    between atoms: N_8  and  C_13
REMARK    7  A    between atoms: N_9  and  C_19
REMARK    8  A    between atoms: N_10  and  C_24
REMARK    9  A    between atoms: C_12  and  C_18
REMARK   10  A    between atoms: C_19  and  C_21
REMARK   11  A    between atoms: C_19  and  C_22
REMARK   12  A    between atoms: C_21  and  C_23
REMARK   13  A    between atoms: C_34  and  C_35
REMARK                            x       y       z     vdW  Elec       q    Type
REMARK                         _______ _______ _______ _____ _____    ______ ____
ROOT
ATOM     12  C   UNL     1      -3.311   3.326  24.302  0.00  0.00    +0.146 C 
ATOM     13  C   UNL     1      -1.142   3.028  23.013  0.00  0.00    +0.109 C 
ATOM     14  C   UNL     1      -2.284   2.330  23.760  0.00  0.00    +0.069 C 
ATOM     15  C   UNL     1      -0.483   4.118  23.868  0.00  0.00    +0.163 C 
ATOM     16  C   UNL     1      -2.645   4.394  25.168  0.00  0.00    +0.078 C 
ATOM     17  C   UNL     1      -1.509   5.104  24.431  0.00  0.00    +0.148 C 
ENDROOT
BRANCH  13   8
ATOM      5  O   UNL     1       1.299   2.363  24.355  0.00  0.00    -0.252 OA
ATOM      8  N   UNL     1      -0.163   2.048  22.593  0.00  0.00    -0.294 N 
ATOM     10  N   UNL     1       1.755   0.796  22.667  0.00  0.00    -0.269 N 
ATOM     20  C   UNL     1       1.006   1.785  23.311  0.00  0.00    +0.304 C 
ATOM     37  H   UNL     1      -0.296   1.586  21.699  0.00  0.00    +0.151 HD
ATOM     42  H   UNL     1       1.367   0.420  21.806  0.00  0.00    +0.156 HD
BRANCH  10  24
ATOM     24  C   UNL     1       2.996   0.249  23.068  0.00  0.00    +0.035 A 
ATOM     27  C   UNL     1       4.127   1.049  23.048  0.00  0.00    +0.023 A 
ATOM     28  C   UNL     1       3.056  -1.075  23.471  0.00  0.00    +0.023 A 
ATOM     32  C   UNL     1       5.352   0.510  23.442  0.00  0.00    +0.005 A 
ATOM     33  C   UNL     1       4.281  -1.614  23.865  0.00  0.00    +0.005 A 
ATOM     34  C   UNL     1       5.429  -0.821  23.851  0.00  0.00    -0.050 A 
ATOM     35  C   UNL     1       6.738  -1.399  24.272  0.00  0.00    +0.044 C 
ENDBRANCH  10  24
ENDBRANCH  13   8
BRANCH  12  18
ATOM      4  O   UNL     1      -4.857   3.095  26.108  0.00  0.00    -0.273 OA
ATOM      9  N   UNL     1      -4.701   1.388  24.534  0.00  0.00    -0.301 N 
ATOM     18  C   UNL     1      -4.374   2.615  25.086  0.00  0.00    +0.246 C 
ATOM     41  H   UNL     1      -4.178   1.039  23.738  0.00  0.00    +0.150 HD
BRANCH   9  19
ATOM     19  C   UNL     1      -5.680   0.496  25.111  0.00  0.00    +0.163 C 
BRANCH  19  22
ATOM      6  O   UNL     1      -6.942   1.360  27.000  0.00  0.00    -0.274 OA
ATOM     11  N   UNL     1      -7.387   2.196  24.907  0.00  0.00    -0.328 N 
ATOM     22  C   UNL     1      -6.730   1.364  25.789  0.00  0.00    +0.231 C 
ATOM     43  H   UNL     1      -7.200   2.191  23.910  0.00  0.00    +0.145 HD
ATOM     44  H   UNL     1      -8.103   2.839  25.232  0.00  0.00    +0.145 HD
ENDBRANCH  19  22
BRANCH  19  21
ATOM     21  C   UNL     1      -5.059  -0.478  26.119  0.00  0.00    +0.067 C 
BRANCH  21  23
ATOM     23  C   UNL     1      -3.678  -0.930  25.704  0.00  0.00    -0.045 A 
ATOM     25  C   UNL     1      -3.547  -2.011  24.846  0.00  0.00    +0.007 A 
ATOM     26  C   UNL     1      -2.570  -0.256  26.189  0.00  0.00    +0.007 A 
ATOM     29  C   UNL     1      -2.272  -2.429  24.465  0.00  0.00    +0.046 A 
ATOM     30  C   UNL     1      -1.295  -0.674  25.807  0.00  0.00    +0.046 A 
ATOM     31  C   UNL     1      -1.146  -1.760  24.945  0.00  0.00    +0.120 A 
BRANCH  31   7
ATOM      7  O   UNL     1       0.097  -2.167  24.572  0.00  0.00    -0.495 OA
ATOM     36  C   UNL     1       0.836  -2.945  25.512  0.00  0.00    +0.277 C 
ENDBRANCH  31   7
ENDBRANCH  21  23
ENDBRANCH  19  21
ENDBRANCH   9  19
ENDBRANCH  12  18
BRANCH  12   1
ATOM      1  O   UNL     1      -4.004   3.960  23.232  0.00  0.00    -0.379 OA
ATOM     38  H   UNL     1      -4.020   4.918  23.383  0.00  0.00    +0.211 HD
ENDBRANCH  12   1
BRANCH  15   2
ATOM      2  O   UNL     1       0.430   4.860  23.055  0.00  0.00    -0.387 OA
ATOM     39  H   UNL     1       0.475   4.420  22.189  0.00  0.00    +0.210 HD
ENDBRANCH  15   2
BRANCH  17   3
ATOM      3  O   UNL     1      -0.841   5.977  25.344  0.00  0.00    -0.389 OA
ATOM     40  H   UNL     1      -0.767   5.520  26.199  0.00  0.00    +0.210 HD
ENDBRANCH  17   3
TORSDOF 11
ENDMDL
