MODEL 1
REMARK VINA RESULT:      -3.0      0.000      0.000
REMARK  Name = 40779421
REMARK  8 active torsions:
REMARK  status: ('A' for Active; 'I' for Inactive)
REMARK    1  A    between atoms: O_2  and  C_25
REMARK    2  A    between atoms: O_2  and  C_26
REMARK    3  A    between atoms: N_4  and  C_23
REMARK    4  A    between atoms: N_5  and  C_15
REMARK    5  A    between atoms: C_8  and  C_14
REMARK    6  A    between atoms: C_9  and  C_15
REMARK    7  A    between atoms: C_17  and  C_18
REMARK    8  A    between atoms: C_24  and  C_25
REMARK                            x       y       z     vdW  Elec       q    Type
REMARK                         _______ _______ _______ _____ _____    ______ ____
ROOT
ATOM      3  N   UNL     1      -1.164   4.569  25.714  0.00  0.00    -0.297 NA
ATOM      7  C   UNL     1      -2.738   3.947  23.735  0.00  0.00    +0.002 C 
ATOM      8  C   UNL     1      -3.347   3.472  25.083  0.00  0.00    +0.055 C 
ATOM      9  C   UNL     1      -0.390   3.885  24.644  0.00  0.00    +0.074 C 
ATOM     10  C   UNL     1      -1.336   3.326  23.560  0.00  0.00    +0.024 C 
ATOM     11  C   UNL     1      -2.268   3.693  26.181  0.00  0.00    +0.094 C 
ATOM     12  C   UNL     1      -2.547   5.475  23.846  0.00  0.00    +0.019 C 
ATOM     13  C   UNL     1      -1.760   5.794  25.131  0.00  0.00    +0.085 C 
ENDROOT
BRANCH   8  14
ATOM      4  N   UNL     1      -5.263   1.850  25.458  0.00  0.00    -0.271 N 
ATOM      6  N   UNL     1      -5.604   0.551  25.459  0.00  0.00    -0.176 NA
ATOM     14  C   UNL     1      -3.955   2.078  25.145  0.00  0.00    +0.044 A 
ATOM     16  C   UNL     1      -3.401   0.840  24.926  0.00  0.00    +0.048 A 
ATOM     18  C   UNL     1      -4.462  -0.062  25.133  0.00  0.00    +0.066 A 
ATOM     23  C   UNL     1      -6.265   2.842  25.775  0.00  0.00    +0.172 C 
BRANCH  18  17
ATOM     17  C   UNL     1      -4.423  -1.570  25.023  0.00  0.00    +0.040 C 
ATOM     19  C   UNL     1      -4.373  -2.054  23.563  0.00  0.00    +0.010 C 
ATOM     20  C   UNL     1      -3.218  -2.230  25.724  0.00  0.00    +0.010 C 
ATOM     21  C   UNL     1      -3.492  -3.294  23.597  0.00  0.00    +0.001 C 
ATOM     22  C   UNL     1      -2.432  -2.933  24.622  0.00  0.00    +0.001 C 
ENDBRANCH  18  17
ENDBRANCH   8  14
BRANCH   9  15
ATOM     15  C   UNL     1       0.542   2.805  25.199  0.00  0.00    +0.123 C 
BRANCH  15   5
ATOM      1  O   UNL     1      -0.490   0.104  25.171  0.00  0.00    -0.272 OA
ATOM      5  N   UNL     1       0.794   1.795  24.219  0.00  0.00    -0.311 N 
ATOM     24  C   UNL     1       0.253   0.512  24.283  0.00  0.00    +0.251 C 
ATOM     32  H   UNL     1       1.402   2.031  23.439  0.00  0.00    +0.149 HD
BRANCH  24  25
ATOM     25  C   UNL     1       0.684  -0.350  23.115  0.00  0.00    +0.324 C 
BRANCH  25   2
ATOM      2  O   UNL     1       1.767   0.243  22.431  0.00  0.00    -0.483 OA
BRANCH   2  26
ATOM     26  C   UNL     1       3.027   0.006  22.924  0.00  0.00    +0.121 A 
ATOM     27  C   UNL     1       3.352  -1.253  23.432  0.00  0.00    +0.045 A 
ATOM     28  C   UNL     1       3.983   1.021  22.916  0.00  0.00    +0.045 A 
ATOM     29  C   UNL     1       4.631  -1.495  23.933  0.00  0.00    +0.004 A 
ATOM     30  C   UNL     1       5.263   0.779  23.416  0.00  0.00    +0.004 A 
ATOM     31  C   UNL     1       5.586  -0.479  23.924  0.00  0.00    +0.000 A 
ENDBRANCH   2  26
ENDBRANCH  25   2
ENDBRANCH  24  25
ENDBRANCH  15   5
ENDBRANCH   9  15
TORSDOF 7
ENDMDL
MODEL 2
REMARK VINA RESULT:      -2.8      2.184      6.901
REMARK  Name = 40779421
REMARK  8 active torsions:
REMARK  status: ('A' for Active; 'I' for Inactive)
REMARK    1  A    between atoms: O_2  and  C_25
REMARK    2  A    between atoms: O_2  and  C_26
REMARK    3  A    between atoms: N_4  and  C_23
REMARK    4  A    between atoms: N_5  and  C_15
REMARK    5  A    between atoms: C_8  and  C_14
REMARK    6  A    between atoms: C_9  and  C_15
REMARK    7  A    between atoms: C_17  and  C_18
REMARK    8  A    between atoms: C_24  and  C_25
REMARK                            x       y       z     vdW  Elec       q    Type
REMARK                         _______ _______ _______ _____ _____    ______ ____
ROOT
ATOM      3  N   UNL     1      -3.626  -0.224  25.584  0.00  0.00    -0.297 NA
ATOM      7  C   UNL     1      -2.266  -2.170  24.515  0.00  0.00    +0.002 C 
ATOM      8  C   UNL     1      -1.309  -1.109  25.124  0.00  0.00    +0.055 C 
ATOM      9  C   UNL     1      -4.115  -0.487  24.205  0.00  0.00    +0.074 C 
ATOM     10  C   UNL     1      -3.191  -1.491  23.482  0.00  0.00    +0.024 C 
ATOM     11  C   UNL     1      -2.179   0.106  25.556  0.00  0.00    +0.094 C 
ATOM     12  C   UNL     1      -3.163  -2.673  25.665  0.00  0.00    +0.019 C 
ATOM     13  C   UNL     1      -3.803  -1.465  26.374  0.00  0.00    +0.085 C 
ENDROOT
BRANCH   8  14
ATOM      4  N   UNL     1      -0.100   0.380  23.461  0.00  0.00    -0.271 N 
ATOM      6  N   UNL     1       1.072   0.586  22.837  0.00  0.00    -0.176 NA
ATOM     14  C   UNL     1      -0.093  -0.687  24.310  0.00  0.00    +0.044 A 
ATOM     16  C   UNL     1       1.172  -1.217  24.237  0.00  0.00    +0.048 A 
ATOM     18  C   UNL     1       1.845  -0.392  23.315  0.00  0.00    +0.066 A 
ATOM     23  C   UNL     1      -1.209   1.264  23.187  0.00  0.00    +0.172 C 
BRANCH  18  17
ATOM     17  C   UNL     1       3.280  -0.511  22.850  0.00  0.00    +0.040 C 
ATOM     19  C   UNL     1       4.022   0.837  22.874  0.00  0.00    +0.010 C 
ATOM     20  C   UNL     1       4.144  -1.479  23.685  0.00  0.00    +0.010 C 
ATOM     21  C   UNL     1       5.447   0.487  23.275  0.00  0.00    +0.001 C 
ATOM     22  C   UNL     1       5.254  -0.626  24.289  0.00  0.00    +0.001 C 
ENDBRANCH  18  17
ENDBRANCH   8  14
BRANCH   9  15
ATOM     15  C   UNL     1      -4.302   0.799  23.397  0.00  0.00    +0.123 C 
BRANCH  15   5
ATOM      1  O   UNL     1      -6.512   1.895  24.905  0.00  0.00    -0.272 OA
ATOM      5  N   UNL     1      -4.279   1.946  24.251  0.00  0.00    -0.311 N 
ATOM     24  C   UNL     1      -5.397   2.408  24.944  0.00  0.00    +0.251 C 
ATOM     32  H   UNL     1      -3.400   2.446  24.351  0.00  0.00    +0.149 HD
BRANCH  24  25
ATOM     25  C   UNL     1      -5.088   3.637  25.773  0.00  0.00    +0.324 C 
BRANCH  25   2
ATOM      2  O   UNL     1      -3.918   3.441  26.539  0.00  0.00    -0.483 OA
BRANCH   2  26
ATOM     26  C   UNL     1      -2.733   3.876  25.997  0.00  0.00    +0.121 A 
ATOM     27  C   UNL     1      -1.580   3.100  26.126  0.00  0.00    +0.045 A 
ATOM     28  C   UNL     1      -2.681   5.092  25.317  0.00  0.00    +0.045 A 
ATOM     29  C   UNL     1      -0.377   3.541  25.576  0.00  0.00    +0.004 A 
ATOM     30  C   UNL     1      -1.477   5.533  24.766  0.00  0.00    +0.004 A 
ATOM     31  C   UNL     1      -0.325   4.757  24.896  0.00  0.00    +0.000 A 
ENDBRANCH   2  26
ENDBRANCH  25   2
ENDBRANCH  24  25
ENDBRANCH  15   5
ENDBRANCH   9  15
TORSDOF 7
ENDMDL
MODEL 3
REMARK VINA RESULT:      -1.4      1.434      4.912
REMARK  Name = 40779421
REMARK  8 active torsions:
REMARK  status: ('A' for Active; 'I' for Inactive)
REMARK    1  A    between atoms: O_2  and  C_25
REMARK    2  A    between atoms: O_2  and  C_26
REMARK    3  A    between atoms: N_4  and  C_23
REMARK    4  A    between atoms: N_5  and  C_15
REMARK    5  A    between atoms: C_8  and  C_14
REMARK    6  A    between atoms: C_9  and  C_15
REMARK    7  A    between atoms: C_17  and  C_18
REMARK    8  A    between atoms: C_24  and  C_25
REMARK                            x       y       z     vdW  Elec       q    Type
REMARK                         _______ _______ _______ _____ _____    ______ ____
ROOT
ATOM      3  N   UNL     1      -2.161  -2.189  23.805  0.00  0.00    -0.297 NA
ATOM      7  C   UNL     1      -4.080  -1.409  25.382  0.00  0.00    +0.002 C 
ATOM      8  C   UNL     1      -3.820  -0.348  24.277  0.00  0.00    +0.055 C 
ATOM      9  C   UNL     1      -1.735  -2.313  25.224  0.00  0.00    +0.074 C 
ATOM     10  C   UNL     1      -2.774  -1.664  26.163  0.00  0.00    +0.024 C 
ATOM     11  C   UNL     1      -2.540  -0.785  23.509  0.00  0.00    +0.094 C 
ATOM     12  C   UNL     1      -4.442  -2.724  24.660  0.00  0.00    +0.019 C 
ATOM     13  C   UNL     1      -3.358  -3.042  23.614  0.00  0.00    +0.085 C 
ENDROOT
BRANCH   8  14
ATOM      4  N   UNL     1      -4.894   1.847  24.961  0.00  0.00    -0.271 N 
ATOM      6  N   UNL     1      -4.642   3.122  25.303  0.00  0.00    -0.176 NA
ATOM     14  C   UNL     1      -3.775   1.118  24.685  0.00  0.00    +0.044 A 
ATOM     16  C   UNL     1      -2.716   1.976  24.856  0.00  0.00    +0.048 A 
ATOM     18  C   UNL     1      -3.310   3.195  25.236  0.00  0.00    +0.066 A 
ATOM     23  C   UNL     1      -6.263   1.387  24.920  0.00  0.00    +0.172 C 
BRANCH  18  17
ATOM     17  C   UNL     1      -2.612   4.498  25.558  0.00  0.00    +0.040 C 
ATOM     19  C   UNL     1      -1.079   4.382  25.475  0.00  0.00    +0.010 C 
ATOM     20  C   UNL     1      -2.993   5.672  24.632  0.00  0.00    +0.010 C 
ATOM     21  C   UNL     1      -0.618   5.727  24.933  0.00  0.00    +0.001 C 
ATOM     22  C   UNL     1      -1.702   6.082  23.931  0.00  0.00    +0.001 C 
ENDBRANCH  18  17
ENDBRANCH   8  14
BRANCH   9  15
ATOM     15  C   UNL     1      -0.328  -1.758  25.460  0.00  0.00    +0.123 C 
BRANCH  15   5
ATOM      1  O   UNL     1       0.127   1.076  25.112  0.00  0.00    -0.272 OA
ATOM      5  N   UNL     1       0.164  -1.101  24.290  0.00  0.00    -0.311 N 
ATOM     24  C   UNL     1       0.355   0.278  24.208  0.00  0.00    +0.251 C 
ATOM     32  H   UNL     1       0.382  -1.674  23.479  0.00  0.00    +0.149 HD
BRANCH  24  25
ATOM     25  C   UNL     1       0.887   0.702  22.854  0.00  0.00    +0.324 C 
BRANCH  25   2
ATOM      2  O   UNL     1       1.802  -0.251  22.358  0.00  0.00    -0.483 OA
BRANCH   2  26
ATOM     26  C   UNL     1       3.075  -0.227  22.875  0.00  0.00    +0.121 A 
ATOM     27  C   UNL     1       3.602  -1.368  23.483  0.00  0.00    +0.045 A 
ATOM     28  C   UNL     1       3.841   0.935  22.792  0.00  0.00    +0.045 A 
ATOM     29  C   UNL     1       4.894  -1.344  24.008  0.00  0.00    +0.004 A 
ATOM     30  C   UNL     1       5.134   0.958  23.317  0.00  0.00    +0.004 A 
ATOM     31  C   UNL     1       5.660  -0.182  23.925  0.00  0.00    +0.000 A 
ENDBRANCH   2  26
ENDBRANCH  25   2
ENDBRANCH  24  25
ENDBRANCH  15   5
ENDBRANCH   9  15
TORSDOF 7
ENDMDL
MODEL 4
REMARK VINA RESULT:      -0.8     14.575     16.794
REMARK  Name = 40779421
REMARK  8 active torsions:
REMARK  status: ('A' for Active; 'I' for Inactive)
REMARK    1  A    between atoms: O_2  and  C_25
REMARK    2  A    between atoms: O_2  and  C_26
REMARK    3  A    between atoms: N_4  and  C_23
REMARK    4  A    between atoms: N_5  and  C_15
REMARK    5  A    between atoms: C_8  and  C_14
REMARK    6  A    between atoms: C_9  and  C_15
REMARK    7  A    between atoms: C_17  and  C_18
REMARK    8  A    between atoms: C_24  and  C_25
REMARK                            x       y       z     vdW  Elec       q    Type
REMARK                         _______ _______ _______ _____ _____    ______ ____
ROOT
ATOM      3  N   UNL     1      -5.283  -8.649  10.590  0.00  0.00    -0.297 NA
ATOM      7  C   UNL     1      -7.565  -9.695   9.899  0.00  0.00    +0.002 C 
ATOM      8  C   UNL     1      -7.736  -8.804  11.161  0.00  0.00    +0.055 C 
ATOM      9  C   UNL     1      -5.129 -10.113  10.387  0.00  0.00    +0.074 C 
ATOM     10  C   UNL     1      -6.506 -10.781  10.181  0.00  0.00    +0.024 C 
ATOM     11  C   UNL     1      -6.312  -8.385  11.627  0.00  0.00    +0.094 C 
ATOM     12  C   UNL     1      -7.000  -8.787   8.786  0.00  0.00    +0.019 C 
ATOM     13  C   UNL     1      -5.750  -8.059   9.313  0.00  0.00    +0.085 C 
ENDROOT
BRANCH   8  14
ATOM      4  N   UNL     1      -9.899  -9.672  12.165  0.00  0.00    -0.271 N 
ATOM      6  N   UNL     1     -10.470 -10.122  13.295  0.00  0.00    -0.176 NA
ATOM     14  C   UNL     1      -8.584  -9.336  12.307  0.00  0.00    +0.044 A 
ATOM     16  C   UNL     1      -8.274  -9.583  13.622  0.00  0.00    +0.048 A 
ATOM     18  C   UNL     1      -9.472 -10.065  14.182  0.00  0.00    +0.066 A 
ATOM     23  C   UNL     1     -10.691  -9.589  10.960  0.00  0.00    +0.172 C 
BRANCH  18  17
ATOM     17  C   UNL     1      -9.711 -10.499  15.611  0.00  0.00    +0.040 C 
ATOM     19  C   UNL     1      -8.401 -10.745  16.380  0.00  0.00    +0.010 C 
ATOM     20  C   UNL     1     -10.511  -9.489  16.460  0.00  0.00    +0.010 C 
ATOM     21  C   UNL     1      -8.694 -10.284  17.800  0.00  0.00    +0.001 C 
ATOM     22  C   UNL     1      -9.578  -9.068  17.590  0.00  0.00    +0.001 C 
ENDBRANCH  18  17
ENDBRANCH   8  14
BRANCH   9  15
ATOM     15  C   UNL     1      -4.336 -10.778  11.514  0.00  0.00    +0.123 C 
BRANCH  15   5
ATOM      1  O   UNL     1      -2.345 -10.337  13.563  0.00  0.00    -0.272 OA
ATOM      5  N   UNL     1      -2.930 -10.594  11.326  0.00  0.00    -0.311 N 
ATOM     24  C   UNL     1      -2.037 -10.386  12.376  0.00  0.00    +0.251 C 
ATOM     32  H   UNL     1      -2.571 -10.615  10.375  0.00  0.00    +0.149 HD
BRANCH  24  25
ATOM     25  C   UNL     1      -0.612 -10.223  11.890  0.00  0.00    +0.324 C 
BRANCH  25   2
ATOM      2  O   UNL     1      -0.478  -9.046  11.123  0.00  0.00    -0.483 OA
BRANCH   2  26
ATOM     26  C   UNL     1       0.487  -8.148  11.513  0.00  0.00    +0.121 A 
ATOM     27  C   UNL     1       1.801  -8.301  11.071  0.00  0.00    +0.045 A 
ATOM     28  C   UNL     1       0.152  -7.083  12.349  0.00  0.00    +0.045 A 
ATOM     29  C   UNL     1       2.781  -7.390  11.467  0.00  0.00    +0.004 A 
ATOM     30  C   UNL     1       1.132  -6.171  12.744  0.00  0.00    +0.004 A 
ATOM     31  C   UNL     1       2.446  -6.325  12.302  0.00  0.00    +0.000 A 
ENDBRANCH   2  26
ENDBRANCH  25   2
ENDBRANCH  24  25
ENDBRANCH  15   5
ENDBRANCH   9  15
TORSDOF 7
ENDMDL
MODEL 5
REMARK VINA RESULT:       0.3      1.994      5.880
REMARK  Name = 40779421
REMARK  8 active torsions:
REMARK  status: ('A' for Active; 'I' for Inactive)
REMARK    1  A    between atoms: O_2  and  C_25
REMARK    2  A    between atoms: O_2  and  C_26
REMARK    3  A    between atoms: N_4  and  C_23
REMARK    4  A    between atoms: N_5  and  C_15
REMARK    5  A    between atoms: C_8  and  C_14
REMARK    6  A    between atoms: C_9  and  C_15
REMARK    7  A    between atoms: C_17  and  C_18
REMARK    8  A    between atoms: C_24  and  C_25
REMARK                            x       y       z     vdW  Elec       q    Type
REMARK                         _______ _______ _______ _____ _____    ______ ____
ROOT
ATOM      3  N   UNL     1      -2.265   4.283  24.316  0.00  0.00    -0.297 NA
ATOM      7  C   UNL     1      -1.026   2.624  25.894  0.00  0.00    +0.002 C 
ATOM      8  C   UNL     1      -0.119   3.011  24.693  0.00  0.00    +0.055 C 
ATOM      9  C   UNL     1      -3.134   3.111  24.604  0.00  0.00    +0.074 C 
ATOM     10  C   UNL     1      -2.345   2.023  25.364  0.00  0.00    +0.024 C 
ATOM     11  C   UNL     1      -0.991   3.832  23.701  0.00  0.00    +0.094 C 
ATOM     12  C   UNL     1      -1.384   3.936  26.623  0.00  0.00    +0.019 C 
ATOM     13  C   UNL     1      -1.949   4.942  25.605  0.00  0.00    +0.085 C 
ENDROOT
BRANCH   8  14
ATOM      4  N   UNL     1       0.065   0.921  23.265  0.00  0.00    -0.271 N 
ATOM      6  N   UNL     1       0.929   0.041  22.731  0.00  0.00    -0.176 NA
ATOM     14  C   UNL     1       0.662   1.906  23.997  0.00  0.00    +0.044 A 
ATOM     16  C   UNL     1       2.010   1.652  23.938  0.00  0.00    +0.048 A 
ATOM     18  C   UNL     1       2.116   0.492  23.146  0.00  0.00    +0.066 A 
ATOM     23  C   UNL     1      -1.350   0.752  23.028  0.00  0.00    +0.172 C 
BRANCH  18  17
ATOM     17  C   UNL     1       3.378  -0.239  22.748  0.00  0.00    +0.040 C 
ATOM     19  C   UNL     1       4.590   0.702  22.621  0.00  0.00    +0.010 C 
ATOM     20  C   UNL     1       3.811  -1.347  23.730  0.00  0.00    +0.010 C 
ATOM     21  C   UNL     1       5.772  -0.121  23.110  0.00  0.00    +0.001 C 
ATOM     22  C   UNL     1       5.180  -0.925  24.253  0.00  0.00    +0.001 C 
ENDBRANCH  18  17
ENDBRANCH   8  14
BRANCH   9  15
ATOM     15  C   UNL     1      -3.800   2.556  23.343  0.00  0.00    +0.123 C 
BRANCH  15   5
ATOM      1  O   UNL     1      -5.660   1.111  25.021  0.00  0.00    -0.272 OA
ATOM      5  N   UNL     1      -3.959   1.137  23.433  0.00  0.00    -0.311 N 
ATOM     24  C   UNL     1      -4.886   0.521  24.272  0.00  0.00    +0.251 C 
ATOM     32  H   UNL     1      -3.361   0.554  22.853  0.00  0.00    +0.149 HD
BRANCH  24  25
ATOM     25  C   UNL     1      -4.840  -0.989  24.165  0.00  0.00    +0.324 C 
BRANCH  25   2
ATOM      2  O   UNL     1      -4.234  -1.552  25.309  0.00  0.00    -0.483 OA
BRANCH   2  26
ATOM     26  C   UNL     1      -2.867  -1.694  25.290  0.00  0.00    +0.121 A 
ATOM     27  C   UNL     1      -2.269  -2.556  24.370  0.00  0.00    +0.045 A 
ATOM     28  C   UNL     1      -2.078  -0.977  26.188  0.00  0.00    +0.045 A 
ATOM     29  C   UNL     1      -0.882  -2.701  24.351  0.00  0.00    +0.004 A 
ATOM     30  C   UNL     1      -0.691  -1.121  26.168  0.00  0.00    +0.004 A 
ATOM     31  C   UNL     1      -0.093  -1.984  25.249  0.00  0.00    +0.000 A 
ENDBRANCH   2  26
ENDBRANCH  25   2
ENDBRANCH  24  25
ENDBRANCH  15   5
ENDBRANCH   9  15
TORSDOF 7
ENDMDL
