MODEL 1
REMARK VINA RESULT:      -2.1      0.000      0.000
REMARK  Name = 44716137
REMARK  10 active torsions:
REMARK  status: ('A' for Active; 'I' for Inactive)
REMARK    1  A    between atoms: O_2  and  C_26
REMARK    2  A    between atoms: O_3  and  C_27
REMARK    3  A    between atoms: O_3  and  C_34
REMARK    4  A    between atoms: N_6  and  C_17
REMARK    5  A    between atoms: N_7  and  C_25
REMARK    6  A    between atoms: C_11  and  C_18
REMARK    7  A    between atoms: C_12  and  C_17
REMARK    8  A    between atoms: C_24  and  C_26
REMARK    9  A    between atoms: C_26  and  C_29
REMARK   10  A    between atoms: C_26  and  C_30
REMARK                            x       y       z     vdW  Elec       q    Type
REMARK                         _______ _______ _______ _____ _____    ______ ____
ROOT
ATOM      4  N   UNL     1      13.873 -10.140  30.117  0.00  0.00    -0.297 NA
ATOM     10  C   UNL     1      15.644  -8.234  30.103  0.00  0.00    +0.005 C 
ATOM     11  C   UNL     1      15.016  -8.427  28.708  0.00  0.00    +0.092 C 
ATOM     12  C   UNL     1      13.396  -8.990  30.933  0.00  0.00    +0.078 C 
ATOM     13  C   UNL     1      14.497  -7.913  31.080  0.00  0.00    +0.025 C 
ATOM     14  C   UNL     1      16.260  -9.564  30.575  0.00  0.00    +0.020 C 
ATOM     15  C   UNL     1      14.100  -9.665  28.727  0.00  0.00    +0.097 C 
ATOM     16  C   UNL     1      15.166 -10.642  30.632  0.00  0.00    +0.085 C 
ENDROOT
BRANCH  11  18
ATOM      1  O   UNL     1      16.641  -9.621  27.455  0.00  0.00    -0.275 OA
ATOM      5  N   UNL     1      16.337  -7.383  26.906  0.00  0.00    -0.298 N 
ATOM      7  N   UNL     1      16.815  -5.101  25.189  0.00  0.00    -0.324 N 
ATOM     18  C   UNL     1      16.071  -8.542  27.636  0.00  0.00    +0.220 C 
ATOM     19  C   UNL     1      15.660  -6.103  27.122  0.00  0.00    +0.126 C 
ATOM     20  C   UNL     1      17.342  -7.415  25.845  0.00  0.00    +0.126 C 
ATOM     21  C   UNL     1      16.463  -4.912  26.599  0.00  0.00    +0.124 C 
ATOM     22  C   UNL     1      16.990  -6.471  24.698  0.00  0.00    +0.124 C 
BRANCH   7  25
ATOM     25  C   UNL     1      17.013  -4.012  24.346  0.00  0.00    +0.072 A 
ATOM     27  C   UNL     1      17.188  -2.730  24.869  0.00  0.00    +0.141 A 
ATOM     28  C   UNL     1      17.033  -4.209  22.965  0.00  0.00    +0.027 A 
ATOM     31  C   UNL     1      17.385  -1.647  24.012  0.00  0.00    +0.047 A 
ATOM     32  C   UNL     1      17.230  -3.126  22.108  0.00  0.00    +0.002 A 
ATOM     33  C   UNL     1      17.405  -1.845  22.631  0.00  0.00    +0.004 A 
BRANCH  27   3
ATOM      3  O   UNL     1      17.171  -2.516  26.215  0.00  0.00    -0.493 OA
ATOM     34  C   UNL     1      16.323  -1.474  26.693  0.00  0.00    +0.277 C 
ENDBRANCH  27   3
ENDBRANCH   7  25
ENDBRANCH  11  18
BRANCH  12  17
ATOM     17  C   UNL     1      12.852  -9.432  32.293  0.00  0.00    +0.164 C 
BRANCH  17   6
ATOM      6  N   UNL     1      11.371  -9.680  32.241  0.00  0.00    -0.250 N 
ATOM      8  N   UNL     1      10.839 -10.781  32.795  0.00  0.00    -0.065 NA
ATOM      9  N   UNL     1       9.527 -10.731  32.591  0.00  0.00    -0.132 NA
ATOM     23  C   UNL     1      10.417  -8.896  31.668  0.00  0.00    +0.136 A 
ATOM     24  C   UNL     1       9.253  -9.583  31.901  0.00  0.00    +0.114 A 
BRANCH  24  26
ATOM     26  C   UNL     1       7.879  -9.235  31.517  0.00  0.00    +0.105 C 
ATOM     29  C   UNL     1       6.864  -9.390  32.687  0.00  0.00    +0.048 C 
ATOM     30  C   UNL     1       7.359 -10.061  30.305  0.00  0.00    +0.048 C 
BRANCH  26   2
ATOM      2  O   UNL     1       7.752  -7.847  31.100  0.00  0.00    -0.383 OA
ATOM     35  H   UNL     1       8.544  -7.609  30.588  0.00  0.00    +0.211 HD
ENDBRANCH  26   2
ENDBRANCH  24  26
ENDBRANCH  17   6
ENDBRANCH  12  17
TORSDOF 7
ENDMDL
MODEL 2
REMARK VINA RESULT:       0.1      1.285      1.992
REMARK  Name = 44716137
REMARK  10 active torsions:
REMARK  status: ('A' for Active; 'I' for Inactive)
REMARK    1  A    between atoms: O_2  and  C_26
REMARK    2  A    between atoms: O_3  and  C_27
REMARK    3  A    between atoms: O_3  and  C_34
REMARK    4  A    between atoms: N_6  and  C_17
REMARK    5  A    between atoms: N_7  and  C_25
REMARK    6  A    between atoms: C_11  and  C_18
REMARK    7  A    between atoms: C_12  and  C_17
REMARK    8  A    between atoms: C_24  and  C_26
REMARK    9  A    between atoms: C_26  and  C_29
REMARK   10  A    between atoms: C_26  and  C_30
REMARK                            x       y       z     vdW  Elec       q    Type
REMARK                         _______ _______ _______ _____ _____    ______ ____
ROOT
ATOM      4  N   UNL     1      13.614  -9.937  29.562  0.00  0.00    -0.297 NA
ATOM     10  C   UNL     1      15.424  -8.170  30.173  0.00  0.00    +0.005 C 
ATOM     11  C   UNL     1      14.943  -8.001  28.718  0.00  0.00    +0.092 C 
ATOM     12  C   UNL     1      13.082  -8.987  30.577  0.00  0.00    +0.078 C 
ATOM     13  C   UNL     1      14.188  -8.030  31.082  0.00  0.00    +0.025 C 
ATOM     14  C   UNL     1      15.952  -9.602  30.374  0.00  0.00    +0.020 C 
ATOM     15  C   UNL     1      14.000  -9.163  28.354  0.00  0.00    +0.097 C 
ATOM     16  C   UNL     1      14.833 -10.608  30.067  0.00  0.00    +0.085 C 
ENDROOT
BRANCH  11  18
ATOM      1  O   UNL     1      16.826  -8.899  27.584  0.00  0.00    -0.275 OA
ATOM      5  N   UNL     1      16.283  -6.688  27.118  0.00  0.00    -0.298 N 
ATOM      7  N   UNL     1      16.620  -4.261  25.575  0.00  0.00    -0.324 N 
ATOM     18  C   UNL     1      16.103  -7.914  27.758  0.00  0.00    +0.220 C 
ATOM     19  C   UNL     1      15.425  -5.519  27.325  0.00  0.00    +0.126 C 
ATOM     20  C   UNL     1      17.382  -6.526  26.168  0.00  0.00    +0.126 C 
ATOM     21  C   UNL     1      16.111  -4.206  26.948  0.00  0.00    +0.124 C 
ATOM     22  C   UNL     1      17.022  -5.564  25.038  0.00  0.00    +0.124 C 
BRANCH   7  25
ATOM     25  C   UNL     1      16.753  -3.104  24.812  0.00  0.00    +0.072 A 
ATOM     27  C   UNL     1      16.666  -3.158  23.420  0.00  0.00    +0.141 A 
ATOM     28  C   UNL     1      16.977  -1.884  25.450  0.00  0.00    +0.027 A 
ATOM     31  C   UNL     1      16.802  -1.991  22.667  0.00  0.00    +0.047 A 
ATOM     32  C   UNL     1      17.113  -0.717  24.696  0.00  0.00    +0.002 A 
ATOM     33  C   UNL     1      17.025  -0.771  23.305  0.00  0.00    +0.004 A 
BRANCH  27   3
ATOM      3  O   UNL     1      16.448  -4.340  22.778  0.00  0.00    -0.493 OA
ATOM     34  C   UNL     1      17.325  -4.662  21.700  0.00  0.00    +0.277 C 
ENDBRANCH  27   3
ENDBRANCH   7  25
ENDBRANCH  11  18
BRANCH  12  17
ATOM     17  C   UNL     1      12.385  -9.707  31.733  0.00  0.00    +0.164 C 
BRANCH  17   6
ATOM      6  N   UNL     1      10.996  -9.180  31.954  0.00  0.00    -0.250 N 
ATOM      8  N   UNL     1      10.795  -8.033  32.622  0.00  0.00    -0.065 NA
ATOM      9  N   UNL     1       9.483  -7.825  32.664  0.00  0.00    -0.132 NA
ATOM     23  C   UNL     1       9.822  -9.738  31.551  0.00  0.00    +0.136 A 
ATOM     24  C   UNL     1       8.873  -8.861  32.013  0.00  0.00    +0.114 A 
BRANCH  24  26
ATOM     26  C   UNL     1       7.412  -8.926  31.886  0.00  0.00    +0.105 C 
ATOM     29  C   UNL     1       6.920  -8.726  30.423  0.00  0.00    +0.048 C 
ATOM     30  C   UNL     1       6.676  -7.898  32.795  0.00  0.00    +0.048 C 
BRANCH  26   2
ATOM      2  O   UNL     1       6.875 -10.219  32.282  0.00  0.00    -0.383 OA
ATOM     35  H   UNL     1       6.545 -10.146  33.194  0.00  0.00    +0.211 HD
ENDBRANCH  26   2
ENDBRANCH  24  26
ENDBRANCH  17   6
ENDBRANCH  12  17
TORSDOF 7
ENDMDL
