MODEL 1
REMARK VINA RESULT:      -2.6      0.000      0.000
REMARK  Name = 25338708
REMARK  7 active torsions:
REMARK  status: ('A' for Active; 'I' for Inactive)
REMARK    1  A    between atoms: O_3  and  C_21
REMARK    2  A    between atoms: O_3  and  C_24
REMARK    3  A    between atoms: N_4  and  C_14
REMARK    4  A    between atoms: N_5  and  C_9
REMARK    5  A    between atoms: N_7  and  C_18
REMARK    6  A    between atoms: C_10  and  C_13
REMARK    7  A    between atoms: C_16  and  C_17
REMARK                            x       y       z     vdW  Elec       q    Type
REMARK                         _______ _______ _______ _____ _____    ______ ____
ROOT
ATOM      2  O   UNL     1      11.916  -7.166  32.765  0.00  0.00    -0.253 OA
ATOM      5  N   UNL     1      13.753  -8.549  32.520  0.00  0.00    -0.295 N 
ATOM      7  N   UNL     1      11.663  -9.410  32.125  0.00  0.00    -0.269 N 
ATOM     15  C   UNL     1      12.383  -8.270  32.494  0.00  0.00    +0.304 C 
ATOM     25  H   UNL     1      14.055  -9.504  32.356  0.00  0.00    +0.151 HD
ATOM     26  H   UNL     1      12.205 -10.249  31.933  0.00  0.00    +0.156 HD
ENDROOT
BRANCH   5   9
ATOM      4  N   UNL     1      14.450  -5.892  31.273  0.00  0.00    -0.293 NA
ATOM      9  C   UNL     1      14.751  -7.565  32.869  0.00  0.00    +0.090 C 
ATOM     10  C   UNL     1      15.798  -6.418  30.982  0.00  0.00    +0.147 C 
ATOM     11  C   UNL     1      15.954  -7.625  31.928  0.00  0.00    +0.052 C 
ATOM     12  C   UNL     1      14.216  -6.150  32.697  0.00  0.00    +0.107 C 
ATOM     14  C   UNL     1      14.302  -4.479  30.944  0.00  0.00    +0.105 C 
BRANCH  10  13
ATOM      1  O   UNL     1      16.946  -6.085  28.851  0.00  0.00    -0.336 OA
ATOM      6  N   UNL     1      15.392  -7.698  28.811  0.00  0.00    -0.195 NA
ATOM      8  N   UNL     1      16.949  -6.599  27.547  0.00  0.00    -0.062 NA
ATOM     13  C   UNL     1      16.001  -6.788  29.529  0.00  0.00    +0.245 A 
ATOM     16  C   UNL     1      16.008  -7.544  27.603  0.00  0.00    +0.169 A 
ATOM     17  C   UNL     1      15.659  -8.364  26.437  0.00  0.00    +0.091 C 
ENDBRANCH  10  13
ENDBRANCH   5   9
BRANCH   7  18
ATOM     18  C   UNL     1      10.262  -9.544  31.981  0.00  0.00    +0.038 A 
ATOM     19  C   UNL     1       9.412  -8.570  32.504  0.00  0.00    +0.069 A 
ATOM     20  C   UNL     1       9.732 -10.648  31.315  0.00  0.00    +0.023 A 
ATOM     21  C   UNL     1       8.030  -8.700  32.361  0.00  0.00    +0.122 A 
ATOM     22  C   UNL     1       8.350 -10.778  31.172  0.00  0.00    +0.005 A 
ATOM     23  C   UNL     1       7.500  -9.804  31.695  0.00  0.00    +0.046 A 
BRANCH  21   3
ATOM      3  O   UNL     1       7.201  -7.750  32.872  0.00  0.00    -0.495 OA
ATOM     24  C   UNL     1       5.881  -7.684  32.335  0.00  0.00    +0.277 C 
ENDBRANCH  21   3
ENDBRANCH   7  18
TORSDOF 4
ENDMDL
MODEL 2
REMARK VINA RESULT:      -2.1      1.597      2.163
REMARK  Name = 25338708
REMARK  7 active torsions:
REMARK  status: ('A' for Active; 'I' for Inactive)
REMARK    1  A    between atoms: O_3  and  C_21
REMARK    2  A    between atoms: O_3  and  C_24
REMARK    3  A    between atoms: N_4  and  C_14
REMARK    4  A    between atoms: N_5  and  C_9
REMARK    5  A    between atoms: N_7  and  C_18
REMARK    6  A    between atoms: C_10  and  C_13
REMARK    7  A    between atoms: C_16  and  C_17
REMARK                            x       y       z     vdW  Elec       q    Type
REMARK                         _______ _______ _______ _____ _____    ______ ____
ROOT
ATOM      2  O   UNL     1      13.576  -6.560  32.434  0.00  0.00    -0.253 OA
ATOM      5  N   UNL     1      15.115  -8.285  32.360  0.00  0.00    -0.295 N 
ATOM      7  N   UNL     1      12.878  -8.800  32.345  0.00  0.00    -0.269 N 
ATOM     15  C   UNL     1      13.816  -7.765  32.384  0.00  0.00    +0.304 C 
ATOM     25  H   UNL     1      15.232  -9.293  32.393  0.00  0.00    +0.151 HD
ATOM     26  H   UNL     1      13.246  -9.748  32.304  0.00  0.00    +0.156 HD
ENDROOT
BRANCH   5   9
ATOM      4  N   UNL     1      15.943  -5.933  30.662  0.00  0.00    -0.293 NA
ATOM      9  C   UNL     1      16.297  -7.456  32.391  0.00  0.00    +0.090 C 
ATOM     10  C   UNL     1      17.114  -6.711  30.213  0.00  0.00    +0.147 C 
ATOM     11  C   UNL     1      17.270  -7.821  31.271  0.00  0.00    +0.052 C 
ATOM     12  C   UNL     1      15.956  -5.997  32.127  0.00  0.00    +0.107 C 
ATOM     14  C   UNL     1      15.947  -4.558  30.177  0.00  0.00    +0.105 C 
BRANCH  10  13
ATOM      1  O   UNL     1      16.902  -8.611  28.691  0.00  0.00    -0.336 OA
ATOM      6  N   UNL     1      16.907  -6.617  27.671  0.00  0.00    -0.195 NA
ATOM      8  N   UNL     1      16.778  -8.874  27.320  0.00  0.00    -0.062 NA
ATOM     13  C   UNL     1      16.972  -7.260  28.810  0.00  0.00    +0.245 A 
ATOM     16  C   UNL     1      16.789  -7.650  26.786  0.00  0.00    +0.169 A 
ATOM     17  C   UNL     1      16.681  -7.432  25.339  0.00  0.00    +0.091 C 
ENDBRANCH  10  13
ENDBRANCH   5   9
BRANCH   7  18
ATOM     18  C   UNL     1      11.468  -8.694  32.351  0.00  0.00    +0.038 A 
ATOM     19  C   UNL     1      10.688  -9.734  31.846  0.00  0.00    +0.069 A 
ATOM     20  C   UNL     1      10.857  -7.550  32.865  0.00  0.00    +0.023 A 
ATOM     21  C   UNL     1       9.297  -9.631  31.854  0.00  0.00    +0.122 A 
ATOM     22  C   UNL     1       9.466  -7.447  32.873  0.00  0.00    +0.005 A 
ATOM     23  C   UNL     1       8.686  -8.487  32.368  0.00  0.00    +0.046 A 
BRANCH  21   3
ATOM      3  O   UNL     1       8.537 -10.646  31.361  0.00  0.00    -0.495 OA
ATOM     24  C   UNL     1       7.157 -10.659  31.724  0.00  0.00    +0.277 C 
ENDBRANCH  21   3
ENDBRANCH   7  18
TORSDOF 4
ENDMDL
MODEL 3
REMARK VINA RESULT:      -1.4      2.085      3.002
REMARK  Name = 25338708
REMARK  7 active torsions:
REMARK  status: ('A' for Active; 'I' for Inactive)
REMARK    1  A    between atoms: O_3  and  C_21
REMARK    2  A    between atoms: O_3  and  C_24
REMARK    3  A    between atoms: N_4  and  C_14
REMARK    4  A    between atoms: N_5  and  C_9
REMARK    5  A    between atoms: N_7  and  C_18
REMARK    6  A    between atoms: C_10  and  C_13
REMARK    7  A    between atoms: C_16  and  C_17
REMARK                            x       y       z     vdW  Elec       q    Type
REMARK                         _______ _______ _______ _____ _____    ______ ____
ROOT
ATOM      2  O   UNL     1      14.357  -7.336  31.093  0.00  0.00    -0.253 OA
ATOM      5  N   UNL     1      15.745  -9.182  31.201  0.00  0.00    -0.295 N 
ATOM      7  N   UNL     1      13.542  -9.421  31.800  0.00  0.00    -0.269 N 
ATOM     15  C   UNL     1      14.516  -8.528  31.343  0.00  0.00    +0.304 C 
ATOM     25  H   UNL     1      15.814 -10.150  31.497  0.00  0.00    +0.151 HD
ATOM     26  H   UNL     1      13.841 -10.381  31.958  0.00  0.00    +0.156 HD
ENDROOT
BRANCH   5   9
ATOM      4  N   UNL     1      16.164  -7.031  29.126  0.00  0.00    -0.293 NA
ATOM      9  C   UNL     1      16.943  -8.516  30.746  0.00  0.00    +0.090 C 
ATOM     10  C   UNL     1      17.004  -7.975  28.365  0.00  0.00    +0.147 C 
ATOM     11  C   UNL     1      17.405  -9.052  29.391  0.00  0.00    +0.052 C 
ATOM     12  C   UNL     1      16.692  -7.037  30.494  0.00  0.00    +0.107 C 
ATOM     14  C   UNL     1      16.144  -5.690  28.556  0.00  0.00    +0.105 C 
BRANCH  10  13
ATOM      1  O   UNL     1      16.729  -8.107  25.940  0.00  0.00    -0.336 OA
ATOM      6  N   UNL     1      15.350  -9.445  27.092  0.00  0.00    -0.195 NA
ATOM      8  N   UNL     1      15.951  -8.779  24.987  0.00  0.00    -0.062 NA
ATOM     13  C   UNL     1      16.311  -8.557  27.152  0.00  0.00    +0.245 A 
ATOM     16  C   UNL     1      15.163  -9.548  25.744  0.00  0.00    +0.169 A 
ATOM     17  C   UNL     1      14.160 -10.446  25.160  0.00  0.00    +0.091 C 
ENDBRANCH  10  13
ENDBRANCH   5   9
BRANCH   7  18
ATOM     18  C   UNL     1      12.179  -9.156  32.068  0.00  0.00    +0.038 A 
ATOM     19  C   UNL     1      11.757  -7.848  32.305  0.00  0.00    +0.069 A 
ATOM     20  C   UNL     1      11.257 -10.202  32.094  0.00  0.00    +0.023 A 
ATOM     21  C   UNL     1      10.412  -7.585  32.568  0.00  0.00    +0.122 A 
ATOM     22  C   UNL     1       9.913  -9.940  32.357  0.00  0.00    +0.005 A 
ATOM     23  C   UNL     1       9.491  -8.632  32.594  0.00  0.00    +0.046 A 
BRANCH  21   3
ATOM      3  O   UNL     1      10.001  -6.309  32.800  0.00  0.00    -0.495 OA
ATOM     24  C   UNL     1      11.013  -5.305  32.873  0.00  0.00    +0.277 C 
ENDBRANCH  21   3
ENDBRANCH   7  18
TORSDOF 4
ENDMDL
MODEL 4
REMARK VINA RESULT:      -0.4     14.997     18.509
REMARK  Name = 25338708
REMARK  7 active torsions:
REMARK  status: ('A' for Active; 'I' for Inactive)
REMARK    1  A    between atoms: O_3  and  C_21
REMARK    2  A    between atoms: O_3  and  C_24
REMARK    3  A    between atoms: N_4  and  C_14
REMARK    4  A    between atoms: N_5  and  C_9
REMARK    5  A    between atoms: N_7  and  C_18
REMARK    6  A    between atoms: C_10  and  C_13
REMARK    7  A    between atoms: C_16  and  C_17
REMARK                            x       y       z     vdW  Elec       q    Type
REMARK                         _______ _______ _______ _____ _____    ______ ____
ROOT
ATOM      2  O   UNL     1      -0.233   0.025  25.392  0.00  0.00    -0.253 OA
ATOM      5  N   UNL     1      -1.604  -1.280  24.064  0.00  0.00    -0.295 N 
ATOM      7  N   UNL     1       0.503  -0.769  23.309  0.00  0.00    -0.269 N 
ATOM     15  C   UNL     1      -0.412  -0.608  24.354  0.00  0.00    +0.304 C 
ATOM     25  H   UNL     1      -1.702  -1.718  23.153  0.00  0.00    +0.151 HD
ATOM     26  H   UNL     1       0.195  -1.327  22.516  0.00  0.00    +0.156 HD
ENDROOT
BRANCH   5   9
ATOM      4  N   UNL     1      -4.079   0.442  24.166  0.00  0.00    -0.293 NA
ATOM      9  C   UNL     1      -2.738  -1.294  24.957  0.00  0.00    +0.090 C 
ATOM     10  C   UNL     1      -3.667   0.897  25.508  0.00  0.00    +0.147 C 
ATOM     11  C   UNL     1      -2.659  -0.166  25.985  0.00  0.00    +0.052 C 
ATOM     12  C   UNL     1      -4.035  -1.023  24.208  0.00  0.00    +0.107 C 
ATOM     14  C   UNL     1      -5.392   0.936  23.769  0.00  0.00    +0.105 C 
BRANCH  10  13
ATOM      1  O   UNL     1      -3.833   3.256  26.126  0.00  0.00    -0.336 OA
ATOM      6  N   UNL     1      -1.956   2.728  25.023  0.00  0.00    -0.195 NA
ATOM      8  N   UNL     1      -3.102   4.446  26.009  0.00  0.00    -0.062 NA
ATOM     13  C   UNL     1      -3.088   2.296  25.519  0.00  0.00    +0.245 A 
ATOM     16  C   UNL     1      -2.009   4.053  25.348  0.00  0.00    +0.169 A 
ATOM     17  C   UNL     1      -0.936   4.989  24.994  0.00  0.00    +0.091 C 
ENDBRANCH  10  13
ENDBRANCH   5   9
BRANCH   7  18
ATOM     18  C   UNL     1       1.815  -0.251  23.216  0.00  0.00    +0.038 A 
ATOM     19  C   UNL     1       2.907  -1.054  23.546  0.00  0.00    +0.069 A 
ATOM     20  C   UNL     1       2.018   1.063  22.793  0.00  0.00    +0.023 A 
ATOM     21  C   UNL     1       4.202  -0.544  23.453  0.00  0.00    +0.122 A 
ATOM     22  C   UNL     1       3.313   1.573  22.700  0.00  0.00    +0.005 A 
ATOM     23  C   UNL     1       4.405   0.770  23.030  0.00  0.00    +0.046 A 
BRANCH  21   3
ATOM      3  O   UNL     1       5.266  -1.328  23.776  0.00  0.00    -0.495 OA
ATOM     24  C   UNL     1       6.560  -0.731  23.694  0.00  0.00    +0.277 C 
ENDBRANCH  21   3
ENDBRANCH   7  18
TORSDOF 4
ENDMDL
MODEL 5
REMARK VINA RESULT:      -0.2     14.883     18.529
REMARK  Name = 25338708
REMARK  7 active torsions:
REMARK  status: ('A' for Active; 'I' for Inactive)
REMARK    1  A    between atoms: O_3  and  C_21
REMARK    2  A    between atoms: O_3  and  C_24
REMARK    3  A    between atoms: N_4  and  C_14
REMARK    4  A    between atoms: N_5  and  C_9
REMARK    5  A    between atoms: N_7  and  C_18
REMARK    6  A    between atoms: C_10  and  C_13
REMARK    7  A    between atoms: C_16  and  C_17
REMARK                            x       y       z     vdW  Elec       q    Type
REMARK                         _______ _______ _______ _____ _____    ______ ____
ROOT
ATOM      2  O   UNL     1      -0.505  -0.035  25.254  0.00  0.00    -0.253 OA
ATOM      5  N   UNL     1      -0.988  -2.231  24.713  0.00  0.00    -0.295 N 
ATOM      7  N   UNL     1       0.872  -1.251  23.792  0.00  0.00    -0.269 N 
ATOM     15  C   UNL     1      -0.222  -1.062  24.642  0.00  0.00    +0.304 C 
ATOM     25  H   UNL     1      -0.730  -3.014  24.120  0.00  0.00    +0.151 HD
ATOM     26  H   UNL     1       0.963  -2.168  23.362  0.00  0.00    +0.156 HD
ENDROOT
BRANCH   5   9
ATOM      4  N   UNL     1      -3.879  -1.671  24.059  0.00  0.00    -0.293 NA
ATOM      9  C   UNL     1      -2.184  -2.341  25.513  0.00  0.00    +0.090 C 
ATOM     10  C   UNL     1      -3.881  -0.631  25.106  0.00  0.00    +0.147 C 
ATOM     11  C   UNL     1      -2.669  -0.973  25.994  0.00  0.00    +0.052 C 
ATOM     12  C   UNL     1      -3.349  -2.881  24.696  0.00  0.00    +0.107 C 
ATOM     14  C   UNL     1      -5.194  -1.897  23.472  0.00  0.00    +0.105 C 
BRANCH  10  13
ATOM      1  O   UNL     1      -3.139   0.948  23.394  0.00  0.00    -0.336 OA
ATOM      6  N   UNL     1      -4.336   1.880  25.042  0.00  0.00    -0.195 NA
ATOM      8  N   UNL     1      -3.221   2.314  23.092  0.00  0.00    -0.062 NA
ATOM     13  C   UNL     1      -3.821   0.778  24.556  0.00  0.00    +0.245 A 
ATOM     16  C   UNL     1      -3.941   2.794  24.109  0.00  0.00    +0.169 A 
ATOM     17  C   UNL     1      -4.284   4.217  24.215  0.00  0.00    +0.091 C 
ENDBRANCH  10  13
ENDBRANCH   5   9
BRANCH   7  18
ATOM     18  C   UNL     1       1.881  -0.318  23.456  0.00  0.00    +0.038 A 
ATOM     19  C   UNL     1       3.213  -0.725  23.390  0.00  0.00    +0.069 A 
ATOM     20  C   UNL     1       1.543   1.009  23.188  0.00  0.00    +0.023 A 
ATOM     21  C   UNL     1       4.208   0.194  23.057  0.00  0.00    +0.122 A 
ATOM     22  C   UNL     1       2.538   1.928  22.855  0.00  0.00    +0.005 A 
ATOM     23  C   UNL     1       3.870   1.520  22.789  0.00  0.00    +0.046 A 
BRANCH  21   3
ATOM      3  O   UNL     1       5.508  -0.204  22.994  0.00  0.00    -0.495 OA
ATOM     24  C   UNL     1       6.067  -0.782  24.172  0.00  0.00    +0.277 C 
ENDBRANCH  21   3
ENDBRANCH   7  18
TORSDOF 4
ENDMDL
MODEL 6
REMARK VINA RESULT:      -0.2     15.731     19.354
REMARK  Name = 25338708
REMARK  7 active torsions:
REMARK  status: ('A' for Active; 'I' for Inactive)
REMARK    1  A    between atoms: O_3  and  C_21
REMARK    2  A    between atoms: O_3  and  C_24
REMARK    3  A    between atoms: N_4  and  C_14
REMARK    4  A    between atoms: N_5  and  C_9
REMARK    5  A    between atoms: N_7  and  C_18
REMARK    6  A    between atoms: C_10  and  C_13
REMARK    7  A    between atoms: C_16  and  C_17
REMARK                            x       y       z     vdW  Elec       q    Type
REMARK                         _______ _______ _______ _____ _____    ______ ____
ROOT
ATOM      2  O   UNL     1      -1.700   1.396  22.838  0.00  0.00    -0.253 OA
ATOM      5  N   UNL     1      -1.748   3.414  23.967  0.00  0.00    -0.295 N 
ATOM      7  N   UNL     1       0.258   2.322  23.744  0.00  0.00    -0.269 N 
ATOM     15  C   UNL     1      -1.108   2.281  23.453  0.00  0.00    +0.304 C 
ATOM     25  H   UNL     1      -1.204   4.063  24.527  0.00  0.00    +0.151 HD
ATOM     26  H   UNL     1       0.590   3.131  24.265  0.00  0.00    +0.156 HD
ENDROOT
BRANCH   5   9
ATOM      4  N   UNL     1      -4.093   2.548  25.658  0.00  0.00    -0.293 NA
ATOM      9  C   UNL     1      -3.165   3.651  23.825  0.00  0.00    +0.090 C 
ATOM     10  C   UNL     1      -4.613   1.801  24.496  0.00  0.00    +0.147 C 
ATOM     11  C   UNL     1      -3.891   2.420  23.283  0.00  0.00    +0.052 C 
ATOM     12  C   UNL     1      -3.822   3.905  25.174  0.00  0.00    +0.107 C 
ATOM     14  C   UNL     1      -5.003   2.546  26.796  0.00  0.00    +0.105 C 
BRANCH  10  13
ATOM      1  O   UNL     1      -4.025  -0.174  25.810  0.00  0.00    -0.336 OA
ATOM      6  N   UNL     1      -4.532  -0.614  23.673  0.00  0.00    -0.195 NA
ATOM      8  N   UNL     1      -3.895  -1.561  25.656  0.00  0.00    -0.062 NA
ATOM     13  C   UNL     1      -4.403   0.305  24.597  0.00  0.00    +0.245 A 
ATOM     16  C   UNL     1      -4.210  -1.742  24.370  0.00  0.00    +0.169 A 
ATOM     17  C   UNL     1      -4.207  -3.072  23.749  0.00  0.00    +0.091 C 
ENDBRANCH  10  13
ENDBRANCH   5   9
BRANCH   7  18
ATOM     18  C   UNL     1       1.248   1.371  23.400  0.00  0.00    +0.038 A 
ATOM     19  C   UNL     1       2.599   1.703  23.505  0.00  0.00    +0.069 A 
ATOM     20  C   UNL     1       0.872   0.103  22.959  0.00  0.00    +0.023 A 
ATOM     21  C   UNL     1       3.575   0.765  23.167  0.00  0.00    +0.122 A 
ATOM     22  C   UNL     1       1.849  -0.835  22.621  0.00  0.00    +0.005 A 
ATOM     23  C   UNL     1       3.200  -0.504  22.726  0.00  0.00    +0.046 A 
BRANCH  21   3
ATOM      3  O   UNL     1       4.893   1.089  23.269  0.00  0.00    -0.495 OA
ATOM     24  C   UNL     1       5.787   0.052  23.669  0.00  0.00    +0.277 C 
ENDBRANCH  21   3
ENDBRANCH   7  18
TORSDOF 4
ENDMDL
MODEL 7
REMARK VINA RESULT:      -0.0      2.547      3.670
REMARK  Name = 25338708
REMARK  7 active torsions:
REMARK  status: ('A' for Active; 'I' for Inactive)
REMARK    1  A    between atoms: O_3  and  C_21
REMARK    2  A    between atoms: O_3  and  C_24
REMARK    3  A    between atoms: N_4  and  C_14
REMARK    4  A    between atoms: N_5  and  C_9
REMARK    5  A    between atoms: N_7  and  C_18
REMARK    6  A    between atoms: C_10  and  C_13
REMARK    7  A    between atoms: C_16  and  C_17
REMARK                            x       y       z     vdW  Elec       q    Type
REMARK                         _______ _______ _______ _____ _____    ______ ____
ROOT
ATOM      2  O   UNL     1      14.353  -5.300  31.441  0.00  0.00    -0.253 OA
ATOM      5  N   UNL     1      15.321  -7.389  31.219  0.00  0.00    -0.295 N 
ATOM      7  N   UNL     1      13.116  -7.255  31.842  0.00  0.00    -0.269 N 
ATOM     15  C   UNL     1      14.257  -6.524  31.499  0.00  0.00    +0.304 C 
ATOM     25  H   UNL     1      15.184  -8.385  31.361  0.00  0.00    +0.151 HD
ATOM     26  H   UNL     1      13.206  -8.268  31.841  0.00  0.00    +0.156 HD
ENDROOT
BRANCH   5   9
ATOM      4  N   UNL     1      16.392  -6.403  28.576  0.00  0.00    -0.293 NA
ATOM      9  C   UNL     1      16.633  -6.925  30.836  0.00  0.00    +0.090 C 
ATOM     10  C   UNL     1      17.344  -7.531  28.579  0.00  0.00    +0.147 C 
ATOM     11  C   UNL     1      17.399  -7.988  30.050  0.00  0.00    +0.052 C 
ATOM     12  C   UNL     1      16.545  -5.746  29.878  0.00  0.00    +0.107 C 
ATOM     14  C   UNL     1      16.601  -5.477  27.471  0.00  0.00    +0.105 C 
BRANCH  10  13
ATOM      1  O   UNL     1      17.370  -9.899  27.974  0.00  0.00    -0.336 OA
ATOM      6  N   UNL     1      16.271  -8.595  26.522  0.00  0.00    -0.195 NA
ATOM      8  N   UNL     1      16.899 -10.750  26.965  0.00  0.00    -0.062 NA
ATOM     13  C   UNL     1      16.956  -8.650  27.636  0.00  0.00    +0.245 A 
ATOM     16  C   UNL     1      16.262  -9.907  26.147  0.00  0.00    +0.169 A 
ATOM     17  C   UNL     1      15.597 -10.367  24.922  0.00  0.00    +0.091 C 
ENDBRANCH  10  13
ENDBRANCH   5   9
BRANCH   7  18
ATOM     18  C   UNL     1      11.839  -6.757  32.190  0.00  0.00    +0.038 A 
ATOM     19  C   UNL     1      11.624  -5.381  32.267  0.00  0.00    +0.069 A 
ATOM     20  C   UNL     1      10.794  -7.642  32.455  0.00  0.00    +0.023 A 
ATOM     21  C   UNL     1      10.364  -4.889  32.609  0.00  0.00    +0.122 A 
ATOM     22  C   UNL     1       9.533  -7.150  32.796  0.00  0.00    +0.005 A 
ATOM     23  C   UNL     1       9.319  -5.774  32.873  0.00  0.00    +0.046 A 
BRANCH  21   3
ATOM      3  O   UNL     1      10.156  -3.547  32.684  0.00  0.00    -0.495 OA
ATOM     24  C   UNL     1      10.128  -2.825  31.454  0.00  0.00    +0.277 C 
ENDBRANCH  21   3
ENDBRANCH   7  18
TORSDOF 4
ENDMDL
MODEL 8
REMARK VINA RESULT:       0.3     16.269     19.344
REMARK  Name = 25338708
REMARK  7 active torsions:
REMARK  status: ('A' for Active; 'I' for Inactive)
REMARK    1  A    between atoms: O_3  and  C_21
REMARK    2  A    between atoms: O_3  and  C_24
REMARK    3  A    between atoms: N_4  and  C_14
REMARK    4  A    between atoms: N_5  and  C_9
REMARK    5  A    between atoms: N_7  and  C_18
REMARK    6  A    between atoms: C_10  and  C_13
REMARK    7  A    between atoms: C_16  and  C_17
REMARK                            x       y       z     vdW  Elec       q    Type
REMARK                         _______ _______ _______ _____ _____    ______ ____
ROOT
ATOM      2  O   UNL     1      -3.191   1.289  25.463  0.00  0.00    -0.253 OA
ATOM      5  N   UNL     1      -5.383   2.022  25.409  0.00  0.00    -0.295 N 
ATOM      7  N   UNL     1      -4.920  -0.121  24.732  0.00  0.00    -0.269 N 
ATOM     15  C   UNL     1      -4.376   1.070  25.221  0.00  0.00    +0.304 C 
ATOM     25  H   UNL     1      -6.328   1.790  25.117  0.00  0.00    +0.151 HD
ATOM     26  H   UNL     1      -5.927  -0.137  24.587  0.00  0.00    +0.156 HD
ENDROOT
BRANCH   5   9
ATOM      4  N   UNL     1      -3.664   4.253  24.326  0.00  0.00    -0.293 NA
ATOM      9  C   UNL     1      -5.126   3.354  25.904  0.00  0.00    +0.090 C 
ATOM     10  C   UNL     1      -2.855   4.183  25.558  0.00  0.00    +0.147 C 
ATOM     11  C   UNL     1      -3.755   3.451  26.573  0.00  0.00    +0.052 C 
ATOM     12  C   UNL     1      -5.058   4.363  24.768  0.00  0.00    +0.107 C 
ATOM     14  C   UNL     1      -3.282   5.353  23.449  0.00  0.00    +0.105 C 
BRANCH  10  13
ATOM      1  O   UNL     1      -0.764   3.314  26.478  0.00  0.00    -0.336 OA
ATOM      6  N   UNL     1      -0.971   3.045  24.264  0.00  0.00    -0.195 NA
ATOM      8  N   UNL     1       0.406   2.671  26.052  0.00  0.00    -0.062 NA
ATOM     13  C   UNL     1      -1.520   3.497  25.364  0.00  0.00    +0.245 A 
ATOM     16  C   UNL     1       0.209   2.548  24.737  0.00  0.00    +0.169 A 
ATOM     17  C   UNL     1       1.201   1.919  23.858  0.00  0.00    +0.091 C 
ENDBRANCH  10  13
ENDBRANCH   5   9
BRANCH   7  18
ATOM     18  C   UNL     1      -4.240  -1.320  24.415  0.00  0.00    +0.038 A 
ATOM     19  C   UNL     1      -2.911  -1.492  24.804  0.00  0.00    +0.069 A 
ATOM     20  C   UNL     1      -4.898  -2.331  23.714  0.00  0.00    +0.023 A 
ATOM     21  C   UNL     1      -2.241  -2.675  24.493  0.00  0.00    +0.122 A 
ATOM     22  C   UNL     1      -4.227  -3.514  23.403  0.00  0.00    +0.005 A 
ATOM     23  C   UNL     1      -2.899  -3.686  23.793  0.00  0.00    +0.046 A 
BRANCH  21   3
ATOM      3  O   UNL     1      -0.945  -2.842  24.873  0.00  0.00    -0.495 OA
ATOM     24  C   UNL     1      -0.216  -1.668  25.227  0.00  0.00    +0.277 C 
ENDBRANCH  21   3
ENDBRANCH   7  18
TORSDOF 4
ENDMDL
MODEL 9
REMARK VINA RESULT:       0.3      2.257      3.328
REMARK  Name = 25338708
REMARK  7 active torsions:
REMARK  status: ('A' for Active; 'I' for Inactive)
REMARK    1  A    between atoms: O_3  and  C_21
REMARK    2  A    between atoms: O_3  and  C_24
REMARK    3  A    between atoms: N_4  and  C_14
REMARK    4  A    between atoms: N_5  and  C_9
REMARK    5  A    between atoms: N_7  and  C_18
REMARK    6  A    between atoms: C_10  and  C_13
REMARK    7  A    between atoms: C_16  and  C_17
REMARK                            x       y       z     vdW  Elec       q    Type
REMARK                         _______ _______ _______ _____ _____    ______ ____
ROOT
ATOM      2  O   UNL     1      14.310  -4.424  31.898  0.00  0.00    -0.253 OA
ATOM      5  N   UNL     1      15.341  -6.487  31.732  0.00  0.00    -0.295 N 
ATOM      7  N   UNL     1      13.075  -6.411  32.088  0.00  0.00    -0.269 N 
ATOM     15  C   UNL     1      14.234  -5.650  31.907  0.00  0.00    +0.304 C 
ATOM     25  H   UNL     1      15.209  -7.489  31.826  0.00  0.00    +0.151 HD
ATOM     26  H   UNL     1      13.186  -7.423  32.067  0.00  0.00    +0.156 HD
ENDROOT
BRANCH   5   9
ATOM      4  N   UNL     1      16.497  -4.728  29.570  0.00  0.00    -0.293 NA
ATOM      9  C   UNL     1      16.680  -5.988  31.523  0.00  0.00    +0.090 C 
ATOM     10  C   UNL     1      17.393  -5.838  29.192  0.00  0.00    +0.147 C 
ATOM     11  C   UNL     1      17.405  -6.764  30.424  0.00  0.00    +0.052 C 
ATOM     12  C   UNL     1      16.663  -4.553  31.016  0.00  0.00    +0.107 C 
ATOM     14  C   UNL     1      16.767  -3.497  28.838  0.00  0.00    +0.105 C 
BRANCH  10  13
ATOM      1  O   UNL     1      16.685  -5.775  26.853  0.00  0.00    -0.336 OA
ATOM      6  N   UNL     1      16.822  -7.839  27.713  0.00  0.00    -0.195 NA
ATOM      8  N   UNL     1      16.318  -6.652  25.824  0.00  0.00    -0.062 NA
ATOM     13  C   UNL     1      16.966  -6.555  27.929  0.00  0.00    +0.245 A 
ATOM     16  C   UNL     1      16.423  -7.848  26.408  0.00  0.00    +0.169 A 
ATOM     17  C   UNL     1      16.127  -9.093  25.689  0.00  0.00    +0.091 C 
ENDBRANCH  10  13
ENDBRANCH   5   9
BRANCH   7  18
ATOM     18  C   UNL     1      11.755  -5.947  32.296  0.00  0.00    +0.038 A 
ATOM     19  C   UNL     1      10.707  -6.859  32.419  0.00  0.00    +0.069 A 
ATOM     20  C   UNL     1      11.503  -4.578  32.379  0.00  0.00    +0.023 A 
ATOM     21  C   UNL     1       9.405  -6.402  32.626  0.00  0.00    +0.122 A 
ATOM     22  C   UNL     1      10.201  -4.121  32.585  0.00  0.00    +0.005 A 
ATOM     23  C   UNL     1       9.153  -5.033  32.709  0.00  0.00    +0.046 A 
BRANCH  21   3
ATOM      3  O   UNL     1       8.383  -7.292  32.746  0.00  0.00    -0.495 OA
ATOM     24  C   UNL     1       8.691  -8.667  32.522  0.00  0.00    +0.277 C 
ENDBRANCH  21   3
ENDBRANCH   7  18
TORSDOF 4
ENDMDL
