MODEL 1
REMARK VINA RESULT:      -4.9      0.000      0.000
REMARK  Name = 45784200
REMARK  5 active torsions:
REMARK  status: ('A' for Active; 'I' for Inactive)
REMARK    1  A    between atoms: N_2  and  C_8
REMARK    2  A    between atoms: C_4  and  C_9
REMARK    3  A    between atoms: C_8  and  C_10
REMARK    4  A    between atoms: C_8  and  C_11
REMARK    5  A    between atoms: C_16  and  C_18
REMARK                            x       y       z     vdW  Elec       q    Type
REMARK                         _______ _______ _______ _____ _____    ______ ____
ROOT
ATOM      1  O   UNL     1      -4.803 -10.629  14.623  0.00  0.00    -0.439 OA
ATOM      3  N   UNL     1      -7.013 -10.411  15.077  0.00  0.00    -0.213 NA
ATOM      9  C   UNL     1      -6.075 -10.483  14.157  0.00  0.00    +0.201 A 
ATOM     12  C   UNL     1      -6.311 -10.517  16.253  0.00  0.00    +0.110 A 
ATOM     13  C   UNL     1      -4.958 -10.650  15.979  0.00  0.00    +0.155 A 
ATOM     14  C   UNL     1      -6.735 -10.511  17.590  0.00  0.00    +0.035 A 
ATOM     15  C   UNL     1      -3.965 -10.780  16.942  0.00  0.00    +0.049 A 
ATOM     16  C   UNL     1      -5.761 -10.639  18.590  0.00  0.00    -0.048 A 
ATOM     17  C   UNL     1      -4.404 -10.771  18.270  0.00  0.00    +0.007 A 
ATOM     18  C   UNL     1      -6.180 -10.635  20.024  0.00  0.00    +0.044 C 
ENDROOT
BRANCH   9   4
ATOM      2  N   UNL     1      -5.044 -10.003  10.674  0.00  0.00    -0.299 NA
ATOM      4  C   UNL     1      -6.226 -10.427  12.654  0.00  0.00    +0.090 C 
ATOM      5  C   UNL     1      -4.932 -10.781  11.910  0.00  0.00    +0.097 C 
ATOM      6  C   UNL     1      -6.633  -9.051  12.096  0.00  0.00    +0.029 C 
ATOM      7  C   UNL     1      -5.542  -8.694  11.096  0.00  0.00    +0.085 C 
BRANCH   2   8
ATOM      8  C   UNL     1      -3.780  -9.911   9.959  0.00  0.00    +0.050 C 
ATOM     10  C   UNL     1      -2.637  -9.652  10.937  0.00  0.00    +0.024 C 
ATOM     11  C   UNL     1      -3.867  -8.805   8.914  0.00  0.00    +0.024 C 
ENDBRANCH   2   8
ENDBRANCH   9   4
TORSDOF 2
ENDMDL
MODEL 2
REMARK VINA RESULT:      -4.8      1.856      6.734
REMARK  Name = 45784200
REMARK  5 active torsions:
REMARK  status: ('A' for Active; 'I' for Inactive)
REMARK    1  A    between atoms: N_2  and  C_8
REMARK    2  A    between atoms: C_4  and  C_9
REMARK    3  A    between atoms: C_8  and  C_10
REMARK    4  A    between atoms: C_8  and  C_11
REMARK    5  A    between atoms: C_16  and  C_18
REMARK                            x       y       z     vdW  Elec       q    Type
REMARK                         _______ _______ _______ _____ _____    ______ ____
ROOT
ATOM      1  O   UNL     1      -4.576 -10.781  14.354  0.00  0.00    -0.439 OA
ATOM      3  N   UNL     1      -6.428  -9.885  13.403  0.00  0.00    -0.213 NA
ATOM      9  C   UNL     1      -5.894 -10.450  14.463  0.00  0.00    +0.201 A 
ATOM     12  C   UNL     1      -5.383  -9.833  12.512  0.00  0.00    +0.110 A 
ATOM     13  C   UNL     1      -4.249 -10.382  13.090  0.00  0.00    +0.155 A 
ATOM     14  C   UNL     1      -5.307  -9.343  11.200  0.00  0.00    +0.035 A 
ATOM     15  C   UNL     1      -3.014 -10.488  12.463  0.00  0.00    +0.049 A 
ATOM     16  C   UNL     1      -4.076  -9.433  10.534  0.00  0.00    -0.048 A 
ATOM     17  C   UNL     1      -2.954  -9.994  11.155  0.00  0.00    +0.007 A 
ATOM     18  C   UNL     1      -3.962  -8.920   9.136  0.00  0.00    +0.044 C 
ENDROOT
BRANCH   9   4
ATOM      2  N   UNL     1      -8.378 -10.232  17.148  0.00  0.00    -0.299 NA
ATOM      4  C   UNL     1      -6.550 -10.779  15.785  0.00  0.00    +0.090 C 
ATOM      5  C   UNL     1      -8.072 -10.587  15.760  0.00  0.00    +0.097 C 
ATOM      6  C   UNL     1      -6.068  -9.929  16.974  0.00  0.00    +0.029 C 
ATOM      7  C   UNL     1      -7.330  -9.287  17.535  0.00  0.00    +0.085 C 
BRANCH   2   8
ATOM      8  C   UNL     1      -9.712  -9.672  17.297  0.00  0.00    +0.050 C 
ATOM     10  C   UNL     1      -9.681  -8.163  17.072  0.00  0.00    +0.024 C 
ATOM     11  C   UNL     1     -10.252 -10.008  18.683  0.00  0.00    +0.024 C 
ENDBRANCH   2   8
ENDBRANCH   9   4
TORSDOF 2
ENDMDL
MODEL 3
REMARK VINA RESULT:      -4.1      2.071      2.937
REMARK  Name = 45784200
REMARK  5 active torsions:
REMARK  status: ('A' for Active; 'I' for Inactive)
REMARK    1  A    between atoms: N_2  and  C_8
REMARK    2  A    between atoms: C_4  and  C_9
REMARK    3  A    between atoms: C_8  and  C_10
REMARK    4  A    between atoms: C_8  and  C_11
REMARK    5  A    between atoms: C_16  and  C_18
REMARK                            x       y       z     vdW  Elec       q    Type
REMARK                         _______ _______ _______ _____ _____    ______ ____
ROOT
ATOM      1  O   UNL     1      -3.424 -10.721  15.113  0.00  0.00    -0.439 OA
ATOM      3  N   UNL     1      -5.190 -10.319  13.751  0.00  0.00    -0.213 NA
ATOM      9  C   UNL     1      -3.907 -10.591  13.846  0.00  0.00    +0.201 A 
ATOM     12  C   UNL     1      -5.599 -10.261  15.062  0.00  0.00    +0.110 A 
ATOM     13  C   UNL     1      -4.520 -10.506  15.898  0.00  0.00    +0.155 A 
ATOM     14  C   UNL     1      -6.855 -10.009  15.631  0.00  0.00    +0.035 A 
ATOM     15  C   UNL     1      -4.583 -10.523  17.286  0.00  0.00    +0.049 A 
ATOM     16  C   UNL     1      -6.958 -10.017  17.030  0.00  0.00    -0.048 A 
ATOM     17  C   UNL     1      -5.843 -10.269  17.839  0.00  0.00    +0.007 A 
ATOM     18  C   UNL     1      -8.283  -9.751  17.667  0.00  0.00    +0.044 C 
ENDROOT
BRANCH   9   4
ATOM      2  N   UNL     1      -1.285  -9.649  11.466  0.00  0.00    -0.299 NA
ATOM      4  C   UNL     1      -2.902 -10.780  12.733  0.00  0.00    +0.090 C 
ATOM      5  C   UNL     1      -1.688  -9.850  12.860  0.00  0.00    +0.097 C 
ATOM      6  C   UNL     1      -3.447 -10.520  11.318  0.00  0.00    +0.029 C 
ATOM      7  C   UNL     1      -2.537  -9.446  10.737  0.00  0.00    +0.085 C 
BRANCH   2   8
ATOM      8  C   UNL     1      -0.364  -8.533  11.310  0.00  0.00    +0.050 C 
ATOM     10  C   UNL     1       0.930  -9.003  10.651  0.00  0.00    +0.024 C 
ATOM     11  C   UNL     1      -0.089  -7.908  12.673  0.00  0.00    +0.024 C 
ENDBRANCH   2   8
ENDBRANCH   9   4
TORSDOF 2
ENDMDL
MODEL 4
REMARK VINA RESULT:      -4.0      4.400      6.126
REMARK  Name = 45784200
REMARK  5 active torsions:
REMARK  status: ('A' for Active; 'I' for Inactive)
REMARK    1  A    between atoms: N_2  and  C_8
REMARK    2  A    between atoms: C_4  and  C_9
REMARK    3  A    between atoms: C_8  and  C_10
REMARK    4  A    between atoms: C_8  and  C_11
REMARK    5  A    between atoms: C_16  and  C_18
REMARK                            x       y       z     vdW  Elec       q    Type
REMARK                         _______ _______ _______ _____ _____    ______ ____
ROOT
ATOM      1  O   UNL     1      -5.124 -10.623  11.191  0.00  0.00    -0.439 OA
ATOM      3  N   UNL     1      -4.598  -9.146   9.554  0.00  0.00    -0.213 NA
ATOM      9  C   UNL     1      -5.520  -9.910  10.100  0.00  0.00    +0.201 A 
ATOM     12  C   UNL     1      -3.496  -9.367  10.345  0.00  0.00    +0.110 A 
ATOM     13  C   UNL     1      -3.814 -10.270  11.347  0.00  0.00    +0.155 A 
ATOM     14  C   UNL     1      -2.195  -8.848  10.287  0.00  0.00    +0.035 A 
ATOM     15  C   UNL     1      -2.929 -10.715  12.322  0.00  0.00    +0.049 A 
ATOM     16  C   UNL     1      -1.272  -9.274  11.254  0.00  0.00    -0.048 A 
ATOM     17  C   UNL     1      -1.635 -10.189  12.250  0.00  0.00    +0.007 A 
ATOM     18  C   UNL     1       0.123  -8.740  11.219  0.00  0.00    +0.044 C 
ENDROOT
BRANCH   9   4
ATOM      2  N   UNL     1      -8.855  -8.928   8.944  0.00  0.00    -0.299 NA
ATOM      4  C   UNL     1      -6.958 -10.096   9.675  0.00  0.00    +0.090 C 
ATOM      5  C   UNL     1      -7.423  -9.043   8.660  0.00  0.00    +0.097 C 
ATOM      6  C   UNL     1      -7.986 -10.018  10.818  0.00  0.00    +0.029 C 
ATOM      7  C   UNL     1      -8.951  -8.915  10.404  0.00  0.00    +0.085 C 
BRANCH   2   8
ATOM      8  C   UNL     1      -9.448  -7.745   8.339  0.00  0.00    +0.050 C 
ATOM     10  C   UNL     1      -8.385  -6.672   8.124  0.00  0.00    +0.024 C 
ATOM     11  C   UNL     1     -10.574  -7.230   9.228  0.00  0.00    +0.024 C 
ENDBRANCH   2   8
ENDBRANCH   9   4
TORSDOF 2
ENDMDL
MODEL 5
REMARK VINA RESULT:      -3.7     14.725     16.483
REMARK  Name = 45784200
REMARK  5 active torsions:
REMARK  status: ('A' for Active; 'I' for Inactive)
REMARK    1  A    between atoms: N_2  and  C_8
REMARK    2  A    between atoms: C_4  and  C_9
REMARK    3  A    between atoms: C_8  and  C_10
REMARK    4  A    between atoms: C_8  and  C_11
REMARK    5  A    between atoms: C_16  and  C_18
REMARK                            x       y       z     vdW  Elec       q    Type
REMARK                         _______ _______ _______ _____ _____    ______ ____
ROOT
ATOM      1  O   UNL     1      -2.739   0.622  24.963  0.00  0.00    -0.439 OA
ATOM      3  N   UNL     1      -1.796   2.650  25.335  0.00  0.00    -0.213 NA
ATOM      9  C   UNL     1      -1.608   1.365  25.123  0.00  0.00    +0.201 A 
ATOM     12  C   UNL     1      -3.165   2.776  25.316  0.00  0.00    +0.110 A 
ATOM     13  C   UNL     1      -3.744   1.537  25.089  0.00  0.00    +0.155 A 
ATOM     14  C   UNL     1      -3.995   3.894  25.480  0.00  0.00    +0.035 A 
ATOM     15  C   UNL     1      -5.112   1.306  25.010  0.00  0.00    +0.049 A 
ATOM     16  C   UNL     1      -5.382   3.700  25.407  0.00  0.00    -0.048 A 
ATOM     17  C   UNL     1      -5.927   2.431  25.176  0.00  0.00    +0.007 A 
ATOM     18  C   UNL     1      -6.294   4.871  25.579  0.00  0.00    +0.044 C 
ENDROOT
BRANCH   9   4
ATOM      2  N   UNL     1       1.529   0.209  23.623  0.00  0.00    -0.299 NA
ATOM      4  C   UNL     1      -0.302   0.609  25.032  0.00  0.00    +0.090 C 
ATOM      5  C   UNL     1       0.741   1.321  24.160  0.00  0.00    +0.097 C 
ATOM      6  C   UNL     1      -0.413  -0.804  24.433  0.00  0.00    +0.029 C 
ATOM      7  C   UNL     1       0.544  -0.805  23.249  0.00  0.00    +0.085 C 
BRANCH   2   8
ATOM      8  C   UNL     1       2.365   0.611  22.502  0.00  0.00    +0.050 C 
ATOM     10  C   UNL     1       2.200  -0.366  21.342  0.00  0.00    +0.024 C 
ATOM     11  C   UNL     1       3.819   0.685  22.954  0.00  0.00    +0.024 C 
ENDBRANCH   2   8
ENDBRANCH   9   4
TORSDOF 2
ENDMDL
MODEL 6
REMARK VINA RESULT:      -3.3     14.658     16.426
REMARK  Name = 45784200
REMARK  5 active torsions:
REMARK  status: ('A' for Active; 'I' for Inactive)
REMARK    1  A    between atoms: N_2  and  C_8
REMARK    2  A    between atoms: C_4  and  C_9
REMARK    3  A    between atoms: C_8  and  C_10
REMARK    4  A    between atoms: C_8  and  C_11
REMARK    5  A    between atoms: C_16  and  C_18
REMARK                            x       y       z     vdW  Elec       q    Type
REMARK                         _______ _______ _______ _____ _____    ______ ____
ROOT
ATOM      1  O   UNL     1      -0.161   1.877  24.571  0.00  0.00    -0.439 OA
ATOM      3  N   UNL     1      -1.869   0.499  24.008  0.00  0.00    -0.213 NA
ATOM      9  C   UNL     1      -0.568   0.684  24.054  0.00  0.00    +0.201 A 
ATOM     12  C   UNL     1      -2.374   1.663  24.537  0.00  0.00    +0.110 A 
ATOM     13  C   UNL     1      -1.331   2.509  24.882  0.00  0.00    +0.155 A 
ATOM     14  C   UNL     1      -3.692   2.085  24.760  0.00  0.00    +0.035 A 
ATOM     15  C   UNL     1      -1.488   3.770  25.444  0.00  0.00    +0.049 A 
ATOM     16  C   UNL     1      -3.891   3.352  25.326  0.00  0.00    -0.048 A 
ATOM     17  C   UNL     1      -2.809   4.176  25.660  0.00  0.00    +0.007 A 
ATOM     18  C   UNL     1      -5.284   3.831  25.576  0.00  0.00    +0.044 C 
ENDROOT
BRANCH   9   4
ATOM      2  N   UNL     1       2.705  -0.297  22.731  0.00  0.00    -0.299 NA
ATOM      4  C   UNL     1       0.531  -0.253  23.610  0.00  0.00    +0.090 C 
ATOM      5  C   UNL     1       1.935   0.338  23.803  0.00  0.00    +0.097 C 
ATOM      6  C   UNL     1       0.478  -0.657  22.126  0.00  0.00    +0.029 C 
ATOM      7  C   UNL     1       1.831  -0.250  21.559  0.00  0.00    +0.085 C 
BRANCH   2   8
ATOM      8  C   UNL     1       3.981   0.362  22.498  0.00  0.00    +0.050 C 
ATOM     10  C   UNL     1       5.033  -0.165  23.470  0.00  0.00    +0.024 C 
ATOM     11  C   UNL     1       3.807   1.870  22.644  0.00  0.00    +0.024 C 
ENDBRANCH   2   8
ENDBRANCH   9   4
TORSDOF 2
ENDMDL
MODEL 7
REMARK VINA RESULT:      -3.0     15.023     17.067
REMARK  Name = 45784200
REMARK  5 active torsions:
REMARK  status: ('A' for Active; 'I' for Inactive)
REMARK    1  A    between atoms: N_2  and  C_8
REMARK    2  A    between atoms: C_4  and  C_9
REMARK    3  A    between atoms: C_8  and  C_10
REMARK    4  A    between atoms: C_8  and  C_11
REMARK    5  A    between atoms: C_16  and  C_18
REMARK                            x       y       z     vdW  Elec       q    Type
REMARK                         _______ _______ _______ _____ _____    ______ ____
ROOT
ATOM      1  O   UNL     1      -0.982   0.981  24.031  0.00  0.00    -0.439 OA
ATOM      3  N   UNL     1       0.500   2.552  24.721  0.00  0.00    -0.213 NA
ATOM      9  C   UNL     1      -0.741   2.117  24.744  0.00  0.00    +0.201 A 
ATOM     12  C   UNL     1       1.142   1.632  23.926  0.00  0.00    +0.110 A 
ATOM     13  C   UNL     1       0.238   0.670  23.502  0.00  0.00    +0.155 A 
ATOM     14  C   UNL     1       2.479   1.535  23.515  0.00  0.00    +0.035 A 
ATOM     15  C   UNL     1       0.555  -0.407  22.684  0.00  0.00    +0.049 A 
ATOM     16  C   UNL     1       2.838   0.462  22.688  0.00  0.00    -0.048 A 
ATOM     17  C   UNL     1       1.893  -0.490  22.282  0.00  0.00    +0.007 A 
ATOM     18  C   UNL     1       4.254   0.331  22.232  0.00  0.00    +0.044 C 
ENDROOT
BRANCH   9   4
ATOM      2  N   UNL     1      -4.277   2.734  25.482  0.00  0.00    -0.299 NA
ATOM      4  C   UNL     1      -1.932   2.712  25.460  0.00  0.00    +0.090 C 
ATOM      5  C   UNL     1      -3.159   1.789  25.449  0.00  0.00    +0.097 C 
ATOM      6  C   UNL     1      -2.440   4.042  24.875  0.00  0.00    +0.029 C 
ATOM      7  C   UNL     1      -3.905   3.792  24.543  0.00  0.00    +0.085 C 
BRANCH   2   8
ATOM      8  C   UNL     1      -5.544   2.107  25.137  0.00  0.00    +0.050 C 
ATOM     10  C   UNL     1      -6.463   2.065  26.354  0.00  0.00    +0.024 C 
ATOM     11  C   UNL     1      -5.285   0.704  24.598  0.00  0.00    +0.024 C 
ENDBRANCH   2   8
ENDBRANCH   9   4
TORSDOF 2
ENDMDL
MODEL 8
REMARK VINA RESULT:      -2.8      1.838      2.509
REMARK  Name = 45784200
REMARK  5 active torsions:
REMARK  status: ('A' for Active; 'I' for Inactive)
REMARK    1  A    between atoms: N_2  and  C_8
REMARK    2  A    between atoms: C_4  and  C_9
REMARK    3  A    between atoms: C_8  and  C_10
REMARK    4  A    between atoms: C_8  and  C_11
REMARK    5  A    between atoms: C_16  and  C_18
REMARK                            x       y       z     vdW  Elec       q    Type
REMARK                         _______ _______ _______ _____ _____    ______ ____
ROOT
ATOM      1  O   UNL     1      -6.100  -9.980  14.241  0.00  0.00    -0.439 OA
ATOM      3  N   UNL     1      -8.170  -9.805  13.335  0.00  0.00    -0.213 NA
ATOM      9  C   UNL     1      -6.885  -9.988  13.127  0.00  0.00    +0.201 A 
ATOM     12  C   UNL     1      -8.253  -9.662  14.700  0.00  0.00    +0.110 A 
ATOM     13  C   UNL     1      -6.988  -9.769  15.257  0.00  0.00    +0.155 A 
ATOM     14  C   UNL     1      -9.350  -9.442  15.544  0.00  0.00    +0.035 A 
ATOM     15  C   UNL     1      -6.711  -9.672  16.615  0.00  0.00    +0.049 A 
ATOM     16  C   UNL     1      -9.111  -9.338  16.922  0.00  0.00    -0.048 A 
ATOM     17  C   UNL     1      -7.816  -9.451  17.445  0.00  0.00    +0.007 A 
ATOM     18  C   UNL     1     -10.259  -9.102  17.848  0.00  0.00    +0.044 C 
ENDROOT
BRANCH   9   4
ATOM      2  N   UNL     1      -4.040 -10.194  10.826  0.00  0.00    -0.299 NA
ATOM      4  C   UNL     1      -6.167 -10.207  11.815  0.00  0.00    +0.090 C 
ATOM      5  C   UNL     1      -4.736 -10.732  11.998  0.00  0.00    +0.097 C 
ATOM      6  C   UNL     1      -6.012  -8.948  10.944  0.00  0.00    +0.029 C 
ATOM      7  C   UNL     1      -4.514  -8.815  10.707  0.00  0.00    +0.085 C 
BRANCH   2   8
ATOM      8  C   UNL     1      -2.593 -10.274  10.955  0.00  0.00    +0.050 C 
ATOM     10  C   UNL     1      -2.212 -10.781  12.343  0.00  0.00    +0.024 C 
ATOM     11  C   UNL     1      -1.983  -8.903  10.686  0.00  0.00    +0.024 C 
ENDBRANCH   2   8
ENDBRANCH   9   4
TORSDOF 2
ENDMDL
MODEL 9
REMARK VINA RESULT:      -1.5      2.756      4.154
REMARK  Name = 45784200
REMARK  5 active torsions:
REMARK  status: ('A' for Active; 'I' for Inactive)
REMARK    1  A    between atoms: N_2  and  C_8
REMARK    2  A    between atoms: C_4  and  C_9
REMARK    3  A    between atoms: C_8  and  C_10
REMARK    4  A    between atoms: C_8  and  C_11
REMARK    5  A    between atoms: C_16  and  C_18
REMARK                            x       y       z     vdW  Elec       q    Type
REMARK                         _______ _______ _______ _____ _____    ______ ____
ROOT
ATOM      1  O   UNL     1      -5.290 -10.191  12.863  0.00  0.00    -0.439 OA
ATOM      3  N   UNL     1      -6.615 -10.770  11.117  0.00  0.00    -0.213 NA
ATOM      9  C   UNL     1      -5.399 -10.501  11.540  0.00  0.00    +0.201 A 
ATOM     12  C   UNL     1      -7.382 -10.629  12.249  0.00  0.00    +0.110 A 
ATOM     13  C   UNL     1      -6.574 -10.274  13.318  0.00  0.00    +0.155 A 
ATOM     14  C   UNL     1      -8.760 -10.781  12.460  0.00  0.00    +0.035 A 
ATOM     15  C   UNL     1      -7.028 -10.052  14.613  0.00  0.00    +0.049 A 
ATOM     16  C   UNL     1      -9.256 -10.564  13.753  0.00  0.00    -0.048 A 
ATOM     17  C   UNL     1      -8.405 -10.207  14.807  0.00  0.00    +0.007 A 
ATOM     18  C   UNL     1     -10.719 -10.717  14.011  0.00  0.00    +0.044 C 
ENDROOT
BRANCH   9   4
ATOM      2  N   UNL     1      -1.963  -9.552  10.695  0.00  0.00    -0.299 NA
ATOM      4  C   UNL     1      -4.110 -10.492  10.751  0.00  0.00    +0.090 C 
ATOM      5  C   UNL     1      -2.877 -10.220  11.624  0.00  0.00    +0.097 C 
ATOM      6  C   UNL     1      -4.041  -9.432   9.637  0.00  0.00    +0.029 C 
ATOM      7  C   UNL     1      -2.800  -8.609   9.953  0.00  0.00    +0.085 C 
BRANCH   2   8
ATOM      8  C   UNL     1      -0.859  -8.894  11.379  0.00  0.00    +0.050 C 
ATOM     10  C   UNL     1       0.468  -9.268  10.724  0.00  0.00    +0.024 C 
ATOM     11  C   UNL     1      -0.871  -9.285  12.853  0.00  0.00    +0.024 C 
ENDBRANCH   2   8
ENDBRANCH   9   4
TORSDOF 2
ENDMDL
MODEL 10
REMARK VINA RESULT:      -1.5     14.013     16.363
REMARK  Name = 45784200
REMARK  5 active torsions:
REMARK  status: ('A' for Active; 'I' for Inactive)
REMARK    1  A    between atoms: N_2  and  C_8
REMARK    2  A    between atoms: C_4  and  C_9
REMARK    3  A    between atoms: C_8  and  C_10
REMARK    4  A    between atoms: C_8  and  C_11
REMARK    5  A    between atoms: C_16  and  C_18
REMARK                            x       y       z     vdW  Elec       q    Type
REMARK                         _______ _______ _______ _____ _____    ______ ____
ROOT
ATOM      1  O   UNL     1      -2.610   0.690  24.757  0.00  0.00    -0.439 OA
ATOM      3  N   UNL     1      -0.922  -0.778  25.126  0.00  0.00    -0.213 NA
ATOM      9  C   UNL     1      -1.318   0.476  25.135  0.00  0.00    +0.201 A 
ATOM     12  C   UNL     1      -2.040  -1.459  24.707  0.00  0.00    +0.110 A 
ATOM     13  C   UNL     1      -3.074  -0.564  24.480  0.00  0.00    +0.155 A 
ATOM     14  C   UNL     1      -2.266  -2.826  24.494  0.00  0.00    +0.035 A 
ATOM     15  C   UNL     1      -4.346  -0.918  24.048  0.00  0.00    +0.049 A 
ATOM     16  C   UNL     1      -3.538  -3.223  24.057  0.00  0.00    -0.048 A 
ATOM     17  C   UNL     1      -4.556  -2.286  23.839  0.00  0.00    +0.007 A 
ATOM     18  C   UNL     1      -3.811  -4.672  23.819  0.00  0.00    +0.044 C 
ENDROOT
BRANCH   9   4
ATOM      2  N   UNL     1      -0.591   4.052  25.465  0.00  0.00    -0.299 NA
ATOM      4  C   UNL     1      -0.528   1.709  25.511  0.00  0.00    +0.090 C 
ATOM      5  C   UNL     1      -1.420   2.910  25.854  0.00  0.00    +0.097 C 
ATOM      6  C   UNL     1       0.421   2.228  24.416  0.00  0.00    +0.029 C 
ATOM      7  C   UNL     1      -0.002   3.672  24.182  0.00  0.00    +0.085 C 
BRANCH   2   8
ATOM      8  C   UNL     1      -1.354   5.289  25.381  0.00  0.00    +0.050 C 
ATOM     10  C   UNL     1      -2.831   5.019  25.657  0.00  0.00    +0.024 C 
ATOM     11  C   UNL     1      -1.159   5.912  24.003  0.00  0.00    +0.024 C 
ENDBRANCH   2   8
ENDBRANCH   9   4
TORSDOF 2
ENDMDL
