MODEL 1
REMARK VINA RESULT:       6.3      0.000      0.000
REMARK  Name = 11912001
REMARK  8 active torsions:
REMARK  status: ('A' for Active; 'I' for Inactive)
REMARK    1  A    between atoms: O_4  and  C_27
REMARK    2  A    between atoms: O_4  and  C_33
REMARK    3  A    between atoms: O_5  and  C_32
REMARK    4  A    between atoms: O_5  and  C_34
REMARK    5  A    between atoms: N_6  and  C_12
REMARK    6  A    between atoms: N_7  and  C_13
REMARK    7  A    between atoms: C_16  and  C_18
REMARK    8  A    between atoms: C_19  and  C_24
REMARK                            x       y       z     vdW  Elec       q    Type
REMARK                         _______ _______ _______ _____ _____    ______ ____
ROOT
ATOM      1  O   UNL     1      -4.106  -1.518  23.333  0.00  0.00    -0.370 OA
ATOM      2  O   UNL     1      -2.666  -1.338  26.096  0.00  0.00    -0.370 OA
ATOM     10  C   UNL     1      -2.831  -0.997  23.747  0.00  0.00    +0.171 C 
ATOM     11  C   UNL     1      -3.027  -0.357  25.108  0.00  0.00    +0.171 C 
ATOM     12  C   UNL     1      -1.861  -2.126  24.007  0.00  0.00    +0.130 C 
ATOM     13  C   UNL     1      -4.508  -0.069  25.172  0.00  0.00    +0.130 C 
ATOM     14  C   UNL     1      -5.099  -1.169  24.309  0.00  0.00    +0.185 C 
ATOM     15  C   UNL     1      -2.198  -2.522  25.434  0.00  0.00    +0.185 C 
ENDROOT
BRANCH  13   7
ATOM      7  N   UNL     1      -4.786   1.226  24.592  0.00  0.00    -0.306 N 
ATOM      8  N   UNL     1      -2.847   2.176  25.512  0.00  0.00    -0.214 NA
ATOM      9  N   UNL     1      -4.345   3.489  24.156  0.00  0.00    -0.223 NA
ATOM     17  C   UNL     1      -3.968   2.330  24.758  0.00  0.00    +0.216 A 
ATOM     19  C   UNL     1      -2.073   3.272  25.653  0.00  0.00    +0.076 A 
ATOM     22  C   UNL     1      -3.525   4.545  24.340  0.00  0.00    +0.116 A 
ATOM     23  C   UNL     1      -2.365   4.495  25.084  0.00  0.00    +0.048 A 
ATOM     36  H   UNL     1      -5.591   1.339  23.987  0.00  0.00    +0.149 HD
BRANCH  19  24
ATOM     24  C   UNL     1      -0.888   3.086  26.455  0.00  0.00    +0.001 A 
ATOM     28  C   UNL     1       0.372   3.081  25.853  0.00  0.00    +0.013 A 
ATOM     29  C   UNL     1      -0.997   2.910  27.836  0.00  0.00    +0.013 A 
ATOM     30  C   UNL     1       1.518   2.900  26.628  0.00  0.00    +0.046 A 
ATOM     31  C   UNL     1       0.149   2.730  28.612  0.00  0.00    +0.046 A 
ATOM     32  C   UNL     1       1.406   2.725  28.008  0.00  0.00    +0.120 A 
BRANCH  32   5
ATOM      5  O   UNL     1       2.523   2.548  28.764  0.00  0.00    -0.495 OA
ATOM     34  C   UNL     1       2.347   1.980  30.060  0.00  0.00    +0.277 C 
ENDBRANCH  32   5
ENDBRANCH  19  24
ENDBRANCH  13   7
BRANCH  12   6
ATOM      3  O   UNL     1      -0.968   0.440  23.075  0.00  0.00    -0.270 OA
ATOM      6  N   UNL     1      -0.494  -1.676  23.899  0.00  0.00    -0.304 N 
ATOM     16  C   UNL     1      -0.160  -0.412  23.436  0.00  0.00    +0.244 C 
ATOM     35  H   UNL     1       0.230  -2.366  24.069  0.00  0.00    +0.149 HD
BRANCH  16  18
ATOM     18  C   UNL     1       1.293  -0.111  23.359  0.00  0.00    +0.037 A 
ATOM     20  C   UNL     1       2.197  -1.145  23.494  0.00  0.00    +0.016 A 
ATOM     21  C   UNL     1       1.693   1.194  23.156  0.00  0.00    +0.016 A 
ATOM     25  C   UNL     1       3.560  -0.862  23.422  0.00  0.00    +0.046 A 
ATOM     26  C   UNL     1       3.058   1.476  23.085  0.00  0.00    +0.046 A 
ATOM     27  C   UNL     1       3.991   0.449  23.219  0.00  0.00    +0.120 A 
BRANCH  27   4
ATOM      4  O   UNL     1       5.321   0.725  23.150  0.00  0.00    -0.495 OA
ATOM     33  C   UNL     1       6.222  -0.328  23.492  0.00  0.00    +0.277 C 
ENDBRANCH  27   4
ENDBRANCH  16  18
ENDBRANCH  12   6
TORSDOF 6
ENDMDL
MODEL 2
REMARK VINA RESULT:       8.3      1.823      5.319
REMARK  Name = 11912001
REMARK  8 active torsions:
REMARK  status: ('A' for Active; 'I' for Inactive)
REMARK    1  A    between atoms: O_4  and  C_27
REMARK    2  A    between atoms: O_4  and  C_33
REMARK    3  A    between atoms: O_5  and  C_32
REMARK    4  A    between atoms: O_5  and  C_34
REMARK    5  A    between atoms: N_6  and  C_12
REMARK    6  A    between atoms: N_7  and  C_13
REMARK    7  A    between atoms: C_16  and  C_18
REMARK    8  A    between atoms: C_19  and  C_24
REMARK                            x       y       z     vdW  Elec       q    Type
REMARK                         _______ _______ _______ _____ _____    ______ ____
ROOT
ATOM      1  O   UNL     1      -5.644   2.626  25.898  0.00  0.00    -0.370 OA
ATOM      2  O   UNL     1      -3.401   3.300  23.837  0.00  0.00    -0.370 OA
ATOM     10  C   UNL     1      -4.210   2.543  25.941  0.00  0.00    +0.171 C 
ATOM     11  C   UNL     1      -3.742   2.109  24.566  0.00  0.00    +0.171 C 
ATOM     12  C   UNL     1      -3.608   3.918  26.118  0.00  0.00    +0.130 C 
ATOM     13  C   UNL     1      -4.954   1.448  23.954  0.00  0.00    +0.130 C 
ATOM     14  C   UNL     1      -6.105   2.190  24.610  0.00  0.00    +0.185 C 
ATOM     15  C   UNL     1      -3.566   4.439  24.693  0.00  0.00    +0.185 C 
ENDROOT
BRANCH  13   7
ATOM      7  N   UNL     1      -4.990   0.048  24.315  0.00  0.00    -0.306 N 
ATOM      8  N   UNL     1      -2.668  -0.186  24.076  0.00  0.00    -0.214 NA
ATOM      9  N   UNL     1      -4.039  -2.056  24.732  0.00  0.00    -0.223 NA
ATOM     17  C   UNL     1      -3.865  -0.755  24.377  0.00  0.00    +0.216 A 
ATOM     19  C   UNL     1      -1.592  -0.998  24.145  0.00  0.00    +0.076 A 
ATOM     22  C   UNL     1      -2.922  -2.811  24.781  0.00  0.00    +0.116 A 
ATOM     23  C   UNL     1      -1.660  -2.332  24.496  0.00  0.00    +0.048 A 
ATOM     36  H   UNL     1      -5.870  -0.373  24.591  0.00  0.00    +0.149 HD
BRANCH  19  24
ATOM     24  C   UNL     1      -0.332  -0.374  23.824  0.00  0.00    +0.001 A 
ATOM     28  C   UNL     1      -0.192   1.013  23.914  0.00  0.00    +0.013 A 
ATOM     29  C   UNL     1       0.754  -1.155  23.421  0.00  0.00    +0.013 A 
ATOM     30  C   UNL     1       1.026   1.616  23.603  0.00  0.00    +0.046 A 
ATOM     31  C   UNL     1       1.974  -0.552  23.110  0.00  0.00    +0.046 A 
ATOM     32  C   UNL     1       2.110   0.833  23.201  0.00  0.00    +0.120 A 
BRANCH  32   5
ATOM      5  O   UNL     1       3.298   1.421  22.896  0.00  0.00    -0.495 OA
ATOM     34  C   UNL     1       4.475   0.632  23.062  0.00  0.00    +0.277 C 
ENDBRANCH  32   5
ENDBRANCH  19  24
ENDBRANCH  13   7
BRANCH  12   6
ATOM      3  O   UNL     1      -1.928   1.591  26.242  0.00  0.00    -0.270 OA
ATOM      6  N   UNL     1      -2.284   3.840  26.686  0.00  0.00    -0.304 N 
ATOM     16  C   UNL     1      -1.546   2.666  26.699  0.00  0.00    +0.244 C 
ATOM     35  H   UNL     1      -1.950   4.659  27.183  0.00  0.00    +0.149 HD
BRANCH  16  18
ATOM     18  C   UNL     1      -0.210   2.745  27.344  0.00  0.00    +0.037 A 
ATOM     20  C   UNL     1       0.893   3.019  26.562  0.00  0.00    +0.016 A 
ATOM     21  C   UNL     1      -0.114   2.538  28.705  0.00  0.00    +0.016 A 
ATOM     25  C   UNL     1       2.147   3.092  27.168  0.00  0.00    +0.046 A 
ATOM     26  C   UNL     1       1.140   2.611  29.311  0.00  0.00    +0.046 A 
ATOM     27  C   UNL     1       2.271   2.887  28.542  0.00  0.00    +0.120 A 
BRANCH  27   4
ATOM      4  O   UNL     1       3.495   2.957  29.133  0.00  0.00    -0.495 OA
ATOM     33  C   UNL     1       4.574   2.297  28.472  0.00  0.00    +0.277 C 
ENDBRANCH  27   4
ENDBRANCH  16  18
ENDBRANCH  12   6
TORSDOF 6
ENDMDL
MODEL 3
REMARK VINA RESULT:       9.1     14.265     17.042
REMARK  Name = 11912001
REMARK  8 active torsions:
REMARK  status: ('A' for Active; 'I' for Inactive)
REMARK    1  A    between atoms: O_4  and  C_27
REMARK    2  A    between atoms: O_4  and  C_33
REMARK    3  A    between atoms: O_5  and  C_32
REMARK    4  A    between atoms: O_5  and  C_34
REMARK    5  A    between atoms: N_6  and  C_12
REMARK    6  A    between atoms: N_7  and  C_13
REMARK    7  A    between atoms: C_16  and  C_18
REMARK    8  A    between atoms: C_19  and  C_24
REMARK                            x       y       z     vdW  Elec       q    Type
REMARK                         _______ _______ _______ _____ _____    ______ ____
ROOT
ATOM      1  O   UNL     1      -3.373  -8.872  12.250  0.00  0.00    -0.370 OA
ATOM      2  O   UNL     1      -0.905 -10.780  12.154  0.00  0.00    -0.370 OA
ATOM     10  C   UNL     1      -2.007  -8.739  12.679  0.00  0.00    +0.171 C 
ATOM     11  C   UNL     1      -1.572 -10.086  13.222  0.00  0.00    +0.171 C 
ATOM     12  C   UNL     1      -1.102  -8.510  11.492  0.00  0.00    +0.130 C 
ATOM     13  C   UNL     1      -2.867 -10.781  13.571  0.00  0.00    +0.130 C 
ATOM     14  C   UNL     1      -3.842 -10.191  12.568  0.00  0.00    +0.185 C 
ATOM     15  C   UNL     1      -0.843  -9.925  11.004  0.00  0.00    +0.185 C 
ENDROOT
BRANCH  13   7
ATOM      7  N   UNL     1      -3.266 -10.436  14.918  0.00  0.00    -0.306 N 
ATOM      8  N   UNL     1      -5.531 -10.284  14.325  0.00  0.00    -0.214 NA
ATOM      9  N   UNL     1      -4.815  -9.880  16.590  0.00  0.00    -0.223 NA
ATOM     17  C   UNL     1      -4.577 -10.193  15.289  0.00  0.00    +0.216 A 
ATOM     19  C   UNL     1      -6.798 -10.040  14.721  0.00  0.00    +0.076 A 
ATOM     22  C   UNL     1      -6.103  -9.648  16.917  0.00  0.00    +0.116 A 
ATOM     23  C   UNL     1      -7.147  -9.715  16.017  0.00  0.00    +0.048 A 
ATOM     36  H   UNL     1      -2.570 -10.416  15.654  0.00  0.00    +0.149 HD
BRANCH  19  24
ATOM     24  C   UNL     1      -7.795 -10.143  13.684  0.00  0.00    +0.001 A 
ATOM     28  C   UNL     1      -7.459  -9.860  12.358  0.00  0.00    +0.013 A 
ATOM     29  C   UNL     1      -9.100 -10.526  14.002  0.00  0.00    +0.013 A 
ATOM     30  C   UNL     1      -8.424  -9.959  11.355  0.00  0.00    +0.046 A 
ATOM     31  C   UNL     1     -10.065 -10.625  12.999  0.00  0.00    +0.046 A 
ATOM     32  C   UNL     1      -9.727 -10.342  11.676  0.00  0.00    +0.120 A 
BRANCH  32   5
ATOM      5  O   UNL     1     -10.668 -10.438  10.698  0.00  0.00    -0.495 OA
ATOM     34  C   UNL     1     -10.403  -9.758   9.472  0.00  0.00    +0.277 C 
ENDBRANCH  32   5
ENDBRANCH  19  24
ENDBRANCH  13   7
BRANCH  12   6
ATOM      3  O   UNL     1       1.463  -8.770  10.225  0.00  0.00    -0.270 OA
ATOM      6  N   UNL     1       0.125  -7.860  11.886  0.00  0.00    -0.304 N 
ATOM     16  C   UNL     1       1.320  -8.048  11.208  0.00  0.00    +0.244 C 
ATOM     35  H   UNL     1       0.107  -7.341  12.757  0.00  0.00    +0.149 HD
BRANCH  16  18
ATOM     18  C   UNL     1       2.498  -7.328  11.756  0.00  0.00    +0.037 A 
ATOM     20  C   UNL     1       2.335  -6.040  12.222  0.00  0.00    +0.016 A 
ATOM     21  C   UNL     1       3.719  -7.971  11.780  0.00  0.00    +0.016 A 
ATOM     25  C   UNL     1       3.442  -5.364  12.736  0.00  0.00    +0.046 A 
ATOM     26  C   UNL     1       4.826  -7.294  12.293  0.00  0.00    +0.046 A 
ATOM     27  C   UNL     1       4.688  -5.991  12.770  0.00  0.00    +0.120 A 
BRANCH  27   4
ATOM      4  O   UNL     1       5.767  -5.331  13.269  0.00  0.00    -0.495 OA
ATOM     33  C   UNL     1       6.812  -6.125  13.832  0.00  0.00    +0.277 C 
ENDBRANCH  27   4
ENDBRANCH  16  18
ENDBRANCH  12   6
TORSDOF 6
ENDMDL
