MODEL 1
REMARK VINA RESULT:      -5.2      0.000      0.000
REMARK  Name = 26744411
REMARK  6 active torsions:
REMARK  status: ('A' for Active; 'I' for Inactive)
REMARK    1  A    between atoms: O_2  and  C_9
REMARK    2  A    between atoms: N_4  and  C_11
REMARK    3  A    between atoms: C_7  and  C_12
REMARK    4  A    between atoms: C_11  and  C_13
REMARK    5  A    between atoms: C_11  and  C_14
REMARK    6  A    between atoms: C_15  and  C_16
REMARK                            x       y       z     vdW  Elec       q    Type
REMARK                         _______ _______ _______ _____ _____    ______ ____
ROOT
ATOM      3  O   UNL     1      -3.615 -10.507  13.287  0.00  0.00    -0.336 OA
ATOM      5  N   UNL     1      -5.765 -10.423  13.908  0.00  0.00    -0.190 NA
ATOM      6  N   UNL     1      -3.616 -10.506  14.688  0.00  0.00    -0.056 NA
ATOM     12  C   UNL     1      -4.920 -10.456  12.909  0.00  0.00    +0.245 A 
ATOM     15  C   UNL     1      -4.919 -10.455  14.978  0.00  0.00    +0.202 A 
ENDROOT
BRANCH  15  16
ATOM      1  F   UNL     1      -6.822 -10.372  20.206  0.00  0.00    -0.205 F 
ATOM     16  C   UNL     1      -5.410 -10.434  16.326  0.00  0.00    +0.023 A 
ATOM     17  C   UNL     1      -6.731 -10.066  16.581  0.00  0.00    +0.014 A 
ATOM     18  C   UNL     1      -4.565 -10.780  17.380  0.00  0.00    +0.014 A 
ATOM     19  C   UNL     1      -7.207 -10.046  17.893  0.00  0.00    +0.039 A 
ATOM     20  C   UNL     1      -5.042 -10.760  18.692  0.00  0.00    +0.039 A 
ATOM     21  C   UNL     1      -6.364 -10.393  18.948  0.00  0.00    +0.123 A 
ENDBRANCH  15  16
BRANCH  12   7
ATOM      4  N   UNL     1      -6.405  -9.684  11.068  0.00  0.00    -0.286 NA
ATOM      7  C   UNL     1      -5.190 -10.447  11.420  0.00  0.00    +0.149 C 
ATOM      8  C   UNL     1      -4.060  -9.781  10.613  0.00  0.00    +0.061 C 
ATOM      9  C   UNL     1      -4.744  -8.686   9.806  0.00  0.00    +0.130 C 
ATOM     10  C   UNL     1      -6.185  -9.152   9.724  0.00  0.00    +0.116 C 
BRANCH   4  11
ATOM     11  C   UNL     1      -7.625 -10.475  11.151  0.00  0.00    +0.051 C 
ATOM     13  C   UNL     1      -8.189 -10.729   9.756  0.00  0.00    +0.024 C 
ATOM     14  C   UNL     1      -8.641  -9.751  12.029  0.00  0.00    +0.024 C 
ENDBRANCH   4  11
BRANCH   9   2
ATOM      2  O   UNL     1      -4.158  -8.568   8.523  0.00  0.00    -0.390 OA
ATOM     22  H   UNL     1      -4.601  -9.206   7.940  0.00  0.00    +0.210 HD
ENDBRANCH   9   2
ENDBRANCH  12   7
TORSDOF 4
ENDMDL
MODEL 2
REMARK VINA RESULT:      -5.0      1.977      2.524
REMARK  Name = 26744411
REMARK  6 active torsions:
REMARK  status: ('A' for Active; 'I' for Inactive)
REMARK    1  A    between atoms: O_2  and  C_9
REMARK    2  A    between atoms: N_4  and  C_11
REMARK    3  A    between atoms: C_7  and  C_12
REMARK    4  A    between atoms: C_11  and  C_13
REMARK    5  A    between atoms: C_11  and  C_14
REMARK    6  A    between atoms: C_15  and  C_16
REMARK                            x       y       z     vdW  Elec       q    Type
REMARK                         _______ _______ _______ _____ _____    ______ ____
ROOT
ATOM      3  O   UNL     1      -2.279 -10.508  14.955  0.00  0.00    -0.336 OA
ATOM      5  N   UNL     1      -4.444 -10.658  14.403  0.00  0.00    -0.190 NA
ATOM      6  N   UNL     1      -2.991 -10.495  16.161  0.00  0.00    -0.056 NA
ATOM     12  C   UNL     1      -3.210 -10.607  13.969  0.00  0.00    +0.245 A 
ATOM     15  C   UNL     1      -4.259 -10.587  15.752  0.00  0.00    +0.202 A 
ENDROOT
BRANCH  15  16
ATOM      1  F   UNL     1      -8.549 -10.671  19.295  0.00  0.00    -0.205 F 
ATOM     16  C   UNL     1      -5.365 -10.609  16.666  0.00  0.00    +0.023 A 
ATOM     17  C   UNL     1      -6.665 -10.760  16.183  0.00  0.00    +0.014 A 
ATOM     18  C   UNL     1      -5.140 -10.478  18.035  0.00  0.00    +0.014 A 
ATOM     19  C   UNL     1      -7.740 -10.781  17.072  0.00  0.00    +0.039 A 
ATOM     20  C   UNL     1      -6.215 -10.498  18.925  0.00  0.00    +0.039 A 
ATOM     21  C   UNL     1      -7.516 -10.651  18.442  0.00  0.00    +0.123 A 
ENDBRANCH  15  16
BRANCH  12   7
ATOM      4  N   UNL     1      -3.461  -9.773  11.638  0.00  0.00    -0.286 NA
ATOM      7  C   UNL     1      -2.687 -10.641  12.549  0.00  0.00    +0.149 C 
ATOM      8  C   UNL     1      -1.237 -10.135  12.436  0.00  0.00    +0.061 C 
ATOM      9  C   UNL     1      -1.289  -9.015  11.405  0.00  0.00    +0.130 C 
ATOM     10  C   UNL     1      -2.533  -9.332  10.598  0.00  0.00    +0.116 C 
BRANCH   4  11
ATOM     11  C   UNL     1      -4.637 -10.428  11.081  0.00  0.00    +0.051 C 
ATOM     13  C   UNL     1      -4.404 -10.778   9.614  0.00  0.00    +0.024 C 
ATOM     14  C   UNL     1      -5.850  -9.516  11.241  0.00  0.00    +0.024 C 
ENDBRANCH   4  11
BRANCH   9   2
ATOM      2  O   UNL     1      -0.126  -9.020  10.600  0.00  0.00    -0.390 OA
ATOM     22  H   UNL     1      -0.387  -8.736   9.708  0.00  0.00    +0.210 HD
ENDBRANCH   9   2
ENDBRANCH  12   7
TORSDOF 4
ENDMDL
MODEL 3
REMARK VINA RESULT:      -4.4      2.072      2.863
REMARK  Name = 26744411
REMARK  6 active torsions:
REMARK  status: ('A' for Active; 'I' for Inactive)
REMARK    1  A    between atoms: O_2  and  C_9
REMARK    2  A    between atoms: N_4  and  C_11
REMARK    3  A    between atoms: C_7  and  C_12
REMARK    4  A    between atoms: C_11  and  C_13
REMARK    5  A    between atoms: C_11  and  C_14
REMARK    6  A    between atoms: C_15  and  C_16
REMARK                            x       y       z     vdW  Elec       q    Type
REMARK                         _______ _______ _______ _____ _____    ______ ____
ROOT
ATOM      3  O   UNL     1      -3.484 -10.608  14.869  0.00  0.00    -0.336 OA
ATOM      5  N   UNL     1      -5.514 -10.479  13.931  0.00  0.00    -0.190 NA
ATOM      6  N   UNL     1      -4.395 -10.481  15.926  0.00  0.00    -0.056 NA
ATOM     12  C   UNL     1      -4.225 -10.598  13.730  0.00  0.00    +0.245 A 
ATOM     15  C   UNL     1      -5.568 -10.411  15.292  0.00  0.00    +0.202 A 
ENDROOT
BRANCH  15  16
ATOM      1  F   UNL     1     -10.401  -9.870  17.997  0.00  0.00    -0.205 F 
ATOM     16  C   UNL     1      -6.815 -10.272  15.989  0.00  0.00    +0.023 A 
ATOM     17  C   UNL     1      -6.880 -10.529  17.359  0.00  0.00    +0.014 A 
ATOM     18  C   UNL     1      -7.960  -9.879  15.298  0.00  0.00    +0.014 A 
ATOM     19  C   UNL     1      -8.092 -10.393  18.036  0.00  0.00    +0.039 A 
ATOM     20  C   UNL     1      -9.172  -9.744  15.975  0.00  0.00    +0.039 A 
ATOM     21  C   UNL     1      -9.238 -10.000  17.346  0.00  0.00    +0.123 A 
ENDBRANCH  15  16
BRANCH  12   7
ATOM      4  N   UNL     1      -3.978  -9.822  11.378  0.00  0.00    -0.286 NA
ATOM      7  C   UNL     1      -3.463 -10.724  12.428  0.00  0.00    +0.149 C 
ATOM      8  C   UNL     1      -1.976 -10.352  12.571  0.00  0.00    +0.061 C 
ATOM      9  C   UNL     1      -1.740  -9.265  11.530  0.00  0.00    +0.130 C 
ATOM     10  C   UNL     1      -2.843  -9.498  10.516  0.00  0.00    +0.116 C 
BRANCH   4  11
ATOM     11  C   UNL     1      -5.091 -10.390  10.629  0.00  0.00    +0.051 C 
ATOM     13  C   UNL     1      -4.639 -10.781   9.225  0.00  0.00    +0.024 C 
ATOM     14  C   UNL     1      -6.235  -9.381  10.575  0.00  0.00    +0.024 C 
ENDBRANCH   4  11
BRANCH   9   2
ATOM      2  O   UNL     1      -0.456  -9.398  10.948  0.00  0.00    -0.390 OA
ATOM     22  H   UNL     1       0.194  -9.383  11.670  0.00  0.00    +0.210 HD
ENDBRANCH   9   2
ENDBRANCH  12   7
TORSDOF 4
ENDMDL
MODEL 4
REMARK VINA RESULT:      -4.0      1.730      2.300
REMARK  Name = 26744411
REMARK  6 active torsions:
REMARK  status: ('A' for Active; 'I' for Inactive)
REMARK    1  A    between atoms: O_2  and  C_9
REMARK    2  A    between atoms: N_4  and  C_11
REMARK    3  A    between atoms: C_7  and  C_12
REMARK    4  A    between atoms: C_11  and  C_13
REMARK    5  A    between atoms: C_11  and  C_14
REMARK    6  A    between atoms: C_15  and  C_16
REMARK                            x       y       z     vdW  Elec       q    Type
REMARK                         _______ _______ _______ _____ _____    ______ ____
ROOT
ATOM      3  O   UNL     1      -5.124 -10.111  13.625  0.00  0.00    -0.336 OA
ATOM      5  N   UNL     1      -7.360 -10.050  13.519  0.00  0.00    -0.190 NA
ATOM      6  N   UNL     1      -5.575 -10.031  14.949  0.00  0.00    -0.056 NA
ATOM     12  C   UNL     1      -6.239 -10.117  12.847  0.00  0.00    +0.245 A 
ATOM     15  C   UNL     1      -6.903  -9.999  14.803  0.00  0.00    +0.202 A 
ENDROOT
BRANCH  15  16
ATOM      1  F   UNL     1     -10.382  -9.674  19.133  0.00  0.00    -0.205 F 
ATOM     16  C   UNL     1      -7.800  -9.915  15.919  0.00  0.00    +0.023 A 
ATOM     17  C   UNL     1      -7.444 -10.481  17.144  0.00  0.00    +0.014 A 
ATOM     18  C   UNL     1      -9.027  -9.268  15.780  0.00  0.00    +0.014 A 
ATOM     19  C   UNL     1      -8.317 -10.399  18.229  0.00  0.00    +0.039 A 
ATOM     20  C   UNL     1      -9.901  -9.186  16.865  0.00  0.00    +0.039 A 
ATOM     21  C   UNL     1      -9.545  -9.752  18.090  0.00  0.00    +0.123 A 
ENDBRANCH  15  16
BRANCH  12   7
ATOM      4  N   UNL     1      -7.040  -9.460  10.584  0.00  0.00    -0.286 NA
ATOM      7  C   UNL     1      -6.016 -10.200  11.352  0.00  0.00    +0.149 C 
ATOM      8  C   UNL     1      -4.675  -9.583  10.914  0.00  0.00    +0.061 C 
ATOM      9  C   UNL     1      -5.044  -8.540   9.867  0.00  0.00    +0.130 C 
ATOM     10  C   UNL     1      -6.390  -9.012   9.354  0.00  0.00    +0.116 C 
BRANCH   4  11
ATOM     11  C   UNL     1      -8.237 -10.247  10.317  0.00  0.00    +0.051 C 
ATOM     13  C   UNL     1      -8.217 -10.770   8.883  0.00  0.00    +0.024 C 
ATOM     14  C   UNL     1      -9.474  -9.392  10.572  0.00  0.00    +0.024 C 
ENDBRANCH   4  11
BRANCH   9   2
ATOM      2  O   UNL     1      -4.075  -8.500   8.837  0.00  0.00    -0.390 OA
ATOM     22  H   UNL     1      -4.411  -9.035   8.099  0.00  0.00    +0.210 HD
ENDBRANCH   9   2
ENDBRANCH  12   7
TORSDOF 4
ENDMDL
MODEL 5
REMARK VINA RESULT:      -4.0     26.012     27.520
REMARK  Name = 26744411
REMARK  6 active torsions:
REMARK  status: ('A' for Active; 'I' for Inactive)
REMARK    1  A    between atoms: O_2  and  C_9
REMARK    2  A    between atoms: N_4  and  C_11
REMARK    3  A    between atoms: C_7  and  C_12
REMARK    4  A    between atoms: C_11  and  C_13
REMARK    5  A    between atoms: C_11  and  C_14
REMARK    6  A    between atoms: C_15  and  C_16
REMARK                            x       y       z     vdW  Elec       q    Type
REMARK                         _______ _______ _______ _____ _____    ______ ____
ROOT
ATOM      3  O   UNL     1      16.957  -7.193  26.434  0.00  0.00    -0.336 OA
ATOM      5  N   UNL     1      17.095  -5.054  27.084  0.00  0.00    -0.190 NA
ATOM      6  N   UNL     1      17.009  -6.432  25.260  0.00  0.00    -0.056 NA
ATOM     12  C   UNL     1      17.013  -6.305  27.462  0.00  0.00    +0.245 A 
ATOM     15  C   UNL     1      17.090  -5.182  25.726  0.00  0.00    +0.202 A 
ENDROOT
BRANCH  15  16
ATOM      1  F   UNL     1      17.382  -0.752  22.373  0.00  0.00    -0.205 F 
ATOM     16  C   UNL     1      17.165  -4.039  24.861  0.00  0.00    +0.023 A 
ATOM     17  C   UNL     1      17.332  -4.215  23.487  0.00  0.00    +0.014 A 
ATOM     18  C   UNL     1      17.071  -2.755  25.395  0.00  0.00    +0.014 A 
ATOM     19  C   UNL     1      17.405  -3.104  22.647  0.00  0.00    +0.039 A 
ATOM     20  C   UNL     1      17.144  -1.643  24.555  0.00  0.00    +0.039 A 
ATOM     21  C   UNL     1      17.311  -1.818  23.180  0.00  0.00    +0.123 A 
ENDBRANCH  15  16
BRANCH  12   7
ATOM      4  N   UNL     1      16.181  -6.061  29.795  0.00  0.00    -0.286 NA
ATOM      7  C   UNL     1      16.972  -6.886  28.859  0.00  0.00    +0.149 C 
ATOM      8  C   UNL     1      16.312  -8.277  28.907  0.00  0.00    +0.061 C 
ATOM      9  C   UNL     1      15.190  -8.146  29.929  0.00  0.00    +0.130 C 
ATOM     10  C   UNL     1      15.630  -6.978  30.791  0.00  0.00    +0.116 C 
BRANCH   4  11
ATOM     11  C   UNL     1      16.953  -4.987  30.407  0.00  0.00    +0.051 C 
ATOM     13  C   UNL     1      17.249  -5.314  31.868  0.00  0.00    +0.024 C 
ATOM     14  C   UNL     1      16.184  -3.675  30.283  0.00  0.00    +0.024 C 
ENDBRANCH   4  11
BRANCH   9   2
ATOM      2  O   UNL     1      15.059  -9.335  30.684  0.00  0.00    -0.390 OA
ATOM     22  H   UNL     1      14.237  -9.770  30.404  0.00  0.00    +0.210 HD
ENDBRANCH   9   2
ENDBRANCH  12   7
TORSDOF 4
ENDMDL
MODEL 6
REMARK VINA RESULT:      -3.5     14.447     16.628
REMARK  Name = 26744411
REMARK  6 active torsions:
REMARK  status: ('A' for Active; 'I' for Inactive)
REMARK    1  A    between atoms: O_2  and  C_9
REMARK    2  A    between atoms: N_4  and  C_11
REMARK    3  A    between atoms: C_7  and  C_12
REMARK    4  A    between atoms: C_11  and  C_13
REMARK    5  A    between atoms: C_11  and  C_14
REMARK    6  A    between atoms: C_15  and  C_16
REMARK                            x       y       z     vdW  Elec       q    Type
REMARK                         _______ _______ _______ _____ _____    ______ ____
ROOT
ATOM      3  O   UNL     1      -0.946   2.323  24.266  0.00  0.00    -0.336 OA
ATOM      5  N   UNL     1      -0.327   0.347  23.414  0.00  0.00    -0.190 NA
ATOM      6  N   UNL     1       0.453   2.348  24.200  0.00  0.00    -0.056 NA
ATOM     12  C   UNL     1      -1.325   1.109  23.784  0.00  0.00    +0.245 A 
ATOM     15  C   UNL     1       0.741   1.149  23.687  0.00  0.00    +0.202 A 
ENDROOT
BRANCH  15  16
ATOM      1  F   UNL     1       5.963  -0.511  22.717  0.00  0.00    -0.205 F 
ATOM     16  C   UNL     1       2.088   0.720  23.437  0.00  0.00    +0.023 A 
ATOM     17  C   UNL     1       3.038   1.637  22.984  0.00  0.00    +0.014 A 
ATOM     18  C   UNL     1       2.446  -0.610  23.647  0.00  0.00    +0.014 A 
ATOM     19  C   UNL     1       4.347   1.219  22.741  0.00  0.00    +0.039 A 
ATOM     20  C   UNL     1       3.755  -1.028  23.404  0.00  0.00    +0.039 A 
ATOM     21  C   UNL     1       4.706  -0.112  22.951  0.00  0.00    +0.123 A 
ENDBRANCH  15  16
BRANCH  12   7
ATOM      4  N   UNL     1      -3.257  -0.016  24.876  0.00  0.00    -0.286 NA
ATOM      7  C   UNL     1      -2.812   0.832  23.751  0.00  0.00    +0.149 C 
ATOM      8  C   UNL     1      -3.660   2.112  23.863  0.00  0.00    +0.061 C 
ATOM      9  C   UNL     1      -4.582   1.871  25.052  0.00  0.00    +0.130 C 
ATOM     10  C   UNL     1      -4.642   0.359  25.154  0.00  0.00    +0.116 C 
BRANCH   4  11
ATOM     11  C   UNL     1      -3.118  -1.442  24.612  0.00  0.00    +0.051 C 
ATOM     13  C   UNL     1      -4.254  -1.928  23.716  0.00  0.00    +0.024 C 
ATOM     14  C   UNL     1      -3.098  -2.204  25.933  0.00  0.00    +0.024 C 
ENDBRANCH   4  11
BRANCH   9   2
ATOM      2  O   UNL     1      -5.859   2.433  24.817  0.00  0.00    -0.390 OA
ATOM     22  H   UNL     1      -5.778   3.396  24.921  0.00  0.00    +0.210 HD
ENDBRANCH   9   2
ENDBRANCH  12   7
TORSDOF 4
ENDMDL
MODEL 7
REMARK VINA RESULT:      -3.4     25.282     26.900
REMARK  Name = 26744411
REMARK  6 active torsions:
REMARK  status: ('A' for Active; 'I' for Inactive)
REMARK    1  A    between atoms: O_2  and  C_9
REMARK    2  A    between atoms: N_4  and  C_11
REMARK    3  A    between atoms: C_7  and  C_12
REMARK    4  A    between atoms: C_11  and  C_13
REMARK    5  A    between atoms: C_11  and  C_14
REMARK    6  A    between atoms: C_15  and  C_16
REMARK                            x       y       z     vdW  Elec       q    Type
REMARK                         _______ _______ _______ _____ _____    ______ ____
ROOT
ATOM      3  O   UNL     1      15.814  -8.073  27.458  0.00  0.00    -0.336 OA
ATOM      5  N   UNL     1      16.349  -5.907  27.654  0.00  0.00    -0.190 NA
ATOM      6  N   UNL     1      16.001  -7.598  26.153  0.00  0.00    -0.056 NA
ATOM     12  C   UNL     1      16.038  -7.014  28.280  0.00  0.00    +0.245 A 
ATOM     15  C   UNL     1      16.314  -6.314  26.353  0.00  0.00    +0.202 A 
ENDROOT
BRANCH  15  16
ATOM      1  F   UNL     1      17.405  -2.814  22.168  0.00  0.00    -0.205 F 
ATOM     16  C   UNL     1      16.595  -5.412  25.273  0.00  0.00    +0.023 A 
ATOM     17  C   UNL     1      16.404  -4.040  25.444  0.00  0.00    +0.014 A 
ATOM     18  C   UNL     1      17.059  -5.906  24.055  0.00  0.00    +0.014 A 
ATOM     19  C   UNL     1      16.678  -3.163  24.394  0.00  0.00    +0.039 A 
ATOM     20  C   UNL     1      17.333  -5.029  23.005  0.00  0.00    +0.039 A 
ATOM     21  C   UNL     1      17.142  -3.656  23.175  0.00  0.00    +0.123 A 
ENDBRANCH  15  16
BRANCH  12   7
ATOM      4  N   UNL     1      14.671  -8.028  30.096  0.00  0.00    -0.286 NA
ATOM      7  C   UNL     1      15.897  -7.271  29.765  0.00  0.00    +0.149 C 
ATOM      8  C   UNL     1      17.048  -8.121  30.335  0.00  0.00    +0.061 C 
ATOM      9  C   UNL     1      16.368  -9.308  31.005  0.00  0.00    +0.130 C 
ATOM     10  C   UNL     1      14.972  -8.796  31.302  0.00  0.00    +0.116 C 
BRANCH   4  11
ATOM     11  C   UNL     1      13.500  -7.177  30.266  0.00  0.00    +0.051 C 
ATOM     13  C   UNL     1      13.896  -5.854  30.916  0.00  0.00    +0.024 C 
ATOM     14  C   UNL     1      12.458  -7.910  31.105  0.00  0.00    +0.024 C 
ENDBRANCH   4  11
BRANCH   9   2
ATOM      2  O   UNL     1      17.055  -9.676  32.186  0.00  0.00    -0.390 OA
ATOM     22  H   UNL     1      17.547  -8.897  32.493  0.00  0.00    +0.210 HD
ENDBRANCH   9   2
ENDBRANCH  12   7
TORSDOF 4
ENDMDL
MODEL 8
REMARK VINA RESULT:      -3.4     15.640     17.258
REMARK  Name = 26744411
REMARK  6 active torsions:
REMARK  status: ('A' for Active; 'I' for Inactive)
REMARK    1  A    between atoms: O_2  and  C_9
REMARK    2  A    between atoms: N_4  and  C_11
REMARK    3  A    between atoms: C_7  and  C_12
REMARK    4  A    between atoms: C_11  and  C_13
REMARK    5  A    between atoms: C_11  and  C_14
REMARK    6  A    between atoms: C_15  and  C_16
REMARK                            x       y       z     vdW  Elec       q    Type
REMARK                         _______ _______ _______ _____ _____    ______ ____
ROOT
ATOM      3  O   UNL     1      -1.015  -0.062  23.585  0.00  0.00    -0.336 OA
ATOM      5  N   UNL     1       0.539   1.542  23.756  0.00  0.00    -0.190 NA
ATOM      6  N   UNL     1       0.221  -0.694  23.391  0.00  0.00    -0.056 NA
ATOM     12  C   UNL     1      -0.737   1.252  23.793  0.00  0.00    +0.245 A 
ATOM     15  C   UNL     1       1.086   0.317  23.508  0.00  0.00    +0.202 A 
ENDROOT
BRANCH  15  16
ATOM      1  F   UNL     1       6.584  -0.377  23.008  0.00  0.00    -0.205 F 
ATOM     16  C   UNL     1       2.504   0.138  23.379  0.00  0.00    +0.023 A 
ATOM     17  C   UNL     1       3.295   1.174  22.879  0.00  0.00    +0.014 A 
ATOM     18  C   UNL     1       3.090  -1.070  23.753  0.00  0.00    +0.014 A 
ATOM     19  C   UNL     1       4.673   0.999  22.754  0.00  0.00    +0.039 A 
ATOM     20  C   UNL     1       4.469  -1.245  23.628  0.00  0.00    +0.039 A 
ATOM     21  C   UNL     1       5.261  -0.210  23.129  0.00  0.00    +0.123 A 
ENDBRANCH  15  16
BRANCH  12   7
ATOM      4  N   UNL     1      -2.817   1.663  25.097  0.00  0.00    -0.286 NA
ATOM      7  C   UNL     1      -1.923   2.162  24.031  0.00  0.00    +0.149 C 
ATOM      8  C   UNL     1      -1.510   3.571  24.494  0.00  0.00    +0.061 C 
ATOM      9  C   UNL     1      -2.256   3.792  25.803  0.00  0.00    +0.130 C 
ATOM     10  C   UNL     1      -3.433   2.840  25.705  0.00  0.00    +0.116 C 
BRANCH   4  11
ATOM     11  C   UNL     1      -3.810   0.712  24.614  0.00  0.00    +0.051 C 
ATOM     13  C   UNL     1      -5.211   1.306  24.730  0.00  0.00    +0.024 C 
ATOM     14  C   UNL     1      -3.698  -0.586  25.408  0.00  0.00    +0.024 C 
ENDBRANCH   4  11
BRANCH   9   2
ATOM      2  O   UNL     1      -2.678   5.137  25.919  0.00  0.00    -0.390 OA
ATOM     22  H   UNL     1      -3.649   5.143  25.878  0.00  0.00    +0.210 HD
ENDBRANCH   9   2
ENDBRANCH  12   7
TORSDOF 4
ENDMDL
MODEL 9
REMARK VINA RESULT:      -3.2     15.781     17.324
REMARK  Name = 26744411
REMARK  6 active torsions:
REMARK  status: ('A' for Active; 'I' for Inactive)
REMARK    1  A    between atoms: O_2  and  C_9
REMARK    2  A    between atoms: N_4  and  C_11
REMARK    3  A    between atoms: C_7  and  C_12
REMARK    4  A    between atoms: C_11  and  C_13
REMARK    5  A    between atoms: C_11  and  C_14
REMARK    6  A    between atoms: C_15  and  C_16
REMARK                            x       y       z     vdW  Elec       q    Type
REMARK                         _______ _______ _______ _____ _____    ______ ____
ROOT
ATOM      3  O   UNL     1      -1.535  -0.496  23.901  0.00  0.00    -0.336 OA
ATOM      5  N   UNL     1      -0.044   1.048  24.540  0.00  0.00    -0.190 NA
ATOM      6  N   UNL     1      -0.299  -0.912  23.389  0.00  0.00    -0.056 NA
ATOM     12  C   UNL     1      -1.296   0.666  24.565  0.00  0.00    +0.245 A 
ATOM     15  C   UNL     1       0.528   0.049  23.808  0.00  0.00    +0.202 A 
ENDROOT
BRANCH  15  16
ATOM      1  F   UNL     1       5.972   0.025  22.657  0.00  0.00    -0.205 F 
ATOM     16  C   UNL     1       1.933   0.043  23.512  0.00  0.00    +0.023 A 
ATOM     17  C   UNL     1       2.537   1.182  22.979  0.00  0.00    +0.014 A 
ATOM     18  C   UNL     1       2.691  -1.101  23.755  0.00  0.00    +0.014 A 
ATOM     19  C   UNL     1       3.902   1.175  22.691  0.00  0.00    +0.039 A 
ATOM     20  C   UNL     1       4.056  -1.108  23.467  0.00  0.00    +0.039 A 
ATOM     21  C   UNL     1       4.662   0.031  22.935  0.00  0.00    +0.123 A 
ENDBRANCH  15  16
BRANCH  12   7
ATOM      4  N   UNL     1      -2.631   2.747  24.841  0.00  0.00    -0.286 NA
ATOM      7  C   UNL     1      -2.490   1.326  25.219  0.00  0.00    +0.149 C 
ATOM      8  C   UNL     1      -3.826   0.678  24.813  0.00  0.00    +0.061 C 
ATOM      9  C   UNL     1      -4.667   1.821  24.260  0.00  0.00    +0.130 C 
ATOM     10  C   UNL     1      -4.059   3.052  24.901  0.00  0.00    +0.116 C 
BRANCH   4  11
ATOM     11  C   UNL     1      -1.843   3.645  25.676  0.00  0.00    +0.051 C 
ATOM     13  C   UNL     1      -2.761   4.523  26.522  0.00  0.00    +0.024 C 
ATOM     14  C   UNL     1      -0.934   4.494  24.793  0.00  0.00    +0.024 C 
ENDBRANCH   4  11
BRANCH   9   2
ATOM      2  O   UNL     1      -6.027   1.660  24.616  0.00  0.00    -0.390 OA
ATOM     22  H   UNL     1      -6.057   1.450  25.565  0.00  0.00    +0.210 HD
ENDBRANCH   9   2
ENDBRANCH  12   7
TORSDOF 4
ENDMDL
MODEL 10
REMARK VINA RESULT:      -2.7     14.097     16.375
REMARK  Name = 26744411
REMARK  6 active torsions:
REMARK  status: ('A' for Active; 'I' for Inactive)
REMARK    1  A    between atoms: O_2  and  C_9
REMARK    2  A    between atoms: N_4  and  C_11
REMARK    3  A    between atoms: C_7  and  C_12
REMARK    4  A    between atoms: C_11  and  C_13
REMARK    5  A    between atoms: C_11  and  C_14
REMARK    6  A    between atoms: C_15  and  C_16
REMARK                            x       y       z     vdW  Elec       q    Type
REMARK                         _______ _______ _______ _____ _____    ______ ____
ROOT
ATOM      3  O   UNL     1      -0.962   1.479  23.891  0.00  0.00    -0.336 OA
ATOM      5  N   UNL     1       0.143  -0.441  24.226  0.00  0.00    -0.190 NA
ATOM      6  N   UNL     1       0.363   1.719  23.505  0.00  0.00    -0.056 NA
ATOM     12  C   UNL     1      -1.005   0.184  24.302  0.00  0.00    +0.245 A 
ATOM     15  C   UNL     1       0.951   0.541  23.732  0.00  0.00    +0.202 A 
ENDROOT
BRANCH  15  16
ATOM      1  F   UNL     1       6.354  -0.349  22.743  0.00  0.00    -0.205 F 
ATOM     16  C   UNL     1       2.344   0.311  23.476  0.00  0.00    +0.023 A 
ATOM     17  C   UNL     1       2.910  -0.931  23.763  0.00  0.00    +0.014 A 
ATOM     18  C   UNL     1       3.132   1.330  22.943  0.00  0.00    +0.014 A 
ATOM     19  C   UNL     1       4.265  -1.154  23.515  0.00  0.00    +0.039 A 
ATOM     20  C   UNL     1       4.487   1.108  22.694  0.00  0.00    +0.039 A 
ATOM     21  C   UNL     1       5.053  -0.135  22.980  0.00  0.00    +0.123 A 
ENDBRANCH  15  16
BRANCH  12   7
ATOM      4  N   UNL     1      -3.481   0.348  24.110  0.00  0.00    -0.286 NA
ATOM      7  C   UNL     1      -2.349  -0.328  24.776  0.00  0.00    +0.149 C 
ATOM      8  C   UNL     1      -2.555  -1.825  24.478  0.00  0.00    +0.061 C 
ATOM      9  C   UNL     1      -3.851  -1.893  23.681  0.00  0.00    +0.130 C 
ATOM     10  C   UNL     1      -4.576  -0.620  24.070  0.00  0.00    +0.116 C 
BRANCH   4  11
ATOM     11  C   UNL     1      -3.872   1.591  24.762  0.00  0.00    +0.051 C 
ATOM     13  C   UNL     1      -5.255   1.446  25.392  0.00  0.00    +0.024 C 
ATOM     14  C   UNL     1      -3.849   2.727  23.745  0.00  0.00    +0.024 C 
ENDBRANCH   4  11
BRANCH   9   2
ATOM      2  O   UNL     1      -4.593  -3.047  24.028  0.00  0.00    -0.390 OA
ATOM     22  H   UNL     1      -4.164  -3.809  23.603  0.00  0.00    +0.210 HD
ENDBRANCH   9   2
ENDBRANCH  12   7
TORSDOF 4
ENDMDL
