MODEL 1
REMARK VINA RESULT:      11.6      0.000      0.000
REMARK  Name = 11885045
REMARK  14 active torsions:
REMARK  status: ('A' for Active; 'I' for Inactive)
REMARK    1  A    between atoms: O_2  and  C_15
REMARK    2  A    between atoms: O_3  and  C_20
REMARK    3  A    between atoms: O_6  and  C_35
REMARK    4  A    between atoms: N_8  and  C_26
REMARK    5  A    between atoms: C_10  and  C_18
REMARK    6  A    between atoms: C_12  and  C_20
REMARK    7  A    between atoms: C_12  and  C_21
REMARK    8  A    between atoms: C_13  and  C_23
REMARK    9  A    between atoms: C_23  and  C_24
REMARK   10  A    between atoms: C_27  and  C_28
REMARK   11  A    between atoms: C_28  and  C_29
REMARK   12  A    between atoms: C_29  and  C_32
REMARK   13  A    between atoms: C_29  and  C_33
REMARK   14  A    between atoms: C_29  and  C_34
REMARK                            x       y       z     vdW  Elec       q    Type
REMARK                         _______ _______ _______ _____ _____    ______ ____
ROOT
ATOM      1  S   UNL     1      -0.783  -0.643  22.793  0.00  0.00    -0.057 S 
ATOM      5  O   UNL     1       3.204   1.635  23.585  0.00  0.00    -0.275 OA
ATOM      7  N   UNL     1       0.265   1.436  23.920  0.00  0.00    -0.229 NA
ATOM      9  N   UNL     1       1.771  -0.048  22.762  0.00  0.00    -0.265 N 
ATOM     10  C   UNL     1      -3.308   2.630  24.742  0.00  0.00    -0.019 C 
ATOM     11  C   UNL     1      -3.861   1.142  24.864  0.00  0.00    +0.011 C 
ATOM     12  C   UNL     1      -5.413   0.972  25.091  0.00  0.00    +0.021 C 
ATOM     13  C   UNL     1      -1.725   2.586  24.959  0.00  0.00    +0.054 C 
ATOM     14  C   UNL     1      -3.930   3.504  25.862  0.00  0.00    +0.010 C 
ATOM     15  C   UNL     1      -5.877   1.949  26.210  0.00  0.00    +0.123 C 
ATOM     16  C   UNL     1      -3.289   0.229  23.741  0.00  0.00    +0.049 C 
ATOM     17  C   UNL     1      -5.444   3.391  25.963  0.00  0.00    +0.032 C 
ATOM     18  C   UNL     1      -3.623   3.279  23.372  0.00  0.00    +0.012 C 
ATOM     19  C   UNL     1      -1.098   1.481  24.148  0.00  0.00    +0.058 A 
ATOM     21  C   UNL     1      -5.697  -0.472  25.594  0.00  0.00    +0.016 C 
ATOM     22  C   UNL     1      -1.815   0.423  23.627  0.00  0.00    +0.015 A 
ATOM     25  C   UNL     1       0.543   0.364  23.209  0.00  0.00    +0.165 A 
ATOM     27  C   UNL     1       3.004   0.593  22.968  0.00  0.00    +0.219 C 
ATOM     41  H   UNL     1       1.760  -0.910  22.223  0.00  0.00    +0.157 HD
ENDROOT
BRANCH  15   2
ATOM      2  O   UNL     1      -7.296   1.914  26.351  0.00  0.00    -0.391 OA
ATOM     38  H   UNL     1      -7.507   2.152  27.270  0.00  0.00    +0.210 HD
ENDBRANCH  15   2
BRANCH  12  20
ATOM     20  C   UNL     1      -6.271   1.144  23.819  0.00  0.00    +0.165 C 
BRANCH  20   3
ATOM      3  O   UNL     1      -7.562   1.544  24.219  0.00  0.00    -0.394 OA
ATOM     39  H   UNL     1      -7.456   2.223  24.906  0.00  0.00    +0.209 HD
ENDBRANCH  20   3
ENDBRANCH  12  20
BRANCH  13  23
ATOM     23  C   UNL     1      -1.012   3.926  24.729  0.00  0.00    +0.106 C 
BRANCH  23  24
ATOM      4  O   UNL     1       0.774   5.186  25.741  0.00  0.00    -0.275 OA
ATOM      8  N   UNL     1       0.148   3.108  26.641  0.00  0.00    -0.285 N 
ATOM     24  C   UNL     1       0.080   4.174  25.748  0.00  0.00    +0.218 C 
ATOM     40  H   UNL     1      -0.497   2.333  26.507  0.00  0.00    +0.155 HD
BRANCH   8  26
ATOM     26  C   UNL     1       1.032   2.955  27.736  0.00  0.00    +0.037 A 
ATOM     30  C   UNL     1       0.541   2.544  28.975  0.00  0.00    +0.068 A 
ATOM     31  C   UNL     1       2.393   3.215  27.576  0.00  0.00    +0.023 A 
ATOM     35  C   UNL     1       1.412   2.393  30.055  0.00  0.00    +0.119 A 
ATOM     36  C   UNL     1       3.263   3.065  28.655  0.00  0.00    +0.005 A 
ATOM     37  C   UNL     1       2.773   2.653  29.894  0.00  0.00    +0.045 A 
BRANCH  35   6
ATOM      6  O   UNL     1       0.934   1.992  31.264  0.00  0.00    -0.507 OA
ATOM     42  H   UNL     1       1.471   1.247  31.583  0.00  0.00    +0.292 HD
ENDBRANCH  35   6
ENDBRANCH   8  26
ENDBRANCH  23  24
ENDBRANCH  13  23
BRANCH  27  28
ATOM     28  C   UNL     1       4.167  -0.147  22.318  0.00  0.00    +0.102 C 
BRANCH  28  29
ATOM     29  C   UNL     1       5.317  -0.524  23.284  0.00  0.00    -0.029 C 
ATOM     32  C   UNL     1       5.526   0.567  24.347  0.00  0.00    +0.011 C 
ATOM     33  C   UNL     1       6.636  -0.756  22.529  0.00  0.00    +0.011 C 
ATOM     34  C   UNL     1       4.929  -1.834  23.998  0.00  0.00    +0.011 C 
ENDBRANCH  28  29
ENDBRANCH  27  28
TORSDOF 9
ENDMDL
MODEL 2
REMARK VINA RESULT:      15.4      1.789      2.781
REMARK  Name = 11885045
REMARK  14 active torsions:
REMARK  status: ('A' for Active; 'I' for Inactive)
REMARK    1  A    between atoms: O_2  and  C_15
REMARK    2  A    between atoms: O_3  and  C_20
REMARK    3  A    between atoms: O_6  and  C_35
REMARK    4  A    between atoms: N_8  and  C_26
REMARK    5  A    between atoms: C_10  and  C_18
REMARK    6  A    between atoms: C_12  and  C_20
REMARK    7  A    between atoms: C_12  and  C_21
REMARK    8  A    between atoms: C_13  and  C_23
REMARK    9  A    between atoms: C_23  and  C_24
REMARK   10  A    between atoms: C_27  and  C_28
REMARK   11  A    between atoms: C_28  and  C_29
REMARK   12  A    between atoms: C_29  and  C_32
REMARK   13  A    between atoms: C_29  and  C_33
REMARK   14  A    between atoms: C_29  and  C_34
REMARK                            x       y       z     vdW  Elec       q    Type
REMARK                         _______ _______ _______ _____ _____    ______ ____
ROOT
ATOM      1  S   UNL     1       0.365   3.086  23.405  0.00  0.00    -0.057 S 
ATOM      5  O   UNL     1       2.686  -0.951  23.228  0.00  0.00    -0.275 OA
ATOM      7  N   UNL     1       0.177   0.533  23.773  0.00  0.00    -0.229 NA
ATOM      9  N   UNL     1       2.318   1.373  23.051  0.00  0.00    -0.265 N 
ATOM     10  C   UNL     1      -3.376   1.123  25.148  0.00  0.00    -0.019 C 
ATOM     11  C   UNL     1      -3.612   2.391  24.214  0.00  0.00    +0.011 C 
ATOM     12  C   UNL     1      -4.953   3.195  24.423  0.00  0.00    +0.021 C 
ATOM     13  C   UNL     1      -2.223   0.234  24.490  0.00  0.00    +0.054 C 
ATOM     14  C   UNL     1      -4.674   0.276  25.204  0.00  0.00    +0.010 C 
ATOM     15  C   UNL     1      -6.143   2.195  24.503  0.00  0.00    +0.123 C 
ATOM     16  C   UNL     1      -2.345   3.293  24.149  0.00  0.00    +0.049 C 
ATOM     17  C   UNL     1      -5.924   1.083  25.524  0.00  0.00    +0.032 C 
ATOM     18  C   UNL     1      -2.971   1.507  26.593  0.00  0.00    +0.012 C 
ATOM     19  C   UNL     1      -1.053   1.088  24.071  0.00  0.00    +0.058 A 
ATOM     21  C   UNL     1      -5.197   4.105  23.186  0.00  0.00    +0.016 C 
ATOM     22  C   UNL     1      -1.135   2.456  23.906  0.00  0.00    +0.015 A 
ATOM     25  C   UNL     1       1.003   1.493  23.417  0.00  0.00    +0.165 A 
ATOM     27  C   UNL     1       3.070   0.188  22.978  0.00  0.00    +0.219 C 
ATOM     41  H   UNL     1       2.777   2.249  22.816  0.00  0.00    +0.157 HD
ENDROOT
BRANCH  15   2
ATOM      2  O   UNL     1      -7.353   2.879  24.820  0.00  0.00    -0.391 OA
ATOM     38  H   UNL     1      -7.535   3.506  24.099  0.00  0.00    +0.210 HD
ENDBRANCH  15   2
BRANCH  12  20
ATOM     20  C   UNL     1      -4.949   4.143  25.642  0.00  0.00    +0.165 C 
BRANCH  20   3
ATOM      3  O   UNL     1      -6.195   4.802  25.681  0.00  0.00    -0.394 OA
ATOM     39  H   UNL     1      -6.678   4.464  26.454  0.00  0.00    +0.209 HD
ENDBRANCH  20   3
ENDBRANCH  12  20
BRANCH  13  23
ATOM     23  C   UNL     1      -1.770  -0.958  25.345  0.00  0.00    +0.106 C 
BRANCH  23  24
ATOM      4  O   UNL     1       0.102  -1.423  26.788  0.00  0.00    -0.275 OA
ATOM      8  N   UNL     1      -0.628   0.790  26.489  0.00  0.00    -0.285 N 
ATOM     24  C   UNL     1      -0.649  -0.588  26.293  0.00  0.00    +0.218 C 
ATOM     40  H   UNL     1      -1.328   1.350  26.009  0.00  0.00    +0.155 HD
BRANCH   8  26
ATOM     26  C   UNL     1       0.264   1.532  27.301  0.00  0.00    +0.037 A 
ATOM     30  C   UNL     1       0.514   1.126  28.611  0.00  0.00    +0.068 A 
ATOM     31  C   UNL     1       0.892   2.668  26.790  0.00  0.00    +0.023 A 
ATOM     35  C   UNL     1       1.392   1.857  29.412  0.00  0.00    +0.119 A 
ATOM     36  C   UNL     1       1.770   3.399  27.590  0.00  0.00    +0.005 A 
ATOM     37  C   UNL     1       2.020   2.993  28.901  0.00  0.00    +0.045 A 
BRANCH  35   6
ATOM      6  O   UNL     1       1.637   1.461  30.691  0.00  0.00    -0.507 OA
ATOM     42  H   UNL     1       2.509   1.031  30.726  0.00  0.00    +0.292 HD
ENDBRANCH  35   6
ENDBRANCH   8  26
ENDBRANCH  23  24
ENDBRANCH  13  23
BRANCH  27  28
ATOM     28  C   UNL     1       4.509   0.431  22.540  0.00  0.00    +0.102 C 
BRANCH  28  29
ATOM     29  C   UNL     1       5.583  -0.154  23.489  0.00  0.00    -0.029 C 
ATOM     32  C   UNL     1       6.929  -0.321  22.764  0.00  0.00    +0.011 C 
ATOM     33  C   UNL     1       5.147  -1.510  24.067  0.00  0.00    +0.011 C 
ATOM     34  C   UNL     1       5.778   0.833  24.656  0.00  0.00    +0.011 C 
ENDBRANCH  28  29
ENDBRANCH  27  28
TORSDOF 9
ENDMDL
