MODEL 1
REMARK VINA RESULT:      -1.0      0.000      0.000
REMARK  Name = 7127944
REMARK  12 active torsions:
REMARK  status: ('A' for Active; 'I' for Inactive)
REMARK    1  A    between atoms: S_1  and  C_20
REMARK    2  A    between atoms: S_1  and  C_31
REMARK    3  A    between atoms: N_7  and  C_12
REMARK    4  A    between atoms: N_8  and  C_18
REMARK    5  A    between atoms: N_9  and  C_24
REMARK    6  A    between atoms: C_13  and  C_16
REMARK    7  A    between atoms: C_17  and  C_20
REMARK    8  A    between atoms: C_18  and  C_21
REMARK    9  A    between atoms: C_18  and  C_23
REMARK   10  A    between atoms: C_21  and  C_22
REMARK   11  A    between atoms: C_24  and  C_29
REMARK   12  A    between atoms: C_24  and  C_30
REMARK                            x       y       z     vdW  Elec       q    Type
REMARK                         _______ _______ _______ _____ _____    ______ ____
ROOT
ATOM      2  O   UNL     1      13.747  -6.540  29.260  0.00  0.00    -0.274 OA
ATOM      8  N   UNL     1      13.550  -8.317  30.749  0.00  0.00    -0.302 N 
ATOM     16  C   UNL     1      14.087  -7.648  29.663  0.00  0.00    +0.234 C 
ATOM     36  H   UNL     1      13.846  -9.272  30.932  0.00  0.00    +0.150 HD
ENDROOT
BRANCH  16  13
ATOM      3  O   UNL     1      14.667  -6.973  26.591  0.00  0.00    -0.275 OA
ATOM      6  N   UNL     1      16.087  -7.492  28.343  0.00  0.00    -0.287 N 
ATOM     12  C   UNL     1      17.188  -8.158  30.340  0.00  0.00    +0.094 C 
ATOM     13  C   UNL     1      15.189  -8.424  29.007  0.00  0.00    +0.164 C 
ATOM     14  C   UNL     1      16.057  -9.145  30.037  0.00  0.00    +0.055 C 
ATOM     15  C   UNL     1      17.385  -7.427  29.015  0.00  0.00    +0.131 C 
ATOM     17  C   UNL     1      15.772  -6.899  27.129  0.00  0.00    +0.226 C 
BRANCH  12   7
ATOM      4  O   UNL     1      17.372  -5.279  30.305  0.00  0.00    -0.253 OA
ATOM      7  N   UNL     1      16.838  -7.253  31.405  0.00  0.00    -0.295 N 
ATOM      9  N   UNL     1      16.552  -5.234  32.475  0.00  0.00    -0.297 N 
ATOM     19  C   UNL     1      16.958  -5.868  31.303  0.00  0.00    +0.300 C 
ATOM     35  H   UNL     1      16.435  -7.633  32.256  0.00  0.00    +0.151 HD
ATOM     37  H   UNL     1      16.160  -5.802  33.220  0.00  0.00    +0.150 HD
BRANCH   9  24
ATOM     24  C   UNL     1      16.575  -3.800  32.638  0.00  0.00    +0.068 C 
ATOM     29  C   UNL     1      17.405  -3.150  31.538  0.00  0.00    +0.027 C 
ATOM     30  C   UNL     1      15.156  -3.246  32.659  0.00  0.00    +0.027 C 
ENDBRANCH   9  24
ENDBRANCH  12   7
BRANCH  17  20
ATOM     20  C   UNL     1      16.885  -6.116  26.479  0.00  0.00    +0.164 C 
BRANCH  20   1
ATOM      1  S   UNL     1      16.976  -6.623  24.755  0.00  0.00    -0.155 S 
ATOM     31  C   UNL     1      17.295  -8.388  24.999  0.00  0.00    +0.085 C 
ENDBRANCH  20   1
ENDBRANCH  17  20
ENDBRANCH  16  13
BRANCH   8  18
ATOM     18  C   UNL     1      12.489  -7.774  31.566  0.00  0.00    +0.163 C 
BRANCH  18  23
ATOM      5  O   UNL     1      11.940  -5.453  31.101  0.00  0.00    -0.274 OA
ATOM     11  N   UNL     1      11.219  -7.069  29.635  0.00  0.00    -0.328 N 
ATOM     23  C   UNL     1      11.856  -6.637  30.780  0.00  0.00    +0.231 C 
ATOM     39  H   UNL     1      10.767  -6.408  29.010  0.00  0.00    +0.145 HD
ATOM     40  H   UNL     1      11.177  -8.047  29.370  0.00  0.00    +0.145 HD
ENDBRANCH  18  23
BRANCH  18  21
ATOM     21  C   UNL     1      11.435  -8.830  31.926  0.00  0.00    +0.069 C 
BRANCH  21  22
ATOM     10  N   UNL     1       8.494  -6.838  32.873  0.00  0.00    -0.360 N 
ATOM     22  C   UNL     1      10.083  -8.239  32.212  0.00  0.00    -0.020 A 
ATOM     25  C   UNL     1       8.821  -8.844  31.952  0.00  0.00    +0.003 A 
ATOM     26  C   UNL     1       9.849  -7.007  32.778  0.00  0.00    +0.087 A 
ATOM     27  C   UNL     1       7.842  -7.944  32.376  0.00  0.00    +0.047 A 
ATOM     28  C   UNL     1       8.418 -10.073  31.395  0.00  0.00    +0.010 A 
ATOM     32  C   UNL     1       6.473  -8.214  32.270  0.00  0.00    +0.026 A 
ATOM     33  C   UNL     1       7.052 -10.357  31.284  0.00  0.00    +0.001 A 
ATOM     34  C   UNL     1       6.096  -9.440  31.714  0.00  0.00    +0.002 A 
ATOM     38  H   UNL     1       8.038  -6.020  33.253  0.00  0.00    +0.165 HD
ENDBRANCH  21  22
ENDBRANCH  18  21
ENDBRANCH   8  18
TORSDOF 9
ENDMDL
MODEL 2
REMARK VINA RESULT:       0.2     15.344     18.068
REMARK  Name = 7127944
REMARK  12 active torsions:
REMARK  status: ('A' for Active; 'I' for Inactive)
REMARK    1  A    between atoms: S_1  and  C_20
REMARK    2  A    between atoms: S_1  and  C_31
REMARK    3  A    between atoms: N_7  and  C_12
REMARK    4  A    between atoms: N_8  and  C_18
REMARK    5  A    between atoms: N_9  and  C_24
REMARK    6  A    between atoms: C_13  and  C_16
REMARK    7  A    between atoms: C_17  and  C_20
REMARK    8  A    between atoms: C_18  and  C_21
REMARK    9  A    between atoms: C_18  and  C_23
REMARK   10  A    between atoms: C_21  and  C_22
REMARK   11  A    between atoms: C_24  and  C_29
REMARK   12  A    between atoms: C_24  and  C_30
REMARK                            x       y       z     vdW  Elec       q    Type
REMARK                         _______ _______ _______ _____ _____    ______ ____
ROOT
ATOM      2  O   UNL     1       0.896   1.895  24.424  0.00  0.00    -0.274 OA
ATOM      8  N   UNL     1      -0.149   0.581  22.812  0.00  0.00    -0.302 N 
ATOM     16  C   UNL     1      -0.007   1.699  23.616  0.00  0.00    +0.234 C 
ATOM     36  H   UNL     1      -0.989   0.485  22.249  0.00  0.00    +0.150 HD
ENDROOT
BRANCH  16  13
ATOM      3  O   UNL     1      -3.002   0.576  23.590  0.00  0.00    -0.275 OA
ATOM      6  N   UNL     1      -2.107   2.544  24.417  0.00  0.00    -0.287 N 
ATOM     12  C   UNL     1      -0.846   4.463  25.026  0.00  0.00    +0.094 C 
ATOM     13  C   UNL     1      -1.094   2.705  23.385  0.00  0.00    +0.164 C 
ATOM     14  C   UNL     1      -0.579   4.133  23.554  0.00  0.00    +0.055 C 
ATOM     15  C   UNL     1      -2.117   3.679  25.340  0.00  0.00    +0.131 C 
ATOM     17  C   UNL     1      -3.040   1.518  24.382  0.00  0.00    +0.226 C 
BRANCH  12   7
ATOM      4  O   UNL     1      -0.965   2.731  27.331  0.00  0.00    -0.253 OA
ATOM      7  N   UNL     1       0.251   4.066  25.871  0.00  0.00    -0.295 N 
ATOM      9  N   UNL     1       1.322   3.002  27.610  0.00  0.00    -0.297 N 
ATOM     19  C   UNL     1       0.105   3.221  26.971  0.00  0.00    +0.300 C 
ATOM     35  H   UNL     1       1.189   4.372  25.630  0.00  0.00    +0.151 HD
ATOM     37  H   UNL     1       2.163   3.395  27.196  0.00  0.00    +0.150 HD
BRANCH   9  24
ATOM     24  C   UNL     1       1.454   2.164  28.778  0.00  0.00    +0.068 C 
ATOM     29  C   UNL     1       2.919   2.022  29.172  0.00  0.00    +0.027 C 
ATOM     30  C   UNL     1       0.626   2.725  29.928  0.00  0.00    +0.027 C 
ENDBRANCH   9  24
ENDBRANCH  12   7
BRANCH  17  20
ATOM     20  C   UNL     1      -4.140   1.605  25.410  0.00  0.00    +0.164 C 
BRANCH  20   1
ATOM      1  S   UNL     1      -5.575   2.345  24.615  0.00  0.00    -0.155 S 
ATOM     31  C   UNL     1      -5.681   3.866  25.590  0.00  0.00    +0.085 C 
ENDBRANCH  20   1
ENDBRANCH  17  20
ENDBRANCH  16  13
BRANCH   8  18
ATOM     18  C   UNL     1       0.781  -0.526  22.826  0.00  0.00    +0.163 C 
BRANCH  18  23
ATOM      5  O   UNL     1       2.447  -0.020  21.131  0.00  0.00    -0.274 OA
ATOM     11  N   UNL     1       2.886   0.556  23.311  0.00  0.00    -0.328 N 
ATOM     23  C   UNL     1       2.112   0.001  22.314  0.00  0.00    +0.231 C 
ATOM     39  H   UNL     1       3.794   0.959  23.102  0.00  0.00    +0.145 HD
ATOM     40  H   UNL     1       2.587   0.587  24.280  0.00  0.00    +0.145 HD
ENDBRANCH  18  23
BRANCH  18  21
ATOM     21  C   UNL     1       0.945  -1.128  24.227  0.00  0.00    +0.069 C 
BRANCH  21  22
ATOM     10  N   UNL     1      -1.877  -0.811  26.562  0.00  0.00    -0.360 N 
ATOM     22  C   UNL     1      -0.341  -1.179  25.002  0.00  0.00    -0.020 A 
ATOM     25  C   UNL     1      -1.505  -1.926  24.666  0.00  0.00    +0.003 A 
ATOM     26  C   UNL     1      -0.601  -0.504  26.172  0.00  0.00    +0.087 A 
ATOM     27  C   UNL     1      -2.452  -1.678  25.660  0.00  0.00    +0.047 A 
ATOM     28  C   UNL     1      -1.843  -2.792  23.607  0.00  0.00    +0.010 A 
ATOM     32  C   UNL     1      -3.727  -2.255  25.649  0.00  0.00    +0.026 A 
ATOM     33  C   UNL     1      -3.115  -3.377  23.584  0.00  0.00    +0.001 A 
ATOM     34  C   UNL     1      -4.041  -3.111  24.589  0.00  0.00    +0.002 A 
ATOM     38  H   UNL     1      -2.331  -0.454  27.391  0.00  0.00    +0.165 HD
ENDBRANCH  21  22
ENDBRANCH  18  21
ENDBRANCH   8  18
TORSDOF 9
ENDMDL
MODEL 3
REMARK VINA RESULT:       0.4     14.757     18.194
REMARK  Name = 7127944
REMARK  12 active torsions:
REMARK  status: ('A' for Active; 'I' for Inactive)
REMARK    1  A    between atoms: S_1  and  C_20
REMARK    2  A    between atoms: S_1  and  C_31
REMARK    3  A    between atoms: N_7  and  C_12
REMARK    4  A    between atoms: N_8  and  C_18
REMARK    5  A    between atoms: N_9  and  C_24
REMARK    6  A    between atoms: C_13  and  C_16
REMARK    7  A    between atoms: C_17  and  C_20
REMARK    8  A    between atoms: C_18  and  C_21
REMARK    9  A    between atoms: C_18  and  C_23
REMARK   10  A    between atoms: C_21  and  C_22
REMARK   11  A    between atoms: C_24  and  C_29
REMARK   12  A    between atoms: C_24  and  C_30
REMARK                            x       y       z     vdW  Elec       q    Type
REMARK                         _______ _______ _______ _____ _____    ______ ____
ROOT
ATOM      2  O   UNL     1      -1.249   0.952  26.182  0.00  0.00    -0.274 OA
ATOM      8  N   UNL     1      -1.040  -0.234  24.191  0.00  0.00    -0.302 N 
ATOM     16  C   UNL     1      -1.293   0.891  24.957  0.00  0.00    +0.234 C 
ATOM     36  H   UNL     1      -1.200  -0.190  23.188  0.00  0.00    +0.150 HD
ENDROOT
BRANCH  16  13
ATOM      3  O   UNL     1      -4.182   0.923  23.585  0.00  0.00    -0.275 OA
ATOM      6  N   UNL     1      -2.912   2.612  24.529  0.00  0.00    -0.287 N 
ATOM     12  C   UNL     1      -1.284   4.064  25.470  0.00  0.00    +0.094 C 
ATOM     13  C   UNL     1      -1.618   2.089  24.117  0.00  0.00    +0.164 C 
ATOM     14  C   UNL     1      -0.633   3.230  24.363  0.00  0.00    +0.055 C 
ATOM     15  C   UNL     1      -2.778   3.904  25.201  0.00  0.00    +0.131 C 
ATOM     17  C   UNL     1      -4.106   2.014  24.151  0.00  0.00    +0.226 C 
BRANCH  12   7
ATOM      4  O   UNL     1       1.254   2.954  26.278  0.00  0.00    -0.253 OA
ATOM      7  N   UNL     1      -0.921   3.591  26.781  0.00  0.00    -0.295 N 
ATOM      9  N   UNL     1       0.415   2.687  28.424  0.00  0.00    -0.297 N 
ATOM     19  C   UNL     1       0.334   3.067  27.087  0.00  0.00    +0.300 C 
ATOM     35  H   UNL     1      -1.591   3.689  27.538  0.00  0.00    +0.151 HD
ATOM     37  H   UNL     1      -0.375   2.885  29.031  0.00  0.00    +0.150 HD
BRANCH   9  24
ATOM     24  C   UNL     1       1.606   2.113  29.005  0.00  0.00    +0.068 C 
ATOM     29  C   UNL     1       2.824   2.969  28.681  0.00  0.00    +0.027 C 
ATOM     30  C   UNL     1       1.434   1.945  30.509  0.00  0.00    +0.027 C 
ENDBRANCH   9  24
ENDBRANCH  12   7
BRANCH  17  20
ATOM     20  C   UNL     1      -5.356   2.786  24.491  0.00  0.00    +0.164 C 
BRANCH  20   1
ATOM      1  S   UNL     1      -6.596   1.604  25.040  0.00  0.00    -0.155 S 
ATOM     31  C   UNL     1      -6.358   1.758  26.828  0.00  0.00    +0.085 C 
ENDBRANCH  20   1
ENDBRANCH  17  20
ENDBRANCH  16  13
BRANCH   8  18
ATOM     18  C   UNL     1      -0.681  -1.514  24.759  0.00  0.00    +0.163 C 
BRANCH  18  23
ATOM      5  O   UNL     1      -1.659  -3.400  23.579  0.00  0.00    -0.274 OA
ATOM     11  N   UNL     1      -2.945  -2.281  25.119  0.00  0.00    -0.328 N 
ATOM     23  C   UNL     1      -1.789  -2.490  24.395  0.00  0.00    +0.231 C 
ATOM     39  H   UNL     1      -3.758  -2.873  24.985  0.00  0.00    +0.145 HD
ATOM     40  H   UNL     1      -3.030  -1.540  25.807  0.00  0.00    +0.145 HD
ENDBRANCH  18  23
BRANCH  18  21
ATOM     21  C   UNL     1       0.671  -2.020  24.241  0.00  0.00    +0.069 C 
BRANCH  21  22
ATOM     10  N   UNL     1       1.963   0.776  22.234  0.00  0.00    -0.360 N 
ATOM     22  C   UNL     1       1.456  -0.965  23.515  0.00  0.00    -0.020 A 
ATOM     25  C   UNL     1       2.869  -0.797  23.532  0.00  0.00    +0.003 A 
ATOM     26  C   UNL     1       0.927   0.017  22.709  0.00  0.00    +0.087 A 
ATOM     27  C   UNL     1       3.160   0.302  22.720  0.00  0.00    +0.047 A 
ATOM     28  C   UNL     1       3.931  -1.476  24.161  0.00  0.00    +0.010 A 
ATOM     32  C   UNL     1       4.467   0.757  22.506  0.00  0.00    +0.026 A 
ATOM     33  C   UNL     1       5.242  -1.032  23.956  0.00  0.00    +0.001 A 
ATOM     34  C   UNL     1       5.504   0.067  23.141  0.00  0.00    +0.002 A 
ATOM     38  H   UNL     1       1.864   1.569  21.616  0.00  0.00    +0.165 HD
ENDBRANCH  21  22
ENDBRANCH  18  21
ENDBRANCH   8  18
TORSDOF 9
ENDMDL
MODEL 4
REMARK VINA RESULT:       0.7     15.380     18.977
REMARK  Name = 7127944
REMARK  12 active torsions:
REMARK  status: ('A' for Active; 'I' for Inactive)
REMARK    1  A    between atoms: S_1  and  C_20
REMARK    2  A    between atoms: S_1  and  C_31
REMARK    3  A    between atoms: N_7  and  C_12
REMARK    4  A    between atoms: N_8  and  C_18
REMARK    5  A    between atoms: N_9  and  C_24
REMARK    6  A    between atoms: C_13  and  C_16
REMARK    7  A    between atoms: C_17  and  C_20
REMARK    8  A    between atoms: C_18  and  C_21
REMARK    9  A    between atoms: C_18  and  C_23
REMARK   10  A    between atoms: C_21  and  C_22
REMARK   11  A    between atoms: C_24  and  C_29
REMARK   12  A    between atoms: C_24  and  C_30
REMARK                            x       y       z     vdW  Elec       q    Type
REMARK                         _______ _______ _______ _____ _____    ______ ____
ROOT
ATOM      2  O   UNL     1      -2.406   2.040  22.007  0.00  0.00    -0.274 OA
ATOM      8  N   UNL     1      -1.786   0.995  23.992  0.00  0.00    -0.302 N 
ATOM     16  C   UNL     1      -2.676   1.376  23.004  0.00  0.00    +0.234 C 
ATOM     36  H   UNL     1      -2.142   0.527  24.821  0.00  0.00    +0.150 HD
ENDROOT
BRANCH  16  13
ATOM      3  O   UNL     1      -3.019  -1.802  23.106  0.00  0.00    -0.275 OA
ATOM      6  N   UNL     1      -4.007  -0.111  24.339  0.00  0.00    -0.287 N 
ATOM     12  C   UNL     1      -4.872   1.884  25.296  0.00  0.00    +0.094 C 
ATOM     13  C   UNL     1      -4.061   0.864  23.261  0.00  0.00    +0.164 C 
ATOM     14  C   UNL     1      -4.983   1.970  23.771  0.00  0.00    +0.055 C 
ATOM     15  C   UNL     1      -4.649   0.396  25.553  0.00  0.00    +0.131 C 
ATOM     17  C   UNL     1      -3.556  -1.408  24.142  0.00  0.00    +0.226 C 
BRANCH  12   7
ATOM      4  O   UNL     1      -3.631   4.146  24.003  0.00  0.00    -0.253 OA
ATOM      7  N   UNL     1      -3.784   2.684  25.800  0.00  0.00    -0.295 N 
ATOM      9  N   UNL     1      -2.205   4.360  25.821  0.00  0.00    -0.297 N 
ATOM     19  C   UNL     1      -3.243   3.766  25.107  0.00  0.00    +0.300 C 
ATOM     35  H   UNL     1      -3.424   2.487  26.729  0.00  0.00    +0.151 HD
ATOM     37  H   UNL     1      -2.004   4.016  26.756  0.00  0.00    +0.150 HD
BRANCH   9  24
ATOM     24  C   UNL     1      -1.470   5.501  25.330  0.00  0.00    +0.068 C 
ATOM     29  C   UNL     1      -0.423   5.066  24.313  0.00  0.00    +0.027 C 
ATOM     30  C   UNL     1      -2.424   6.529  24.734  0.00  0.00    +0.027 C 
ENDBRANCH   9  24
ENDBRANCH  12   7
BRANCH  17  20
ATOM     20  C   UNL     1      -3.747  -2.347  25.306  0.00  0.00    +0.164 C 
BRANCH  20   1
ATOM      1  S   UNL     1      -2.450  -2.005  26.505  0.00  0.00    -0.155 S 
ATOM     31  C   UNL     1      -1.010  -2.248  25.436  0.00  0.00    +0.085 C 
ENDBRANCH  20   1
ENDBRANCH  17  20
ENDBRANCH  16  13
BRANCH   8  18
ATOM     18  C   UNL     1      -0.382   1.343  23.969  0.00  0.00    +0.163 C 
BRANCH  18  23
ATOM      5  O   UNL     1       0.839   2.526  25.704  0.00  0.00    -0.274 OA
ATOM     11  N   UNL     1      -0.661   0.902  26.329  0.00  0.00    -0.328 N 
ATOM     23  C   UNL     1       0.024   1.659  25.401  0.00  0.00    +0.231 C 
ATOM     39  H   UNL     1      -0.495   1.024  27.323  0.00  0.00    +0.145 HD
ATOM     40  H   UNL     1      -1.348   0.205  26.064  0.00  0.00    +0.145 HD
ENDBRANCH  18  23
BRANCH  18  21
ATOM     21  C   UNL     1       0.486   0.213  23.401  0.00  0.00    +0.069 C 
BRANCH  21  22
ATOM     10  N   UNL     1       3.717   1.820  22.701  0.00  0.00    -0.360 N 
ATOM     22  C   UNL     1       1.918   0.617  23.195  0.00  0.00    -0.020 A 
ATOM     25  C   UNL     1       3.068  -0.193  23.411  0.00  0.00    +0.003 A 
ATOM     26  C   UNL     1       2.349   1.849  22.759  0.00  0.00    +0.087 A 
ATOM     27  C   UNL     1       4.183   0.586  23.093  0.00  0.00    +0.047 A 
ATOM     28  C   UNL     1       3.267  -1.517  23.847  0.00  0.00    +0.010 A 
ATOM     32  C   UNL     1       5.493   0.103  23.191  0.00  0.00    +0.026 A 
ATOM     33  C   UNL     1       4.572  -2.013  23.949  0.00  0.00    +0.001 A 
ATOM     34  C   UNL     1       5.666  -1.214  23.626  0.00  0.00    +0.002 A 
ATOM     38  H   UNL     1       4.300   2.593  22.411  0.00  0.00    +0.165 HD
ENDBRANCH  21  22
ENDBRANCH  18  21
ENDBRANCH   8  18
TORSDOF 9
ENDMDL
MODEL 5
REMARK VINA RESULT:       1.3     15.856     19.749
REMARK  Name = 7127944
REMARK  12 active torsions:
REMARK  status: ('A' for Active; 'I' for Inactive)
REMARK    1  A    between atoms: S_1  and  C_20
REMARK    2  A    between atoms: S_1  and  C_31
REMARK    3  A    between atoms: N_7  and  C_12
REMARK    4  A    between atoms: N_8  and  C_18
REMARK    5  A    between atoms: N_9  and  C_24
REMARK    6  A    between atoms: C_13  and  C_16
REMARK    7  A    between atoms: C_17  and  C_20
REMARK    8  A    between atoms: C_18  and  C_21
REMARK    9  A    between atoms: C_18  and  C_23
REMARK   10  A    between atoms: C_21  and  C_22
REMARK   11  A    between atoms: C_24  and  C_29
REMARK   12  A    between atoms: C_24  and  C_30
REMARK                            x       y       z     vdW  Elec       q    Type
REMARK                         _______ _______ _______ _____ _____    ______ ____
ROOT
ATOM      2  O   UNL     1      -2.799   3.836  27.246  0.00  0.00    -0.274 OA
ATOM      8  N   UNL     1      -2.099   3.421  25.066  0.00  0.00    -0.302 N 
ATOM     16  C   UNL     1      -3.036   3.677  26.053  0.00  0.00    +0.234 C 
ATOM     36  H   UNL     1      -2.422   3.212  24.125  0.00  0.00    +0.150 HD
ENDROOT
BRANCH  16  13
ATOM      3  O   UNL     1      -3.358   5.159  23.237  0.00  0.00    -0.275 OA
ATOM      6  N   UNL     1      -4.418   3.303  24.125  0.00  0.00    -0.287 N 
ATOM     12  C   UNL     1      -5.344   1.533  25.411  0.00  0.00    +0.094 C 
ATOM     13  C   UNL     1      -4.428   3.768  25.503  0.00  0.00    +0.164 C 
ATOM     14  C   UNL     1      -5.381   2.825  26.234  0.00  0.00    +0.055 C 
ATOM     15  C   UNL     1      -5.122   2.028  23.985  0.00  0.00    +0.131 C 
ATOM     17  C   UNL     1      -3.947   4.089  23.083  0.00  0.00    +0.226 C 
BRANCH  12   7
ATOM      4  O   UNL     1      -4.695  -1.063  24.334  0.00  0.00    -0.253 OA
ATOM      7  N   UNL     1      -4.289   0.653  25.844  0.00  0.00    -0.295 N 
ATOM      9  N   UNL     1      -2.968  -1.233  25.873  0.00  0.00    -0.297 N 
ATOM     19  C   UNL     1      -4.043  -0.591  25.264  0.00  0.00    +0.300 C 
ATOM     35  H   UNL     1      -3.656   0.970  26.572  0.00  0.00    +0.151 HD
ATOM     37  H   UNL     1      -2.448  -0.732  26.588  0.00  0.00    +0.150 HD
BRANCH   9  24
ATOM     24  C   UNL     1      -2.501  -2.537  25.465  0.00  0.00    +0.068 C 
ATOM     29  C   UNL     1      -3.339  -3.067  24.309  0.00  0.00    +0.027 C 
ATOM     30  C   UNL     1      -1.025  -2.480  25.097  0.00  0.00    +0.027 C 
ENDBRANCH   9  24
ENDBRANCH  12   7
BRANCH  17  20
ATOM     20  C   UNL     1      -4.188   3.544  21.697  0.00  0.00    +0.164 C 
BRANCH  20   1
ATOM      1  S   UNL     1      -2.726   2.612  21.215  0.00  0.00    -0.155 S 
ATOM     31  C   UNL     1      -2.851   1.258  22.410  0.00  0.00    +0.085 C 
ENDBRANCH  20   1
ENDBRANCH  17  20
ENDBRANCH  16  13
BRANCH   8  18
ATOM     18  C   UNL     1      -0.683   3.308  25.331  0.00  0.00    +0.163 C 
BRANCH  18  23
ATOM      5  O   UNL     1      -1.168   1.066  26.132  0.00  0.00    -0.274 OA
ATOM     11  N   UNL     1       0.563   2.227  27.098  0.00  0.00    -0.328 N 
ATOM     23  C   UNL     1      -0.490   2.087  26.218  0.00  0.00    +0.231 C 
ATOM     39  H   UNL     1       0.810   1.479  27.738  0.00  0.00    +0.145 HD
ATOM     40  H   UNL     1       1.129   3.069  27.142  0.00  0.00    +0.145 HD
ENDBRANCH  18  23
BRANCH  18  21
ATOM     21  C   UNL     1       0.140   3.170  24.043  0.00  0.00    +0.069 C 
BRANCH  21  22
ATOM     10  N   UNL     1       0.399  -0.445  23.428  0.00  0.00    -0.360 N 
ATOM     22  C   UNL     1       0.522   1.750  23.737  0.00  0.00    -0.020 A 
ATOM     25  C   UNL     1       1.814   1.280  23.369  0.00  0.00    +0.003 A 
ATOM     26  C   UNL     1      -0.326   0.667  23.764  0.00  0.00    +0.087 A 
ATOM     27  C   UNL     1       1.709  -0.100  23.181  0.00  0.00    +0.047 A 
ATOM     28  C   UNL     1       3.065   1.897  23.177  0.00  0.00    +0.010 A 
ATOM     32  C   UNL     1       2.798  -0.896  22.810  0.00  0.00    +0.026 A 
ATOM     33  C   UNL     1       4.164   1.113  22.806  0.00  0.00    +0.001 A 
ATOM     34  C   UNL     1       4.030  -0.261  22.626  0.00  0.00    +0.002 A 
ATOM     38  H   UNL     1       0.027  -1.383  23.370  0.00  0.00    +0.165 HD
ENDBRANCH  21  22
ENDBRANCH  18  21
ENDBRANCH   8  18
TORSDOF 9
ENDMDL
MODEL 6
REMARK VINA RESULT:       1.5     15.332     18.469
REMARK  Name = 7127944
REMARK  12 active torsions:
REMARK  status: ('A' for Active; 'I' for Inactive)
REMARK    1  A    between atoms: S_1  and  C_20
REMARK    2  A    between atoms: S_1  and  C_31
REMARK    3  A    between atoms: N_7  and  C_12
REMARK    4  A    between atoms: N_8  and  C_18
REMARK    5  A    between atoms: N_9  and  C_24
REMARK    6  A    between atoms: C_13  and  C_16
REMARK    7  A    between atoms: C_17  and  C_20
REMARK    8  A    between atoms: C_18  and  C_21
REMARK    9  A    between atoms: C_18  and  C_23
REMARK   10  A    between atoms: C_21  and  C_22
REMARK   11  A    between atoms: C_24  and  C_29
REMARK   12  A    between atoms: C_24  and  C_30
REMARK                            x       y       z     vdW  Elec       q    Type
REMARK                         _______ _______ _______ _____ _____    ______ ____
ROOT
ATOM      2  O   UNL     1      -0.196   0.506  27.611  0.00  0.00    -0.274 OA
ATOM      8  N   UNL     1      -1.021   1.311  25.589  0.00  0.00    -0.302 N 
ATOM     16  C   UNL     1      -0.711   0.326  26.512  0.00  0.00    +0.234 C 
ATOM     36  H   UNL     1      -1.358   1.035  24.672  0.00  0.00    +0.150 HD
ENDROOT
BRANCH  16  13
ATOM      3  O   UNL     1      -3.833  -0.177  26.033  0.00  0.00    -0.275 OA
ATOM      6  N   UNL     1      -1.966  -0.902  24.874  0.00  0.00    -0.287 N 
ATOM     12  C   UNL     1       0.169  -1.523  24.035  0.00  0.00    +0.094 C 
ATOM     13  C   UNL     1      -1.100  -1.040  26.035  0.00  0.00    +0.164 C 
ATOM     14  C   UNL     1       0.112  -1.825  25.535  0.00  0.00    +0.055 C 
ATOM     15  C   UNL     1      -1.299  -1.352  23.652  0.00  0.00    +0.131 C 
ATOM     17  C   UNL     1      -3.303  -0.553  24.986  0.00  0.00    +0.226 C 
BRANCH  12   7
ATOM      4  O   UNL     1       2.935  -1.395  23.224  0.00  0.00    -0.253 OA
ATOM      7  N   UNL     1       0.937  -0.337  23.755  0.00  0.00    -0.295 N 
ATOM      9  N   UNL     1       2.774   0.919  23.161  0.00  0.00    -0.297 N 
ATOM     19  C   UNL     1       2.276  -0.365  23.367  0.00  0.00    +0.300 C 
ATOM     35  H   UNL     1       0.473   0.565  23.791  0.00  0.00    +0.151 HD
ATOM     37  H   UNL     1       2.132   1.703  23.237  0.00  0.00    +0.150 HD
BRANCH   9  24
ATOM     24  C   UNL     1       4.134   1.175  22.753  0.00  0.00    +0.068 C 
ATOM     29  C   UNL     1       5.114   0.641  23.791  0.00  0.00    +0.027 C 
ATOM     30  C   UNL     1       4.399   0.569  21.381  0.00  0.00    +0.027 C 
ENDBRANCH   9  24
ENDBRANCH  12   7
BRANCH  17  20
ATOM     20  C   UNL     1      -4.109  -0.645  23.715  0.00  0.00    +0.164 C 
BRANCH  20   1
ATOM      1  S   UNL     1      -4.738  -2.325  23.586  0.00  0.00    -0.155 S 
ATOM     31  C   UNL     1      -3.619  -3.134  24.756  0.00  0.00    +0.085 C 
ENDBRANCH  20   1
ENDBRANCH  17  20
ENDBRANCH  16  13
BRANCH   8  18
ATOM     18  C   UNL     1      -0.767   2.716  25.817  0.00  0.00    +0.163 C 
BRANCH  18  23
ATOM      5  O   UNL     1       0.570   2.522  23.798  0.00  0.00    -0.274 OA
ATOM     11  N   UNL     1      -0.142   4.607  24.449  0.00  0.00    -0.328 N 
ATOM     23  C   UNL     1      -0.027   3.240  24.596  0.00  0.00    +0.231 C 
ATOM     39  H   UNL     1       0.294   5.084  23.666  0.00  0.00    +0.145 HD
ATOM     40  H   UNL     1      -0.658   5.185  25.104  0.00  0.00    +0.145 HD
ENDBRANCH  18  23
BRANCH  18  21
ATOM     21  C   UNL     1      -2.061   3.510  26.043  0.00  0.00    +0.069 C 
BRANCH  21  22
ATOM     10  N   UNL     1      -4.283   2.723  23.222  0.00  0.00    -0.360 N 
ATOM     22  C   UNL     1      -3.161   3.126  25.095  0.00  0.00    -0.020 A 
ATOM     25  C   UNL     1      -4.469   2.689  25.446  0.00  0.00    +0.003 A 
ATOM     26  C   UNL     1      -3.077   3.136  23.722  0.00  0.00    +0.087 A 
ATOM     27  C   UNL     1      -5.152   2.444  24.253  0.00  0.00    +0.047 A 
ATOM     28  C   UNL     1      -5.139   2.479  26.667  0.00  0.00    +0.010 A 
ATOM     32  C   UNL     1      -6.478   1.997  24.221  0.00  0.00    +0.026 A 
ATOM     33  C   UNL     1      -6.466   2.033  26.650  0.00  0.00    +0.001 A 
ATOM     34  C   UNL     1      -7.123   1.795  25.445  0.00  0.00    +0.002 A 
ATOM     38  H   UNL     1      -4.504   2.636  22.241  0.00  0.00    +0.165 HD
ENDBRANCH  21  22
ENDBRANCH  18  21
ENDBRANCH   8  18
TORSDOF 9
ENDMDL
MODEL 7
REMARK VINA RESULT:       2.0     14.925     18.073
REMARK  Name = 7127944
REMARK  12 active torsions:
REMARK  status: ('A' for Active; 'I' for Inactive)
REMARK    1  A    between atoms: S_1  and  C_20
REMARK    2  A    between atoms: S_1  and  C_31
REMARK    3  A    between atoms: N_7  and  C_12
REMARK    4  A    between atoms: N_8  and  C_18
REMARK    5  A    between atoms: N_9  and  C_24
REMARK    6  A    between atoms: C_13  and  C_16
REMARK    7  A    between atoms: C_17  and  C_20
REMARK    8  A    between atoms: C_18  and  C_21
REMARK    9  A    between atoms: C_18  and  C_23
REMARK   10  A    between atoms: C_21  and  C_22
REMARK   11  A    between atoms: C_24  and  C_29
REMARK   12  A    between atoms: C_24  and  C_30
REMARK                            x       y       z     vdW  Elec       q    Type
REMARK                         _______ _______ _______ _____ _____    ______ ____
ROOT
ATOM      2  O   UNL     1       0.180   1.251  25.019  0.00  0.00    -0.274 OA
ATOM      8  N   UNL     1      -0.800   1.261  27.130  0.00  0.00    -0.302 N 
ATOM     16  C   UNL     1      -0.455   0.699  25.913  0.00  0.00    +0.234 C 
ATOM     36  H   UNL     1      -1.409   0.742  27.755  0.00  0.00    +0.150 HD
ENDROOT
BRANCH  16  13
ATOM      3  O   UNL     1      -3.622   0.261  25.821  0.00  0.00    -0.275 OA
ATOM      6  N   UNL     1      -1.893  -0.795  24.702  0.00  0.00    -0.287 N 
ATOM     12  C   UNL     1       0.135  -1.693  23.848  0.00  0.00    +0.094 C 
ATOM     13  C   UNL     1      -0.928  -0.718  25.788  0.00  0.00    +0.164 C 
ATOM     14  C   UNL     1       0.208  -1.653  25.377  0.00  0.00    +0.055 C 
ATOM     15  C   UNL     1      -1.356  -1.537  23.560  0.00  0.00    +0.131 C 
ATOM     17  C   UNL     1      -3.203  -0.362  24.844  0.00  0.00    +0.226 C 
BRANCH  12   7
ATOM      4  O   UNL     1       3.011  -1.523  23.688  0.00  0.00    -0.253 OA
ATOM      7  N   UNL     1       0.910  -0.638  23.247  0.00  0.00    -0.295 N 
ATOM      9  N   UNL     1       2.795   0.500  22.574  0.00  0.00    -0.297 N 
ATOM     19  C   UNL     1       2.304  -0.635  23.213  0.00  0.00    +0.300 C 
ATOM     35  H   UNL     1       0.423   0.119  22.777  0.00  0.00    +0.151 HD
ATOM     37  H   UNL     1       2.130   1.143  22.152  0.00  0.00    +0.150 HD
BRANCH   9  24
ATOM     24  C   UNL     1       4.206   0.753  22.402  0.00  0.00    +0.068 C 
ATOM     29  C   UNL     1       4.481   2.251  22.376  0.00  0.00    +0.027 C 
ATOM     30  C   UNL     1       5.005   0.064  23.500  0.00  0.00    +0.027 C 
ENDBRANCH   9  24
ENDBRANCH  12   7
BRANCH  17  20
ATOM     20  C   UNL     1      -4.125  -0.691  23.698  0.00  0.00    +0.164 C 
BRANCH  20   1
ATOM      1  S   UNL     1      -4.400  -2.469  23.709  0.00  0.00    -0.155 S 
ATOM     31  C   UNL     1      -3.617  -2.863  25.293  0.00  0.00    +0.085 C 
ENDBRANCH  20   1
ENDBRANCH  17  20
ENDBRANCH  16  13
BRANCH   8  18
ATOM     18  C   UNL     1      -0.443   2.610  27.507  0.00  0.00    +0.163 C 
BRANCH  18  23
ATOM      5  O   UNL     1       1.967   2.899  27.386  0.00  0.00    -0.274 OA
ATOM     11  N   UNL     1       1.047   2.152  29.354  0.00  0.00    -0.328 N 
ATOM     23  C   UNL     1       0.982   2.563  28.039  0.00  0.00    +0.231 C 
ATOM     39  H   UNL     1       1.939   2.090  29.836  0.00  0.00    +0.145 HD
ATOM     40  H   UNL     1       0.222   1.899  29.888  0.00  0.00    +0.145 HD
ENDBRANCH  18  23
BRANCH  18  21
ATOM     21  C   UNL     1      -0.544   3.589  26.330  0.00  0.00    +0.069 C 
BRANCH  21  22
ATOM     10  N   UNL     1      -4.097   4.118  25.550  0.00  0.00    -0.360 N 
ATOM     22  C   UNL     1      -1.931   3.682  25.760  0.00  0.00    -0.020 A 
ATOM     25  C   UNL     1      -2.352   3.236  24.476  0.00  0.00    +0.003 A 
ATOM     26  C   UNL     1      -3.025   4.220  26.396  0.00  0.00    +0.087 A 
ATOM     27  C   UNL     1      -3.714   3.522  24.370  0.00  0.00    +0.047 A 
ATOM     28  C   UNL     1      -1.702   2.616  23.391  0.00  0.00    +0.010 A 
ATOM     32  C   UNL     1      -4.463   3.215  23.228  0.00  0.00    +0.026 A 
ATOM     33  C   UNL     1      -2.438   2.303  22.242  0.00  0.00    +0.001 A 
ATOM     34  C   UNL     1      -3.797   2.600  22.164  0.00  0.00    +0.002 A 
ATOM     38  H   UNL     1      -5.033   4.435  25.760  0.00  0.00    +0.165 HD
ENDBRANCH  21  22
ENDBRANCH  18  21
ENDBRANCH   8  18
TORSDOF 9
ENDMDL
MODEL 8
REMARK VINA RESULT:       2.3     15.110     18.186
REMARK  Name = 7127944
REMARK  12 active torsions:
REMARK  status: ('A' for Active; 'I' for Inactive)
REMARK    1  A    between atoms: S_1  and  C_20
REMARK    2  A    between atoms: S_1  and  C_31
REMARK    3  A    between atoms: N_7  and  C_12
REMARK    4  A    between atoms: N_8  and  C_18
REMARK    5  A    between atoms: N_9  and  C_24
REMARK    6  A    between atoms: C_13  and  C_16
REMARK    7  A    between atoms: C_17  and  C_20
REMARK    8  A    between atoms: C_18  and  C_21
REMARK    9  A    between atoms: C_18  and  C_23
REMARK   10  A    between atoms: C_21  and  C_22
REMARK   11  A    between atoms: C_24  and  C_29
REMARK   12  A    between atoms: C_24  and  C_30
REMARK                            x       y       z     vdW  Elec       q    Type
REMARK                         _______ _______ _______ _____ _____    ______ ____
ROOT
ATOM      2  O   UNL     1       1.269   1.427  25.093  0.00  0.00    -0.274 OA
ATOM      8  N   UNL     1      -0.034   3.095  24.124  0.00  0.00    -0.302 N 
ATOM     16  C   UNL     1       0.796   1.987  24.108  0.00  0.00    +0.234 C 
ATOM     36  H   UNL     1      -0.288   3.530  23.242  0.00  0.00    +0.150 HD
ENDROOT
BRANCH  16  13
ATOM      3  O   UNL     1       3.773   2.370  23.003  0.00  0.00    -0.275 OA
ATOM      6  N   UNL     1       2.244   0.653  22.734  0.00  0.00    -0.287 N 
ATOM     12  C   UNL     1       0.388  -0.824  22.605  0.00  0.00    +0.094 C 
ATOM     13  C   UNL     1       1.058   1.495  22.717  0.00  0.00    +0.164 C 
ATOM     14  C   UNL     1      -0.066   0.587  22.222  0.00  0.00    +0.055 C 
ATOM     15  C   UNL     1       1.908  -0.751  22.492  0.00  0.00    +0.131 C 
ATOM     17  C   UNL     1       3.526   1.181  22.797  0.00  0.00    +0.226 C 
BRANCH  12   7
ATOM      4  O   UNL     1      -2.274  -1.549  23.449  0.00  0.00    -0.253 OA
ATOM      7  N   UNL     1      -0.034  -1.181  23.936  0.00  0.00    -0.295 N 
ATOM      9  N   UNL     1      -1.478  -1.821  25.611  0.00  0.00    -0.297 N 
ATOM     19  C   UNL     1      -1.347  -1.520  24.258  0.00  0.00    +0.300 C 
ATOM     35  H   UNL     1       0.665  -1.241  24.670  0.00  0.00    +0.151 HD
ATOM     37  H   UNL     1      -0.640  -1.837  26.185  0.00  0.00    +0.150 HD
BRANCH   9  24
ATOM     24  C   UNL     1      -2.734  -2.204  26.211  0.00  0.00    +0.068 C 
ATOM     29  C   UNL     1      -3.591  -0.975  26.486  0.00  0.00    +0.027 C 
ATOM     30  C   UNL     1      -3.465  -3.198  25.319  0.00  0.00    +0.027 C 
ENDBRANCH   9  24
ENDBRANCH  12   7
BRANCH  17  20
ATOM     20  C   UNL     1       4.647   0.191  22.607  0.00  0.00    +0.164 C 
BRANCH  20   1
ATOM      1  S   UNL     1       5.235  -0.290  24.238  0.00  0.00    -0.155 S 
ATOM     31  C   UNL     1       4.873  -2.062  24.155  0.00  0.00    +0.085 C 
ENDBRANCH  20   1
ENDBRANCH  17  20
ENDBRANCH  16  13
BRANCH   8  18
ATOM     18  C   UNL     1      -0.457   3.748  25.343  0.00  0.00    +0.163 C 
BRANCH  18  23
ATOM      5  O   UNL     1      -0.450   5.871  24.161  0.00  0.00    -0.274 OA
ATOM     11  N   UNL     1      -2.225   5.385  25.538  0.00  0.00    -0.328 N 
ATOM     23  C   UNL     1      -1.007   5.112  24.951  0.00  0.00    +0.231 C 
ATOM     39  H   UNL     1      -2.709   6.257  25.349  0.00  0.00    +0.145 HD
ATOM     40  H   UNL     1      -2.683   4.737  26.170  0.00  0.00    +0.145 HD
ENDBRANCH  18  23
BRANCH  18  21
ATOM     21  C   UNL     1      -1.520   2.938  26.096  0.00  0.00    +0.069 C 
BRANCH  21  22
ATOM     10  N   UNL     1      -3.490   1.255  23.488  0.00  0.00    -0.360 N 
ATOM     22  C   UNL     1      -2.551   2.330  25.188  0.00  0.00    -0.020 A 
ATOM     25  C   UNL     1      -3.962   2.352  25.373  0.00  0.00    +0.003 A 
ATOM     26  C   UNL     1      -2.291   1.648  24.022  0.00  0.00    +0.087 A 
ATOM     27  C   UNL     1      -4.527   1.671  24.292  0.00  0.00    +0.047 A 
ATOM     28  C   UNL     1      -4.815   2.888  26.358  0.00  0.00    +0.010 A 
ATOM     32  C   UNL     1      -5.908   1.499  24.147  0.00  0.00    +0.026 A 
ATOM     33  C   UNL     1      -6.199   2.724  26.225  0.00  0.00    +0.001 A 
ATOM     34  C   UNL     1      -6.734   2.039  25.137  0.00  0.00    +0.002 A 
ATOM     38  H   UNL     1      -3.598   0.735  22.629  0.00  0.00    +0.165 HD
ENDBRANCH  21  22
ENDBRANCH  18  21
ENDBRANCH   8  18
TORSDOF 9
ENDMDL
MODEL 9
REMARK VINA RESULT:       2.7     15.158     18.458
REMARK  Name = 7127944
REMARK  12 active torsions:
REMARK  status: ('A' for Active; 'I' for Inactive)
REMARK    1  A    between atoms: S_1  and  C_20
REMARK    2  A    between atoms: S_1  and  C_31
REMARK    3  A    between atoms: N_7  and  C_12
REMARK    4  A    between atoms: N_8  and  C_18
REMARK    5  A    between atoms: N_9  and  C_24
REMARK    6  A    between atoms: C_13  and  C_16
REMARK    7  A    between atoms: C_17  and  C_20
REMARK    8  A    between atoms: C_18  and  C_21
REMARK    9  A    between atoms: C_18  and  C_23
REMARK   10  A    between atoms: C_21  and  C_22
REMARK   11  A    between atoms: C_24  and  C_29
REMARK   12  A    between atoms: C_24  and  C_30
REMARK                            x       y       z     vdW  Elec       q    Type
REMARK                         _______ _______ _______ _____ _____    ______ ____
ROOT
ATOM      2  O   UNL     1      -1.159   0.656  25.814  0.00  0.00    -0.274 OA
ATOM      8  N   UNL     1      -2.585   0.041  24.081  0.00  0.00    -0.302 N 
ATOM     16  C   UNL     1      -1.708   0.885  24.740  0.00  0.00    +0.234 C 
ATOM     36  H   UNL     1      -3.053   0.376  23.243  0.00  0.00    +0.150 HD
ENDROOT
BRANCH  16  13
ATOM      3  O   UNL     1      -4.230   2.160  23.242  0.00  0.00    -0.275 OA
ATOM      6  N   UNL     1      -2.459   3.135  24.369  0.00  0.00    -0.287 N 
ATOM     12  C   UNL     1      -0.457   3.748  25.491  0.00  0.00    +0.094 C 
ATOM     13  C   UNL     1      -1.460   2.152  23.979  0.00  0.00    +0.164 C 
ATOM     14  C   UNL     1      -0.119   2.778  24.356  0.00  0.00    +0.055 C 
ATOM     15  C   UNL     1      -1.864   4.225  25.143  0.00  0.00    +0.131 C 
ATOM     17  C   UNL     1      -3.761   3.096  23.892  0.00  0.00    +0.226 C 
BRANCH  12   7
ATOM      4  O   UNL     1       1.875   3.293  27.129  0.00  0.00    -0.253 OA
ATOM      7  N   UNL     1      -0.413   3.103  26.779  0.00  0.00    -0.295 N 
ATOM      9  N   UNL     1       0.521   2.274  28.713  0.00  0.00    -0.297 N 
ATOM     19  C   UNL     1       0.763   2.924  27.506  0.00  0.00    +0.300 C 
ATOM     35  H   UNL     1      -1.285   2.808  27.207  0.00  0.00    +0.151 HD
ATOM     37  H   UNL     1      -0.442   2.071  28.968  0.00  0.00    +0.150 HD
BRANCH   9  24
ATOM     24  C   UNL     1       1.566   1.963  29.659  0.00  0.00    +0.068 C 
ATOM     29  C   UNL     1       2.835   2.738  29.328  0.00  0.00    +0.027 C 
ATOM     30  C   UNL     1       1.098   2.252  31.080  0.00  0.00    +0.027 C 
ENDBRANCH   9  24
ENDBRANCH  12   7
BRANCH  17  20
ATOM     20  C   UNL     1      -4.615   4.292  24.231  0.00  0.00    +0.164 C 
BRANCH  20   1
ATOM      1  S   UNL     1      -5.393   3.975  25.822  0.00  0.00    -0.155 S 
ATOM     31  C   UNL     1      -5.877   2.250  25.558  0.00  0.00    +0.085 C 
ENDBRANCH  20   1
ENDBRANCH  17  20
ENDBRANCH  16  13
BRANCH   8  18
ATOM     18  C   UNL     1      -2.973  -1.254  24.594  0.00  0.00    +0.163 C 
BRANCH  18  23
ATOM      5  O   UNL     1      -5.300  -0.672  24.209  0.00  0.00    -0.274 OA
ATOM     11  N   UNL     1      -4.570  -2.758  23.580  0.00  0.00    -0.328 N 
ATOM     23  C   UNL     1      -4.401  -1.507  24.136  0.00  0.00    +0.231 C 
ATOM     39  H   UNL     1      -5.474  -3.050  23.221  0.00  0.00    +0.145 HD
ATOM     40  H   UNL     1      -3.812  -3.429  23.507  0.00  0.00    +0.145 HD
ENDBRANCH  18  23
BRANCH  18  21
ATOM     21  C   UNL     1      -2.046  -2.374  24.103  0.00  0.00    +0.069 C 
BRANCH  21  22
ATOM     10  N   UNL     1       1.408  -2.041  25.318  0.00  0.00    -0.360 N 
ATOM     22  C   UNL     1      -0.593  -2.089  24.357  0.00  0.00    -0.020 A 
ATOM     25  C   UNL     1       0.287  -1.353  23.516  0.00  0.00    +0.003 A 
ATOM     26  C   UNL     1       0.125  -2.500  25.457  0.00  0.00    +0.087 A 
ATOM     27  C   UNL     1       1.535  -1.338  24.142  0.00  0.00    +0.047 A 
ATOM     28  C   UNL     1       0.141  -0.696  22.278  0.00  0.00    +0.010 A 
ATOM     32  C   UNL     1       2.649  -0.696  23.589  0.00  0.00    +0.026 A 
ATOM     33  C   UNL     1       1.247  -0.049  21.714  0.00  0.00    +0.001 A 
ATOM     34  C   UNL     1       2.480  -0.051  22.360  0.00  0.00    +0.002 A 
ATOM     38  H   UNL     1       2.153  -2.197  25.982  0.00  0.00    +0.165 HD
ENDBRANCH  21  22
ENDBRANCH  18  21
ENDBRANCH   8  18
TORSDOF 9
ENDMDL
