MODEL 1
REMARK VINA RESULT:       9.6      0.000      0.000
REMARK  Name = 11911777
REMARK  9 active torsions:
REMARK  status: ('A' for Active; 'I' for Inactive)
REMARK    1  A    between atoms: O_4  and  C_28
REMARK    2  A    between atoms: O_4  and  C_35
REMARK    3  A    between atoms: N_5  and  C_12
REMARK    4  A    between atoms: N_6  and  C_13
REMARK    5  A    between atoms: N_9  and  C_26
REMARK    6  A    between atoms: N_9  and  C_30
REMARK    7  A    between atoms: N_9  and  C_31
REMARK    8  A    between atoms: C_16  and  C_18
REMARK    9  A    between atoms: C_21  and  C_27
REMARK                            x       y       z     vdW  Elec       q    Type
REMARK                         _______ _______ _______ _____ _____    ______ ____
ROOT
ATOM      1  O   UNL     1      -2.637  -1.325  26.122  0.00  0.00    -0.370 OA
ATOM      2  O   UNL     1      -3.991  -1.291  23.311  0.00  0.00    -0.370 OA
ATOM     10  C   UNL     1      -2.699  -0.877  23.786  0.00  0.00    +0.171 C 
ATOM     11  C   UNL     1      -2.896  -0.282  25.166  0.00  0.00    +0.171 C 
ATOM     12  C   UNL     1      -1.819  -2.081  24.026  0.00  0.00    +0.130 C 
ATOM     13  C   UNL     1      -4.356   0.106  25.197  0.00  0.00    +0.130 C 
ATOM     14  C   UNL     1      -2.229  -2.511  25.424  0.00  0.00    +0.185 C 
ATOM     15  C   UNL     1      -4.991  -0.913  24.269  0.00  0.00    +0.185 C 
ENDROOT
BRANCH  13   6
ATOM      6  N   UNL     1      -4.524   1.441  24.665  0.00  0.00    -0.306 N 
ATOM      7  N   UNL     1      -2.641   2.252  25.806  0.00  0.00    -0.214 NA
ATOM      8  N   UNL     1      -3.951   3.700  24.395  0.00  0.00    -0.223 NA
ATOM     17  C   UNL     1      -3.680   2.495  24.964  0.00  0.00    +0.216 A 
ATOM     21  C   UNL     1      -1.838   3.303  26.076  0.00  0.00    +0.080 A 
ATOM     22  C   UNL     1      -3.109   4.707  24.707  0.00  0.00    +0.116 A 
ATOM     23  C   UNL     1      -2.025   4.564  25.550  0.00  0.00    +0.048 A 
ATOM     37  H   UNL     1      -5.264   1.620  23.996  0.00  0.00    +0.149 HD
BRANCH  21  27
ATOM     27  C   UNL     1      -0.741   3.022  26.970  0.00  0.00    +0.042 A 
ATOM     28  C   UNL     1       0.481   2.548  26.486  0.00  0.00    +0.129 A 
ATOM     29  C   UNL     1      -0.907   3.229  28.343  0.00  0.00    +0.013 A 
ATOM     32  C   UNL     1       1.530   2.284  27.367  0.00  0.00    +0.046 A 
ATOM     33  C   UNL     1       0.142   2.964  29.224  0.00  0.00    +0.001 A 
ATOM     34  C   UNL     1       1.361   2.492  28.736  0.00  0.00    +0.004 A 
BRANCH  28   4
ATOM      4  O   UNL     1       0.676   2.336  25.153  0.00  0.00    -0.494 OA
ATOM     35  C   UNL     1       0.302   3.391  24.269  0.00  0.00    +0.277 C 
ENDBRANCH  28   4
ENDBRANCH  21  27
ENDBRANCH  13   6
BRANCH  12   5
ATOM      3  O   UNL     1      -0.658   0.124  22.598  0.00  0.00    -0.270 OA
ATOM      5  N   UNL     1      -0.421  -1.724  23.978  0.00  0.00    -0.304 N 
ATOM     16  C   UNL     1       0.047  -0.635  23.258  0.00  0.00    +0.244 C 
ATOM     36  H   UNL     1       0.233  -2.374  24.406  0.00  0.00    +0.149 HD
BRANCH  16  18
ATOM     18  C   UNL     1       1.516  -0.418  23.289  0.00  0.00    +0.037 A 
ATOM     19  C   UNL     1       2.326  -1.413  23.794  0.00  0.00    +0.015 A 
ATOM     20  C   UNL     1       2.024   0.773  22.812  0.00  0.00    +0.015 A 
ATOM     24  C   UNL     1       3.706  -1.210  23.823  0.00  0.00    +0.024 A 
ATOM     25  C   UNL     1       3.403   0.977  22.842  0.00  0.00    +0.024 A 
ATOM     26  C   UNL     1       4.245  -0.014  23.347  0.00  0.00    +0.029 A 
BRANCH  26   9
ATOM      9  N   UNL     1       5.639   0.192  23.376  0.00  0.00    -0.336 N 
ATOM     30  C   UNL     1       6.517  -0.607  22.545  0.00  0.00    +0.129 C 
ATOM     31  C   UNL     1       6.215   1.196  24.249  0.00  0.00    +0.129 C 
ENDBRANCH  26   9
ENDBRANCH  16  18
ENDBRANCH  12   5
TORSDOF 6
ENDMDL
MODEL 2
REMARK VINA RESULT:      10.2      1.666      2.314
REMARK  Name = 11911777
REMARK  9 active torsions:
REMARK  status: ('A' for Active; 'I' for Inactive)
REMARK    1  A    between atoms: O_4  and  C_28
REMARK    2  A    between atoms: O_4  and  C_35
REMARK    3  A    between atoms: N_5  and  C_12
REMARK    4  A    between atoms: N_6  and  C_13
REMARK    5  A    between atoms: N_9  and  C_26
REMARK    6  A    between atoms: N_9  and  C_30
REMARK    7  A    between atoms: N_9  and  C_31
REMARK    8  A    between atoms: C_16  and  C_18
REMARK    9  A    between atoms: C_21  and  C_27
REMARK                            x       y       z     vdW  Elec       q    Type
REMARK                         _______ _______ _______ _____ _____    ______ ____
ROOT
ATOM      1  O   UNL     1      -4.306  -0.165  26.497  0.00  0.00    -0.370 OA
ATOM      2  O   UNL     1      -6.052   0.332  23.958  0.00  0.00    -0.370 OA
ATOM     10  C   UNL     1      -4.661   0.546  24.254  0.00  0.00    +0.171 C 
ATOM     11  C   UNL     1      -4.573   1.000  25.698  0.00  0.00    +0.171 C 
ATOM     12  C   UNL     1      -3.914  -0.767  24.235  0.00  0.00    +0.130 C 
ATOM     13  C   UNL     1      -5.950   1.540  26.001  0.00  0.00    +0.130 C 
ATOM     14  C   UNL     1      -4.160  -1.304  25.634  0.00  0.00    +0.185 C 
ATOM     15  C   UNL     1      -6.840   0.707  25.097  0.00  0.00    +0.185 C 
ENDROOT
BRANCH  13   6
ATOM      6  N   UNL     1      -6.027   2.937  25.631  0.00  0.00    -0.306 N 
ATOM      7  N   UNL     1      -3.695   3.133  25.459  0.00  0.00    -0.214 NA
ATOM      8  N   UNL     1      -5.130   5.019  25.025  0.00  0.00    -0.223 NA
ATOM     17  C   UNL     1      -4.918   3.719  25.363  0.00  0.00    +0.216 A 
ATOM     21  C   UNL     1      -2.636   3.925  25.192  0.00  0.00    +0.080 A 
ATOM     22  C   UNL     1      -4.028   5.754  24.771  0.00  0.00    +0.116 A 
ATOM     23  C   UNL     1      -2.743   5.254  24.839  0.00  0.00    +0.048 A 
ATOM     37  H   UNL     1      -6.935   3.369  25.505  0.00  0.00    +0.149 HD
BRANCH  21  27
ATOM     27  C   UNL     1      -1.348   3.283  25.298  0.00  0.00    +0.042 A 
ATOM     28  C   UNL     1      -0.646   2.880  24.159  0.00  0.00    +0.129 A 
ATOM     29  C   UNL     1      -0.795   3.062  26.563  0.00  0.00    +0.013 A 
ATOM     32  C   UNL     1       0.598   2.261  24.283  0.00  0.00    +0.046 A 
ATOM     33  C   UNL     1       0.449   2.443  26.687  0.00  0.00    +0.001 A 
ATOM     34  C   UNL     1       1.146   2.043  25.547  0.00  0.00    +0.004 A 
BRANCH  28   4
ATOM      4  O   UNL     1      -1.157   3.081  22.910  0.00  0.00    -0.494 OA
ATOM     35  C   UNL     1      -2.152   2.162  22.463  0.00  0.00    +0.277 C 
ENDBRANCH  28   4
ENDBRANCH  21  27
ENDBRANCH  13   6
BRANCH  12   5
ATOM      3  O   UNL     1      -1.880  -2.792  24.121  0.00  0.00    -0.270 OA
ATOM      5  N   UNL     1      -2.505  -0.563  23.995  0.00  0.00    -0.304 N 
ATOM     16  C   UNL     1      -1.595  -1.608  23.957  0.00  0.00    +0.244 C 
ATOM     36  H   UNL     1      -2.180   0.400  23.966  0.00  0.00    +0.149 HD
BRANCH  16  18
ATOM     18  C   UNL     1      -0.177  -1.229  23.726  0.00  0.00    +0.037 A 
ATOM     19  C   UNL     1       0.783  -1.669  24.613  0.00  0.00    +0.015 A 
ATOM     20  C   UNL     1       0.134  -0.449  22.631  0.00  0.00    +0.015 A 
ATOM     24  C   UNL     1       2.115  -1.313  24.396  0.00  0.00    +0.024 A 
ATOM     25  C   UNL     1       1.465  -0.093  22.414  0.00  0.00    +0.024 A 
ATOM     26  C   UNL     1       2.456  -0.525  23.297  0.00  0.00    +0.029 A 
BRANCH  26   9
ATOM      9  N   UNL     1       3.801  -0.165  23.077  0.00  0.00    -0.336 N 
ATOM     30  C   UNL     1       4.872  -0.911  23.707  0.00  0.00    +0.129 C 
ATOM     31  C   UNL     1       4.130   0.964  22.229  0.00  0.00    +0.129 C 
ENDBRANCH  26   9
ENDBRANCH  16  18
ENDBRANCH  12   5
TORSDOF 6
ENDMDL
