MODEL 1
REMARK VINA RESULT:       8.1      0.000      0.000
REMARK  Name = 7144116
REMARK  5 active torsions:
REMARK  status: ('A' for Active; 'I' for Inactive)
REMARK    1  A    between atoms: S_2  and  N_7
REMARK    2  A    between atoms: S_2  and  C_20
REMARK    3  A    between atoms: O_6  and  C_30
REMARK    4  A    between atoms: O_6  and  C_32
REMARK    5  A    between atoms: C_16  and  C_21
REMARK                            x       y       z     vdW  Elec       q    Type
REMARK                         _______ _______ _______ _____ _____    ______ ____
ROOT
ATOM      5  O   UNL     1      -3.026   5.282  26.387  0.00  0.00    -0.268 OA
ATOM      7  N   UNL     1      -3.976   1.032  24.030  0.00  0.00    -0.176 NA
ATOM      8  N   UNL     1      -2.571   3.783  24.647  0.00  0.00    -0.311 N 
ATOM      9  C   UNL     1      -4.333   3.208  22.874  0.00  0.00    +0.025 C 
ATOM     10  C   UNL     1      -2.123   2.143  22.794  0.00  0.00    +0.053 C 
ATOM     11  C   UNL     1      -3.135   2.945  21.978  0.00  0.00    +0.017 C 
ATOM     12  C   UNL     1      -4.974   1.890  23.333  0.00  0.00    +0.114 C 
ATOM     13  C   UNL     1      -2.752   0.799  23.209  0.00  0.00    +0.119 C 
ATOM     14  C   UNL     1      -3.882   4.075  24.051  0.00  0.00    +0.130 C 
ATOM     15  C   UNL     1      -1.646   2.922  24.024  0.00  0.00    +0.034 A 
ATOM     16  C   UNL     1      -0.392   2.794  24.532  0.00  0.00    +0.002 A 
ATOM     17  C   UNL     1      -2.261   4.507  25.811  0.00  0.00    +0.252 A 
ATOM     18  C   UNL     1      -0.038   3.523  25.735  0.00  0.00    +0.015 A 
ATOM     19  C   UNL     1      -0.900   4.322  26.363  0.00  0.00    +0.071 A 
ENDROOT
BRANCH  16  21
ATOM     21  C   UNL     1       0.619   1.918  23.901  0.00  0.00    -0.016 A 
ATOM     24  C   UNL     1       0.315   0.586  23.644  0.00  0.00    +0.012 A 
ATOM     25  C   UNL     1       1.868   2.434  23.570  0.00  0.00    +0.012 A 
ATOM     26  C   UNL     1       1.270  -0.241  23.050  0.00  0.00    +0.046 A 
ATOM     27  C   UNL     1       2.823   1.608  22.976  0.00  0.00    +0.046 A 
ATOM     30  C   UNL     1       2.523   0.270  22.716  0.00  0.00    +0.120 A 
BRANCH  30   6
ATOM      6  O   UNL     1       3.454  -0.535  22.137  0.00  0.00    -0.495 OA
ATOM     32  C   UNL     1       4.759  -0.540  22.715  0.00  0.00    +0.277 C 
ENDBRANCH  30   6
ENDBRANCH  16  21
BRANCH   7   2
ATOM      2  S   UNL     1      -4.607  -0.344  24.827  0.00  0.00    +0.061 S 
ATOM      3  O   UNL     1      -5.451  -1.078  23.908  0.00  0.00    -0.153 OA
ATOM      4  O   UNL     1      -5.095   0.050  26.133  0.00  0.00    -0.153 OA
BRANCH   2  20
ATOM      1 CL   UNL     1       0.645  -3.642  25.650  0.00  0.00    -0.084 Cl
ATOM     20  C   UNL     1      -3.125  -1.275  25.060  0.00  0.00    +0.106 A 
ATOM     22  C   UNL     1      -2.120  -0.760  25.862  0.00  0.00    +0.030 A 
ATOM     23  C   UNL     1      -2.991  -2.503  24.434  0.00  0.00    +0.030 A 
ATOM     28  C   UNL     1      -0.950  -1.495  26.045  0.00  0.00    +0.022 A 
ATOM     29  C   UNL     1      -1.820  -3.239  24.618  0.00  0.00    +0.022 A 
ATOM     31  C   UNL     1      -0.799  -2.735  25.423  0.00  0.00    +0.041 A 
ENDBRANCH   2  20
ENDBRANCH   7   2
TORSDOF 4
ENDMDL
MODEL 2
REMARK VINA RESULT:       8.3      1.711      2.110
REMARK  Name = 7144116
REMARK  5 active torsions:
REMARK  status: ('A' for Active; 'I' for Inactive)
REMARK    1  A    between atoms: S_2  and  N_7
REMARK    2  A    between atoms: S_2  and  C_20
REMARK    3  A    between atoms: O_6  and  C_30
REMARK    4  A    between atoms: O_6  and  C_32
REMARK    5  A    between atoms: C_16  and  C_21
REMARK                            x       y       z     vdW  Elec       q    Type
REMARK                         _______ _______ _______ _____ _____    ______ ____
ROOT
ATOM      5  O   UNL     1      -2.508   4.370  29.096  0.00  0.00    -0.268 OA
ATOM      7  N   UNL     1      -4.711   2.393  25.126  0.00  0.00    -0.176 NA
ATOM      8  N   UNL     1      -2.490   3.857  26.812  0.00  0.00    -0.311 N 
ATOM      9  C   UNL     1      -4.229   4.835  25.201  0.00  0.00    +0.025 C 
ATOM     10  C   UNL     1      -2.518   3.287  24.362  0.00  0.00    +0.053 C 
ATOM     11  C   UNL     1      -3.141   4.666  24.154  0.00  0.00    +0.017 C 
ATOM     12  C   UNL     1      -5.310   3.755  25.046  0.00  0.00    +0.114 C 
ATOM     13  C   UNL     1      -3.594   2.203  24.156  0.00  0.00    +0.119 C 
ATOM     14  C   UNL     1      -3.582   4.814  26.586  0.00  0.00    +0.130 C 
ATOM     15  C   UNL     1      -1.880   3.161  25.749  0.00  0.00    +0.034 A 
ATOM     16  C   UNL     1      -0.779   2.398  25.983  0.00  0.00    +0.002 A 
ATOM     17  C   UNL     1      -2.022   3.773  28.134  0.00  0.00    +0.252 A 
ATOM     18  C   UNL     1      -0.271   2.285  27.337  0.00  0.00    +0.015 A 
ATOM     19  C   UNL     1      -0.844   2.908  28.367  0.00  0.00    +0.071 A 
ENDROOT
BRANCH  16  21
ATOM     21  C   UNL     1      -0.093   1.666  24.896  0.00  0.00    -0.016 A 
ATOM     24  C   UNL     1      -0.508   0.382  24.559  0.00  0.00    +0.012 A 
ATOM     25  C   UNL     1       0.965   2.267  24.220  0.00  0.00    +0.012 A 
ATOM     26  C   UNL     1       0.141  -0.308  23.535  0.00  0.00    +0.046 A 
ATOM     27  C   UNL     1       1.614   1.576  23.196  0.00  0.00    +0.046 A 
ATOM     30  C   UNL     1       1.201   0.288  22.854  0.00  0.00    +0.120 A 
BRANCH  30   6
ATOM      6  O   UNL     1       1.834  -0.385  21.855  0.00  0.00    -0.495 OA
ATOM     32  C   UNL     1       3.199  -0.051  21.609  0.00  0.00    +0.277 C 
ENDBRANCH  30   6
ENDBRANCH  16  21
BRANCH   7   2
ATOM      2  S   UNL     1      -5.824   1.098  25.237  0.00  0.00    +0.061 S 
ATOM      3  O   UNL     1      -6.740   1.163  24.118  0.00  0.00    -0.153 OA
ATOM      4  O   UNL     1      -6.316   1.014  26.597  0.00  0.00    -0.153 OA
BRANCH   2  20
ATOM      1 CL   UNL     1      -1.976  -3.741  24.281  0.00  0.00    -0.084 Cl
ATOM     20  C   UNL     1      -4.738  -0.268  24.968  0.00  0.00    +0.106 A 
ATOM     22  C   UNL     1      -3.773  -0.564  25.916  0.00  0.00    +0.030 A 
ATOM     23  C   UNL     1      -4.869  -1.019  23.812  0.00  0.00    +0.030 A 
ATOM     28  C   UNL     1      -2.915  -1.642  25.702  0.00  0.00    +0.022 A 
ATOM     29  C   UNL     1      -4.011  -2.098  23.598  0.00  0.00    +0.022 A 
ATOM     31  C   UNL     1      -3.034  -2.410  24.544  0.00  0.00    +0.041 A 
ENDBRANCH   2  20
ENDBRANCH   7   2
TORSDOF 4
ENDMDL
MODEL 3
REMARK VINA RESULT:       9.5      3.497      5.376
REMARK  Name = 7144116
REMARK  5 active torsions:
REMARK  status: ('A' for Active; 'I' for Inactive)
REMARK    1  A    between atoms: S_2  and  N_7
REMARK    2  A    between atoms: S_2  and  C_20
REMARK    3  A    between atoms: O_6  and  C_30
REMARK    4  A    between atoms: O_6  and  C_32
REMARK    5  A    between atoms: C_16  and  C_21
REMARK                            x       y       z     vdW  Elec       q    Type
REMARK                         _______ _______ _______ _____ _____    ______ ____
ROOT
ATOM      5  O   UNL     1      -1.195   3.469  22.009  0.00  0.00    -0.268 OA
ATOM      7  N   UNL     1      -2.167  -0.425  24.910  0.00  0.00    -0.176 NA
ATOM      8  N   UNL     1      -0.520   1.951  23.660  0.00  0.00    -0.311 N 
ATOM      9  C   UNL     1      -0.372  -0.566  23.190  0.00  0.00    +0.025 C 
ATOM     10  C   UNL     1       0.159   0.296  25.427  0.00  0.00    +0.053 C 
ATOM     11  C   UNL     1       0.689  -0.558  24.277  0.00  0.00    +0.017 C 
ATOM     12  C   UNL     1      -1.685  -1.167  23.711  0.00  0.00    +0.114 C 
ATOM     13  C   UNL     1      -1.132  -0.338  25.981  0.00  0.00    +0.119 C 
ATOM     14  C   UNL     1      -0.552   0.862  22.673  0.00  0.00    +0.130 C 
ATOM     15  C   UNL     1      -0.093   1.741  24.986  0.00  0.00    +0.034 A 
ATOM     16  C   UNL     1       0.060   2.801  25.823  0.00  0.00    +0.002 A 
ATOM     17  C   UNL     1      -0.831   3.228  23.161  0.00  0.00    +0.252 A 
ATOM     18  C   UNL     1      -0.256   4.133  25.344  0.00  0.00    +0.015 A 
ATOM     19  C   UNL     1      -0.689   4.360  24.104  0.00  0.00    +0.071 A 
ENDROOT
BRANCH  16  21
ATOM     21  C   UNL     1       0.526   2.631  27.217  0.00  0.00    -0.016 A 
ATOM     24  C   UNL     1      -0.396   2.376  28.226  0.00  0.00    +0.012 A 
ATOM     25  C   UNL     1       1.883   2.731  27.508  0.00  0.00    +0.012 A 
ATOM     26  C   UNL     1       0.043   2.218  29.541  0.00  0.00    +0.046 A 
ATOM     27  C   UNL     1       2.323   2.573  28.823  0.00  0.00    +0.046 A 
ATOM     30  C   UNL     1       1.402   2.317  29.839  0.00  0.00    +0.120 A 
BRANCH  30   6
ATOM      6  O   UNL     1       1.830   2.163  31.121  0.00  0.00    -0.495 OA
ATOM     32  C   UNL     1       0.836   2.174  32.145  0.00  0.00    +0.277 C 
ENDBRANCH  30   6
ENDBRANCH  16  21
BRANCH   7   2
ATOM      2  S   UNL     1      -3.748  -0.812  25.436  0.00  0.00    +0.061 S 
ATOM      3  O   UNL     1      -3.689  -1.289  26.802  0.00  0.00    -0.153 OA
ATOM      4  O   UNL     1      -4.413  -1.583  24.406  0.00  0.00    -0.153 OA
BRANCH   2  20
ATOM      1 CL   UNL     1      -6.304   4.898  25.511  0.00  0.00    -0.084 Cl
ATOM     20  C   UNL     1      -4.470   0.800  25.458  0.00  0.00    +0.106 A 
ATOM     22  C   UNL     1      -5.771   0.954  25.908  0.00  0.00    +0.030 A 
ATOM     23  C   UNL     1      -3.724   1.882  25.023  0.00  0.00    +0.030 A 
ATOM     28  C   UNL     1      -6.340   2.227  25.924  0.00  0.00    +0.022 A 
ATOM     29  C   UNL     1      -4.293   3.156  25.040  0.00  0.00    +0.022 A 
ATOM     31  C   UNL     1      -5.602   3.328  25.491  0.00  0.00    +0.041 A 
ENDBRANCH   2  20
ENDBRANCH   7   2
TORSDOF 4
ENDMDL
