MODEL 1
REMARK VINA RESULT:      -7.2      0.000      0.000
REMARK  Name = 75368556
REMARK  4 active torsions:
REMARK  status: ('A' for Active; 'I' for Inactive)
REMARK    1  A    between atoms: O_5  and  C_19
REMARK    2  A    between atoms: O_5  and  C_22
REMARK    3  A    between atoms: N_7  and  C_15
REMARK    4  A    between atoms: C_15  and  C_16
REMARK                            x       y       z     vdW  Elec       q    Type
REMARK                         _______ _______ _______ _____ _____    ______ ____
ROOT
ATOM     15  C   UNL     1       0.180   1.745  24.938  0.00  0.00    +0.119 C 
ENDROOT
BRANCH  15   7
ATOM      4  O   UNL     1      -3.541  -3.446  24.932  0.00  0.00    -0.253 OA
ATOM      6  N   UNL     1      -2.423  -1.479  24.285  0.00  0.00    -0.279 N 
ATOM      7  N   UNL     1      -0.573   0.637  24.351  0.00  0.00    -0.295 NA
ATOM      8  N   UNL     1      -4.668  -1.508  24.239  0.00  0.00    -0.297 N 
ATOM      9  C   UNL     1      -2.792  -0.206  23.703  0.00  0.00    +0.109 C 
ATOM     10  C   UNL     1      -2.020   0.929  24.376  0.00  0.00    +0.109 C 
ATOM     11  C   UNL     1      -1.021  -1.807  24.445  0.00  0.00    +0.125 C 
ATOM     12  C   UNL     1      -4.307  -0.153  23.889  0.00  0.00    +0.129 C 
ATOM     13  C   UNL     1      -0.276  -0.622  25.065  0.00  0.00    +0.104 C 
ATOM     14  C   UNL     1      -3.535  -2.290  24.532  0.00  0.00    +0.303 C 
ATOM     23  H   UNL     1      -5.623  -1.835  24.345  0.00  0.00    +0.150 HD
ENDBRANCH  15   7
BRANCH  15  16
ATOM     16  C   UNL     1      -0.665   2.983  25.086  0.00  0.00    -0.030 A 
ATOM     17  C   UNL     1      -1.930   2.897  25.668  0.00  0.00    +0.051 A 
ATOM     18  C   UNL     1      -0.185   4.213  24.637  0.00  0.00    +0.005 A 
ATOM     19  C   UNL     1      -2.713   4.043  25.804  0.00  0.00    +0.130 A 
ATOM     20  C   UNL     1      -0.969   5.359  24.773  0.00  0.00    +0.004 A 
ATOM     21  C   UNL     1      -2.233   5.274  25.357  0.00  0.00    +0.046 A 
BRANCH  19   5
ATOM      5  O   UNL     1      -3.947   3.960  26.373  0.00  0.00    -0.406 OA
BRANCH   5  22
ATOM      1  F   UNL     1      -6.021   4.337  25.566  0.00  0.00    -0.133 F 
ATOM      2  F   UNL     1      -5.494   2.292  26.130  0.00  0.00    -0.133 F 
ATOM      3  F   UNL     1      -4.622   3.212  24.319  0.00  0.00    -0.133 F 
ATOM     22  C   UNL     1      -5.014   3.434  25.592  0.00  0.00    +0.575 C 
ENDBRANCH   5  22
ENDBRANCH  19   5
ENDBRANCH  15  16
TORSDOF 4
ENDMDL
MODEL 2
REMARK VINA RESULT:      -6.8      2.374      4.139
REMARK  Name = 75368556
REMARK  4 active torsions:
REMARK  status: ('A' for Active; 'I' for Inactive)
REMARK    1  A    between atoms: O_5  and  C_19
REMARK    2  A    between atoms: O_5  and  C_22
REMARK    3  A    between atoms: N_7  and  C_15
REMARK    4  A    between atoms: C_15  and  C_16
REMARK                            x       y       z     vdW  Elec       q    Type
REMARK                         _______ _______ _______ _____ _____    ______ ____
ROOT
ATOM     15  C   UNL     1      -4.182  -0.262  25.064  0.00  0.00    +0.119 C 
ENDROOT
BRANCH  15   7
ATOM      4  O   UNL     1       1.683  -0.513  22.547  0.00  0.00    -0.253 OA
ATOM      6  N   UNL     1      -0.109  -0.319  24.059  0.00  0.00    -0.279 N 
ATOM      7  N   UNL     1      -2.733  -0.462  25.060  0.00  0.00    -0.295 NA
ATOM      8  N   UNL     1       1.334   1.391  23.874  0.00  0.00    -0.297 N 
ATOM      9  C   UNL     1      -0.523   0.620  25.081  0.00  0.00    +0.109 C 
ATOM     10  C   UNL     1      -2.034   0.838  25.021  0.00  0.00    +0.109 C 
ATOM     11  C   UNL     1      -0.825  -1.570  23.912  0.00  0.00    +0.125 C 
ATOM     12  C   UNL     1       0.319   1.860  24.790  0.00  0.00    +0.129 C 
ATOM     13  C   UNL     1      -2.334  -1.310  23.918  0.00  0.00    +0.104 C 
ATOM     14  C   UNL     1       1.045   0.101  23.391  0.00  0.00    +0.303 C 
ATOM     23  H   UNL     1       2.115   1.954  23.550  0.00  0.00    +0.150 HD
ENDBRANCH  15   7
BRANCH  15  16
ATOM     16  C   UNL     1      -4.547   1.195  25.171  0.00  0.00    -0.030 A 
ATOM     17  C   UNL     1      -3.656   2.172  24.726  0.00  0.00    +0.051 A 
ATOM     18  C   UNL     1      -5.774   1.568  25.718  0.00  0.00    +0.005 A 
ATOM     19  C   UNL     1      -3.993   3.521  24.826  0.00  0.00    +0.130 A 
ATOM     20  C   UNL     1      -6.112   2.919  25.819  0.00  0.00    +0.004 A 
ATOM     21  C   UNL     1      -5.222   3.894  25.372  0.00  0.00    +0.046 A 
BRANCH  19   5
ATOM      5  O   UNL     1      -3.124   4.474  24.391  0.00  0.00    -0.406 OA
BRANCH   5  22
ATOM      1  F   UNL     1      -0.880   4.238  24.445  0.00  0.00    -0.133 F 
ATOM      2  F   UNL     1      -1.979   4.038  26.323  0.00  0.00    -0.133 F 
ATOM      3  F   UNL     1      -1.748   6.018  25.369  0.00  0.00    -0.133 F 
ATOM     22  C   UNL     1      -1.939   4.700  25.147  0.00  0.00    +0.575 C 
ENDBRANCH   5  22
ENDBRANCH  19   5
ENDBRANCH  15  16
TORSDOF 4
ENDMDL
MODEL 3
REMARK VINA RESULT:      -6.7      2.742      5.273
REMARK  Name = 75368556
REMARK  4 active torsions:
REMARK  status: ('A' for Active; 'I' for Inactive)
REMARK    1  A    between atoms: O_5  and  C_19
REMARK    2  A    between atoms: O_5  and  C_22
REMARK    3  A    between atoms: N_7  and  C_15
REMARK    4  A    between atoms: C_15  and  C_16
REMARK                            x       y       z     vdW  Elec       q    Type
REMARK                         _______ _______ _______ _____ _____    ______ ____
ROOT
ATOM     15  C   UNL     1      -0.361   2.678  25.030  0.00  0.00    +0.119 C 
ENDROOT
BRANCH  15   7
ATOM      4  O   UNL     1      -6.320   4.892  25.652  0.00  0.00    -0.253 OA
ATOM      6  N   UNL     1      -4.372   3.587  25.857  0.00  0.00    -0.279 N 
ATOM      7  N   UNL     1      -1.661   2.862  25.673  0.00  0.00    -0.295 NA
ATOM      8  N   UNL     1      -6.241   2.618  25.074  0.00  0.00    -0.297 N 
ATOM      9  C   UNL     1      -4.028   2.187  25.722  0.00  0.00    +0.109 C 
ATOM     10  C   UNL     1      -2.688   2.037  25.003  0.00  0.00    +0.109 C 
ATOM     11  C   UNL     1      -3.384   4.515  26.368  0.00  0.00    +0.125 C 
ATOM     12  C   UNL     1      -5.224   1.594  24.982  0.00  0.00    +0.129 C 
ATOM     13  C   UNL     1      -2.043   4.289  25.664  0.00  0.00    +0.104 C 
ATOM     14  C   UNL     1      -5.713   3.834  25.548  0.00  0.00    +0.303 C 
ATOM     23  H   UNL     1      -7.198   2.504  24.756  0.00  0.00    +0.150 HD
ENDBRANCH  15   7
BRANCH  15  16
ATOM     16  C   UNL     1      -0.187   1.278  24.505  0.00  0.00    -0.030 A 
ATOM     17  C   UNL     1      -0.949   0.236  25.033  0.00  0.00    +0.051 A 
ATOM     18  C   UNL     1       0.740   1.022  23.494  0.00  0.00    +0.005 A 
ATOM     19  C   UNL     1      -0.786  -1.062  24.547  0.00  0.00    +0.130 A 
ATOM     20  C   UNL     1       0.902  -0.276  23.008  0.00  0.00    +0.004 A 
ATOM     21  C   UNL     1       0.138  -1.317  23.535  0.00  0.00    +0.046 A 
BRANCH  19   5
ATOM      5  O   UNL     1      -1.532  -2.079  25.062  0.00  0.00    -0.406 OA
BRANCH   5  22
ATOM      1  F   UNL     1      -3.504  -3.175  25.078  0.00  0.00    -0.133 F 
ATOM      2  F   UNL     1      -3.376  -1.308  23.950  0.00  0.00    -0.133 F 
ATOM      3  F   UNL     1      -3.373  -1.280  26.160  0.00  0.00    -0.133 F 
ATOM     22  C   UNL     1      -2.948  -1.942  25.062  0.00  0.00    +0.575 C 
ENDBRANCH   5  22
ENDBRANCH  19   5
ENDBRANCH  15  16
TORSDOF 4
ENDMDL
MODEL 4
REMARK VINA RESULT:      -6.3      2.836      4.965
REMARK  Name = 75368556
REMARK  4 active torsions:
REMARK  status: ('A' for Active; 'I' for Inactive)
REMARK    1  A    between atoms: O_5  and  C_19
REMARK    2  A    between atoms: O_5  and  C_22
REMARK    3  A    between atoms: N_7  and  C_15
REMARK    4  A    between atoms: C_15  and  C_16
REMARK                            x       y       z     vdW  Elec       q    Type
REMARK                         _______ _______ _______ _____ _____    ______ ____
ROOT
ATOM     15  C   UNL     1      -0.491   2.889  24.241  0.00  0.00    +0.119 C 
ENDROOT
BRANCH  15   7
ATOM      4  O   UNL     1      -6.782   1.817  24.499  0.00  0.00    -0.253 OA
ATOM      6  N   UNL     1      -4.676   2.865  24.533  0.00  0.00    -0.279 N 
ATOM      7  N   UNL     1      -1.912   3.227  24.164  0.00  0.00    -0.295 NA
ATOM      8  N   UNL     1      -5.975   2.996  26.361  0.00  0.00    -0.297 N 
ATOM      9  C   UNL     1      -3.957   3.747  25.429  0.00  0.00    +0.109 C 
ATOM     10  C   UNL     1      -2.490   3.332  25.519  0.00  0.00    +0.109 C 
ATOM     11  C   UNL     1      -4.121   2.574  23.227  0.00  0.00    +0.125 C 
ATOM     12  C   UNL     1      -4.737   3.642  26.738  0.00  0.00    +0.129 C 
ATOM     13  C   UNL     1      -2.637   2.224  23.358  0.00  0.00    +0.104 C 
ATOM     14  C   UNL     1      -5.915   2.479  25.053  0.00  0.00    +0.303 C 
ATOM     23  H   UNL     1      -6.760   2.854  26.989  0.00  0.00    +0.150 HD
ENDBRANCH  15   7
BRANCH  15  16
ATOM     16  C   UNL     1      -0.264   1.402  24.187  0.00  0.00    -0.030 A 
ATOM     17  C   UNL     1      -1.078   0.545  24.928  0.00  0.00    +0.051 A 
ATOM     18  C   UNL     1       0.763   0.881  23.399  0.00  0.00    +0.005 A 
ATOM     19  C   UNL     1      -0.866  -0.833  24.879  0.00  0.00    +0.130 A 
ATOM     20  C   UNL     1       0.974  -0.497  23.350  0.00  0.00    +0.004 A 
ATOM     21  C   UNL     1       0.159  -1.354  24.090  0.00  0.00    +0.046 A 
BRANCH  19   5
ATOM      5  O   UNL     1      -1.661  -1.669  25.602  0.00  0.00    -0.406 OA
BRANCH   5  22
ATOM      1  F   UNL     1      -3.451  -3.031  25.413  0.00  0.00    -0.133 F 
ATOM      2  F   UNL     1      -3.241  -1.403  23.970  0.00  0.00    -0.133 F 
ATOM      3  F   UNL     1      -3.790  -0.973  26.067  0.00  0.00    -0.133 F 
ATOM     22  C   UNL     1      -3.039  -1.751  25.258  0.00  0.00    +0.575 C 
ENDBRANCH   5  22
ENDBRANCH  19   5
ENDBRANCH  15  16
TORSDOF 4
ENDMDL
MODEL 5
REMARK VINA RESULT:      -6.2      5.169      6.744
REMARK  Name = 75368556
REMARK  4 active torsions:
REMARK  status: ('A' for Active; 'I' for Inactive)
REMARK    1  A    between atoms: O_5  and  C_19
REMARK    2  A    between atoms: O_5  and  C_22
REMARK    3  A    between atoms: N_7  and  C_15
REMARK    4  A    between atoms: C_15  and  C_16
REMARK                            x       y       z     vdW  Elec       q    Type
REMARK                         _______ _______ _______ _____ _____    ______ ____
ROOT
ATOM     15  C   UNL     1      -0.162   0.886  24.817  0.00  0.00    +0.119 C 
ENDROOT
BRANCH  15   7
ATOM      4  O   UNL     1      -6.504   1.578  25.132  0.00  0.00    -0.253 OA
ATOM      6  N   UNL     1      -4.240   1.831  24.541  0.00  0.00    -0.279 N 
ATOM      7  N   UNL     1      -1.495   1.258  24.342  0.00  0.00    -0.295 NA
ATOM      8  N   UNL     1      -5.347   3.608  25.353  0.00  0.00    -0.297 N 
ATOM      9  C   UNL     1      -3.301   2.927  24.430  0.00  0.00    +0.109 C 
ATOM     10  C   UNL     1      -1.937   2.514  24.980  0.00  0.00    +0.109 C 
ATOM     11  C   UNL     1      -3.853   0.514  24.079  0.00  0.00    +0.125 C 
ATOM     12  C   UNL     1      -3.984   4.062  25.188  0.00  0.00    +0.129 C 
ATOM     13  C   UNL     1      -2.457   0.167  24.603  0.00  0.00    +0.104 C 
ATOM     14  C   UNL     1      -5.487   2.249  25.016  0.00  0.00    +0.303 C 
ATOM     23  H   UNL     1      -6.094   4.174  25.744  0.00  0.00    +0.150 HD
ENDBRANCH  15   7
BRANCH  15  16
ATOM     16  C   UNL     1       0.750   0.498  23.684  0.00  0.00    -0.030 A 
ATOM     17  C   UNL     1       2.097   0.857  23.720  0.00  0.00    +0.051 A 
ATOM     18  C   UNL     1       0.247  -0.218  22.598  0.00  0.00    +0.005 A 
ATOM     19  C   UNL     1       2.942   0.499  22.669  0.00  0.00    +0.130 A 
ATOM     20  C   UNL     1       1.093  -0.577  21.547  0.00  0.00    +0.004 A 
ATOM     21  C   UNL     1       2.440  -0.219  21.584  0.00  0.00    +0.046 A 
BRANCH  19   5
ATOM      5  O   UNL     1       4.257   0.849  22.704  0.00  0.00    -0.406 OA
BRANCH   5  22
ATOM      1  F   UNL     1       6.273  -0.163  22.770  0.00  0.00    -0.133 F 
ATOM      2  F   UNL     1       4.598  -1.145  23.772  0.00  0.00    -0.133 F 
ATOM      3  F   UNL     1       5.491   0.689  24.624  0.00  0.00    -0.133 F 
ATOM     22  C   UNL     1       5.145   0.055  23.483  0.00  0.00    +0.575 C 
ENDBRANCH   5  22
ENDBRANCH  19   5
ENDBRANCH  15  16
TORSDOF 4
ENDMDL
MODEL 6
REMARK VINA RESULT:      -6.0      2.159      5.033
REMARK  Name = 75368556
REMARK  4 active torsions:
REMARK  status: ('A' for Active; 'I' for Inactive)
REMARK    1  A    between atoms: O_5  and  C_19
REMARK    2  A    between atoms: O_5  and  C_22
REMARK    3  A    between atoms: N_7  and  C_15
REMARK    4  A    between atoms: C_15  and  C_16
REMARK                            x       y       z     vdW  Elec       q    Type
REMARK                         _______ _______ _______ _____ _____    ______ ____
ROOT
ATOM     15  C   UNL     1      -0.528  -1.397  25.103  0.00  0.00    +0.119 C 
ENDROOT
BRANCH  15   7
ATOM      4  O   UNL     1      -0.196   4.746  23.383  0.00  0.00    -0.253 OA
ATOM      6  N   UNL     1      -0.077   2.745  24.618  0.00  0.00    -0.279 N 
ATOM      7  N   UNL     1      -0.056  -0.014  25.159  0.00  0.00    -0.295 NA
ATOM      8  N   UNL     1      -1.361   4.417  25.394  0.00  0.00    -0.297 N 
ATOM      9  C   UNL     1      -0.541   2.280  25.908  0.00  0.00    +0.109 C 
ATOM     10  C   UNL     1      -1.070   0.850  25.797  0.00  0.00    +0.109 C 
ATOM     11  C   UNL     1       0.808   1.906  23.836  0.00  0.00    +0.125 C 
ATOM     12  C   UNL     1      -1.582   3.321  26.311  0.00  0.00    +0.129 C 
ATOM     13  C   UNL     1       0.273   0.472  23.803  0.00  0.00    +0.104 C 
ATOM     14  C   UNL     1      -0.499   4.050  24.344  0.00  0.00    +0.303 C 
ATOM     23  H   UNL     1      -1.834   5.313  25.450  0.00  0.00    +0.150 HD
ENDBRANCH  15   7
BRANCH  15  16
ATOM     16  C   UNL     1      -1.975  -1.481  24.694  0.00  0.00    -0.030 A 
ATOM     17  C   UNL     1      -2.709  -0.313  24.487  0.00  0.00    +0.051 A 
ATOM     18  C   UNL     1      -2.580  -2.726  24.524  0.00  0.00    +0.005 A 
ATOM     19  C   UNL     1      -4.050  -0.391  24.109  0.00  0.00    +0.130 A 
ATOM     20  C   UNL     1      -3.921  -2.804  24.145  0.00  0.00    +0.004 A 
ATOM     21  C   UNL     1      -4.655  -1.636  23.938  0.00  0.00    +0.046 A 
BRANCH  19   5
ATOM      5  O   UNL     1      -4.767   0.749  23.908  0.00  0.00    -0.406 OA
BRANCH   5  22
ATOM      1  F   UNL     1      -4.535   2.506  25.304  0.00  0.00    -0.133 F 
ATOM      2  F   UNL     1      -5.273   0.625  26.135  0.00  0.00    -0.133 F 
ATOM      3  F   UNL     1      -6.559   1.843  24.814  0.00  0.00    -0.133 F 
ATOM     22  C   UNL     1      -5.298   1.420  25.045  0.00  0.00    +0.575 C 
ENDBRANCH   5  22
ENDBRANCH  19   5
ENDBRANCH  15  16
TORSDOF 4
ENDMDL
MODEL 7
REMARK VINA RESULT:      -5.1      4.851      6.740
REMARK  Name = 75368556
REMARK  4 active torsions:
REMARK  status: ('A' for Active; 'I' for Inactive)
REMARK    1  A    between atoms: O_5  and  C_19
REMARK    2  A    between atoms: O_5  and  C_22
REMARK    3  A    between atoms: N_7  and  C_15
REMARK    4  A    between atoms: C_15  and  C_16
REMARK                            x       y       z     vdW  Elec       q    Type
REMARK                         _______ _______ _______ _____ _____    ______ ____
ROOT
ATOM     15  C   UNL     1       0.128   3.107  24.292  0.00  0.00    +0.119 C 
ENDROOT
BRANCH  15   7
ATOM      4  O   UNL     1      -5.987   4.116  25.839  0.00  0.00    -0.253 OA
ATOM      6  N   UNL     1      -3.861   3.138  25.592  0.00  0.00    -0.279 N 
ATOM      7  N   UNL     1      -1.109   2.927  25.051  0.00  0.00    -0.295 NA
ATOM      8  N   UNL     1      -5.644   2.072  24.738  0.00  0.00    -0.297 N 
ATOM      9  C   UNL     1      -3.335   1.879  25.107  0.00  0.00    +0.109 C 
ATOM     10  C   UNL     1      -2.072   2.114  24.280  0.00  0.00    +0.109 C 
ATOM     11  C   UNL     1      -2.968   4.079  26.235  0.00  0.00    +0.125 C 
ATOM     12  C   UNL     1      -4.506   1.275  24.336  0.00  0.00    +0.129 C 
ATOM     13  C   UNL     1      -1.691   4.238  25.405  0.00  0.00    +0.104 C 
ATOM     14  C   UNL     1      -5.249   3.223  25.446  0.00  0.00    +0.303 C 
ATOM     23  H   UNL     1      -6.603   1.874  24.471  0.00  0.00    +0.150 HD
ENDBRANCH  15   7
BRANCH  15  16
ATOM     16  C   UNL     1       0.702   1.793  23.834  0.00  0.00    -0.030 A 
ATOM     17  C   UNL     1       2.015   1.732  23.365  0.00  0.00    +0.051 A 
ATOM     18  C   UNL     1      -0.078   0.638  23.876  0.00  0.00    +0.005 A 
ATOM     19  C   UNL     1       2.546   0.515  22.939  0.00  0.00    +0.130 A 
ATOM     20  C   UNL     1       0.454  -0.580  23.451  0.00  0.00    +0.004 A 
ATOM     21  C   UNL     1       1.766  -0.641  22.983  0.00  0.00    +0.046 A 
BRANCH  19   5
ATOM      5  O   UNL     1       3.827   0.455  22.482  0.00  0.00    -0.406 OA
BRANCH   5  22
ATOM      1  F   UNL     1       5.986  -0.177  22.666  0.00  0.00    -0.133 F 
ATOM      2  F   UNL     1       4.497  -1.252  23.850  0.00  0.00    -0.133 F 
ATOM      3  F   UNL     1       5.058   0.820  24.375  0.00  0.00    -0.133 F 
ATOM     22  C   UNL     1       4.833  -0.040  23.359  0.00  0.00    +0.575 C 
ENDBRANCH   5  22
ENDBRANCH  19   5
ENDBRANCH  15  16
TORSDOF 4
ENDMDL
MODEL 8
REMARK VINA RESULT:      -5.0     16.803     19.184
REMARK  Name = 75368556
REMARK  4 active torsions:
REMARK  status: ('A' for Active; 'I' for Inactive)
REMARK    1  A    between atoms: O_5  and  C_19
REMARK    2  A    between atoms: O_5  and  C_22
REMARK    3  A    between atoms: N_7  and  C_15
REMARK    4  A    between atoms: C_15  and  C_16
REMARK                            x       y       z     vdW  Elec       q    Type
REMARK                         _______ _______ _______ _____ _____    ______ ____
ROOT
ATOM     15  C   UNL     1      11.751  -7.029  32.608  0.00  0.00    +0.119 C 
ENDROOT
BRANCH  15   7
ATOM      4  O   UNL     1      16.764  -4.494  29.567  0.00  0.00    -0.253 OA
ATOM      6  N   UNL     1      15.384  -5.931  30.820  0.00  0.00    -0.279 N 
ATOM      7  N   UNL     1      13.040  -7.031  31.917  0.00  0.00    -0.295 NA
ATOM      8  N   UNL     1      17.253  -5.130  31.773  0.00  0.00    -0.297 N 
ATOM      9  C   UNL     1      15.456  -6.601  32.102  0.00  0.00    +0.109 C 
ATOM     10  C   UNL     1      14.105  -6.534  32.812  0.00  0.00    +0.109 C 
ATOM     11  C   UNL     1      14.290  -6.236  29.920  0.00  0.00    +0.125 C 
ATOM     12  C   UNL     1      16.596  -5.881  32.819  0.00  0.00    +0.129 C 
ATOM     13  C   UNL     1      12.965  -6.219  30.686  0.00  0.00    +0.104 C 
ATOM     14  C   UNL     1      16.495  -5.114  30.587  0.00  0.00    +0.303 C 
ATOM     23  H   UNL     1      18.113  -4.606  31.900  0.00  0.00    +0.150 HD
ENDBRANCH  15   7
BRANCH  15  16
ATOM     16  C   UNL     1      10.938  -8.254  32.284  0.00  0.00    -0.030 A 
ATOM     17  C   UNL     1       9.545  -8.200  32.341  0.00  0.00    +0.051 A 
ATOM     18  C   UNL     1      11.577  -9.442  31.931  0.00  0.00    +0.005 A 
ATOM     19  C   UNL     1       8.792  -9.336  32.042  0.00  0.00    +0.130 A 
ATOM     20  C   UNL     1      10.823 -10.577  31.632  0.00  0.00    +0.004 A 
ATOM     21  C   UNL     1       9.431 -10.523  31.687  0.00  0.00    +0.046 A 
BRANCH  19   5
ATOM      5  O   UNL     1       7.432  -9.283  32.097  0.00  0.00    -0.406 OA
BRANCH   5  22
ATOM      1  F   UNL     1       5.616  -8.276  31.214  0.00  0.00    -0.133 F 
ATOM      2  F   UNL     1       6.323 -10.120  30.280  0.00  0.00    -0.133 F 
ATOM      3  F   UNL     1       7.471  -8.245  30.059  0.00  0.00    -0.133 F 
ATOM     22  C   UNL     1       6.721  -8.990  30.900  0.00  0.00    +0.575 C 
ENDBRANCH   5  22
ENDBRANCH  19   5
ENDBRANCH  15  16
TORSDOF 4
ENDMDL
MODEL 9
REMARK VINA RESULT:      -4.8      2.581      4.382
REMARK  Name = 75368556
REMARK  4 active torsions:
REMARK  status: ('A' for Active; 'I' for Inactive)
REMARK    1  A    between atoms: O_5  and  C_19
REMARK    2  A    between atoms: O_5  and  C_22
REMARK    3  A    between atoms: N_7  and  C_15
REMARK    4  A    between atoms: C_15  and  C_16
REMARK                            x       y       z     vdW  Elec       q    Type
REMARK                         _______ _______ _______ _____ _____    ______ ____
ROOT
ATOM     15  C   UNL     1      -1.679  -1.294  24.257  0.00  0.00    +0.119 C 
ENDROOT
BRANCH  15   7
ATOM      4  O   UNL     1      -6.242   2.417  26.750  0.00  0.00    -0.253 OA
ATOM      6  N   UNL     1      -4.906   1.199  25.243  0.00  0.00    -0.279 N 
ATOM      7  N   UNL     1      -2.982  -0.633  24.322  0.00  0.00    -0.295 NA
ATOM      8  N   UNL     1      -5.144   3.410  24.929  0.00  0.00    -0.297 N 
ATOM      9  C   UNL     1      -4.226   1.465  23.993  0.00  0.00    +0.109 C 
ATOM     10  C   UNL     1      -2.851   0.799  23.985  0.00  0.00    +0.109 C 
ATOM     11  C   UNL     1      -4.966  -0.159  25.744  0.00  0.00    +0.125 C 
ATOM     12  C   UNL     1      -4.203   2.989  23.915  0.00  0.00    +0.129 C 
ATOM     13  C   UNL     1      -3.582  -0.807  25.660  0.00  0.00    +0.104 C 
ATOM     14  C   UNL     1      -5.522   2.341  25.763  0.00  0.00    +0.303 C 
ATOM     23  H   UNL     1      -5.431   4.372  25.078  0.00  0.00    +0.150 HD
ENDBRANCH  15   7
BRANCH  15  16
ATOM     16  C   UNL     1      -0.557  -0.306  24.080  0.00  0.00    -0.030 A 
ATOM     17  C   UNL     1      -0.575   0.903  24.777  0.00  0.00    +0.051 A 
ATOM     18  C   UNL     1       0.498  -0.597  23.216  0.00  0.00    +0.005 A 
ATOM     19  C   UNL     1       0.464   1.818  24.611  0.00  0.00    +0.130 A 
ATOM     20  C   UNL     1       1.538   0.319  23.050  0.00  0.00    +0.004 A 
ATOM     21  C   UNL     1       1.520   1.526  23.748  0.00  0.00    +0.046 A 
BRANCH  19   5
ATOM      5  O   UNL     1       0.446   2.998  25.292  0.00  0.00    -0.406 OA
BRANCH   5  22
ATOM      1  F   UNL     1      -1.156   3.628  23.832  0.00  0.00    -0.133 F 
ATOM      2  F   UNL     1      -0.196   5.178  25.036  0.00  0.00    -0.133 F 
ATOM      3  F   UNL     1      -1.605   3.753  25.967  0.00  0.00    -0.133 F 
ATOM     22  C   UNL     1      -0.628   3.899  25.047  0.00  0.00    +0.575 C 
ENDBRANCH   5  22
ENDBRANCH  19   5
ENDBRANCH  15  16
TORSDOF 4
ENDMDL
MODEL 10
REMARK VINA RESULT:      -4.8      4.360      6.194
REMARK  Name = 75368556
REMARK  4 active torsions:
REMARK  status: ('A' for Active; 'I' for Inactive)
REMARK    1  A    between atoms: O_5  and  C_19
REMARK    2  A    between atoms: O_5  and  C_22
REMARK    3  A    between atoms: N_7  and  C_15
REMARK    4  A    between atoms: C_15  and  C_16
REMARK                            x       y       z     vdW  Elec       q    Type
REMARK                         _______ _______ _______ _____ _____    ______ ____
ROOT
ATOM     15  C   UNL     1      -0.556   3.157  24.679  0.00  0.00    +0.119 C 
ENDROOT
BRANCH  15   7
ATOM      4  O   UNL     1      -6.732   1.551  24.400  0.00  0.00    -0.253 OA
ATOM      6  N   UNL     1      -4.733   2.773  24.626  0.00  0.00    -0.279 N 
ATOM      7  N   UNL     1      -1.990   3.375  24.491  0.00  0.00    -0.295 NA
ATOM      8  N   UNL     1      -6.181   2.749  26.342  0.00  0.00    -0.297 N 
ATOM      9  C   UNL     1      -4.168   3.690  25.593  0.00  0.00    +0.109 C 
ATOM     10  C   UNL     1      -2.682   3.398  25.796  0.00  0.00    +0.109 C 
ATOM     11  C   UNL     1      -4.052   2.561  23.365  0.00  0.00    +0.125 C 
ATOM     12  C   UNL     1      -5.039   3.488  26.830  0.00  0.00    +0.129 C 
ATOM     13  C   UNL     1      -2.559   2.334  23.611  0.00  0.00    +0.104 C 
ATOM     14  C   UNL     1      -5.973   2.271  25.035  0.00  0.00    +0.303 C 
ATOM     23  H   UNL     1      -6.999   2.527  26.901  0.00  0.00    +0.150 HD
ENDBRANCH  15   7
BRANCH  15  16
ATOM     16  C   UNL     1      -0.168   1.725  24.423  0.00  0.00    -0.030 A 
ATOM     17  C   UNL     1       0.820   1.428  23.484  0.00  0.00    +0.051 A 
ATOM     18  C   UNL     1      -0.799   0.696  25.121  0.00  0.00    +0.005 A 
ATOM     19  C   UNL     1       1.179   0.101  23.246  0.00  0.00    +0.130 A 
ATOM     20  C   UNL     1      -0.440  -0.632  24.883  0.00  0.00    +0.004 A 
ATOM     21  C   UNL     1       0.549  -0.928  23.945  0.00  0.00    +0.046 A 
BRANCH  19   5
ATOM      5  O   UNL     1       2.144  -0.189  22.330  0.00  0.00    -0.406 OA
BRANCH   5  22
ATOM      1  F   UNL     1       3.995   0.601  21.309  0.00  0.00    -0.133 F 
ATOM      2  F   UNL     1       4.243  -0.491  23.186  0.00  0.00    -0.133 F 
ATOM      3  F   UNL     1       3.374   1.541  23.182  0.00  0.00    -0.133 F 
ATOM     22  C   UNL     1       3.440   0.366  22.520  0.00  0.00    +0.575 C 
ENDBRANCH   5  22
ENDBRANCH  19   5
ENDBRANCH  15  16
TORSDOF 4
ENDMDL
