MODEL 1
REMARK VINA RESULT:       7.2      0.000      0.000
REMARK  Name = 11882969
REMARK  10 active torsions:
REMARK  status: ('A' for Active; 'I' for Inactive)
REMARK    1  A    between atoms: O_2  and  C_14
REMARK    2  A    between atoms: O_3  and  C_19
REMARK    3  A    between atoms: N_8  and  C_27
REMARK    4  A    between atoms: C_9  and  C_17
REMARK    5  A    between atoms: C_11  and  C_19
REMARK    6  A    between atoms: C_11  and  C_20
REMARK    7  A    between atoms: C_12  and  C_22
REMARK    8  A    between atoms: C_22  and  C_23
REMARK    9  A    between atoms: C_25  and  C_26
REMARK   10  A    between atoms: C_27  and  C_33
REMARK                            x       y       z     vdW  Elec       q    Type
REMARK                         _______ _______ _______ _____ _____    ______ ____
ROOT
ATOM      1  S   UNL     1       0.742   2.154  24.923  0.00  0.00    -0.057 S 
ATOM      5  O   UNL     1       1.515  -0.538  21.188  0.00  0.00    -0.275 OA
ATOM      6  N   UNL     1      -0.391   0.892  22.969  0.00  0.00    -0.229 NA
ATOM      7  N   UNL     1       2.012   0.756  23.104  0.00  0.00    -0.264 N 
ATOM      9  C   UNL     1      -3.798   1.814  24.520  0.00  0.00    -0.019 C 
ATOM     10  C   UNL     1      -3.241   3.177  25.129  0.00  0.00    +0.011 C 
ATOM     11  C   UNL     1      -4.223   4.006  26.043  0.00  0.00    +0.021 C 
ATOM     12  C   UNL     1      -2.841   1.385  23.316  0.00  0.00    +0.054 C 
ATOM     13  C   UNL     1      -5.223   2.047  23.953  0.00  0.00    +0.010 C 
ATOM     14  C   UNL     1      -5.611   4.104  25.349  0.00  0.00    +0.123 C 
ATOM     15  C   UNL     1      -1.823   2.988  25.740  0.00  0.00    +0.049 C 
ATOM     16  C   UNL     1      -6.165   2.750  24.921  0.00  0.00    +0.032 C 
ATOM     17  C   UNL     1      -3.859   0.671  25.562  0.00  0.00    +0.012 C 
ATOM     18  C   UNL     1      -1.390   1.495  23.710  0.00  0.00    +0.058 A 
ATOM     20  C   UNL     1      -3.676   5.454  26.190  0.00  0.00    +0.016 C 
ATOM     21  C   UNL     1      -0.954   2.234  24.791  0.00  0.00    +0.015 A 
ATOM     24  C   UNL     1       0.772   1.165  23.519  0.00  0.00    +0.165 A 
ATOM     26  C   UNL     1       2.304  -0.052  21.992  0.00  0.00    +0.222 C 
ATOM     37  H   UNL     1       2.782   1.090  23.676  0.00  0.00    +0.157 HD
ENDROOT
BRANCH  26  25
ATOM     25  C   UNL     1       3.780  -0.289  21.850  0.00  0.00    +0.075 C 
ATOM     28  C   UNL     1       4.580   0.917  22.345  0.00  0.00    +0.013 C 
ATOM     29  C   UNL     1       4.175  -1.589  22.553  0.00  0.00    +0.013 C 
ATOM     30  C   UNL     1       4.646   1.020  23.869  0.00  0.00    +0.001 C 
ATOM     31  C   UNL     1       4.227  -1.456  24.074  0.00  0.00    +0.001 C 
ATOM     32  C   UNL     1       5.104  -0.286  24.507  0.00  0.00    +0.000 C 
ENDBRANCH  26  25
BRANCH  14   2
ATOM      2  O   UNL     1      -6.559   4.737  26.208  0.00  0.00    -0.391 OA
ATOM     35  H   UNL     1      -7.333   4.153  26.273  0.00  0.00    +0.210 HD
ENDBRANCH  14   2
BRANCH  11  19
ATOM     19  C   UNL     1      -4.364   3.468  27.483  0.00  0.00    +0.165 C 
BRANCH  19   3
ATOM      3  O   UNL     1      -3.498   4.212  28.310  0.00  0.00    -0.394 OA
ATOM     36  H   UNL     1      -3.337   5.064  27.869  0.00  0.00    +0.209 HD
ENDBRANCH  19   3
ENDBRANCH  11  19
BRANCH  12  22
ATOM     22  C   UNL     1      -3.155   0.010  22.710  0.00  0.00    +0.106 C 
BRANCH  22  23
ATOM      4  O   UNL     1      -4.203  -1.709  24.053  0.00  0.00    -0.276 OA
ATOM      8  N   UNL     1      -1.942  -1.251  24.336  0.00  0.00    -0.304 N 
ATOM     23  C   UNL     1      -3.191  -1.077  23.760  0.00  0.00    +0.214 C 
ATOM     38  H   UNL     1      -1.162  -0.688  24.010  0.00  0.00    +0.150 HD
BRANCH   8  27
ATOM     27  C   UNL     1      -1.679  -2.222  25.374  0.00  0.00    +0.193 C 
BRANCH  27  33
ATOM     33  C   UNL     1      -0.253  -2.540  25.449  0.00  0.00    -0.087 C 
ATOM     34  C   UNL     1       0.918  -2.797  25.508  0.00  0.00    +0.005 C 
ENDBRANCH  27  33
ENDBRANCH   8  27
ENDBRANCH  22  23
ENDBRANCH  12  22
TORSDOF 8
ENDMDL
MODEL 2
REMARK VINA RESULT:       7.8      2.294      3.811
REMARK  Name = 11882969
REMARK  10 active torsions:
REMARK  status: ('A' for Active; 'I' for Inactive)
REMARK    1  A    between atoms: O_2  and  C_14
REMARK    2  A    between atoms: O_3  and  C_19
REMARK    3  A    between atoms: N_8  and  C_27
REMARK    4  A    between atoms: C_9  and  C_17
REMARK    5  A    between atoms: C_11  and  C_19
REMARK    6  A    between atoms: C_11  and  C_20
REMARK    7  A    between atoms: C_12  and  C_22
REMARK    8  A    between atoms: C_22  and  C_23
REMARK    9  A    between atoms: C_25  and  C_26
REMARK   10  A    between atoms: C_27  and  C_33
REMARK                            x       y       z     vdW  Elec       q    Type
REMARK                         _______ _______ _______ _____ _____    ______ ____
ROOT
ATOM      1  S   UNL     1      -0.942  -0.804  23.271  0.00  0.00    -0.057 S 
ATOM      5  O   UNL     1       2.944   1.781  23.339  0.00  0.00    -0.275 OA
ATOM      6  N   UNL     1       0.046   1.490  23.946  0.00  0.00    -0.229 NA
ATOM      7  N   UNL     1       1.558  -0.090  22.932  0.00  0.00    -0.264 N 
ATOM      9  C   UNL     1      -3.528   2.620  24.849  0.00  0.00    -0.019 C 
ATOM     10  C   UNL     1      -3.973   1.147  25.262  0.00  0.00    +0.011 C 
ATOM     11  C   UNL     1      -5.489   0.939  25.643  0.00  0.00    +0.021 C 
ATOM     12  C   UNL     1      -1.934   2.696  24.939  0.00  0.00    +0.054 C 
ATOM     13  C   UNL     1      -4.123   3.640  25.854  0.00  0.00    +0.010 C 
ATOM     14  C   UNL     1      -5.934   2.068  26.616  0.00  0.00    +0.123 C 
ATOM     15  C   UNL     1      -3.425   0.087  24.264  0.00  0.00    +0.049 C 
ATOM     16  C   UNL     1      -5.616   3.466  26.098  0.00  0.00    +0.032 C 
ATOM     17  C   UNL     1      -3.982   3.007  23.421  0.00  0.00    +0.012 C 
ATOM     18  C   UNL     1      -1.296   1.503  24.276  0.00  0.00    +0.058 A 
ATOM     20  C   UNL     1      -5.641  -0.411  26.400  0.00  0.00    +0.016 C 
ATOM     21  C   UNL     1      -1.979   0.335  23.998  0.00  0.00    +0.015 A 
ATOM     24  C   UNL     1       0.342   0.329  23.403  0.00  0.00    +0.165 A 
ATOM     26  C   UNL     1       2.758   0.641  22.926  0.00  0.00    +0.222 C 
ATOM     37  H   UNL     1       1.565  -1.035  22.556  0.00  0.00    +0.157 HD
ENDROOT
BRANCH  26  25
ATOM     25  C   UNL     1       3.886  -0.148  22.330  0.00  0.00    +0.075 C 
ATOM     28  C   UNL     1       5.225   0.561  22.541  0.00  0.00    +0.013 C 
ATOM     29  C   UNL     1       3.880  -1.576  22.880  0.00  0.00    +0.013 C 
ATOM     30  C   UNL     1       5.763   0.433  23.967  0.00  0.00    +0.001 C 
ATOM     31  C   UNL     1       4.418  -1.670  24.307  0.00  0.00    +0.001 C 
ATOM     32  C   UNL     1       5.790  -1.017  24.435  0.00  0.00    +0.000 C 
ENDBRANCH  26  25
BRANCH  14   2
ATOM      2  O   UNL     1      -7.335   1.983  26.877  0.00  0.00    -0.391 OA
ATOM     35  H   UNL     1      -7.614   1.071  26.691  0.00  0.00    +0.210 HD
ENDBRANCH  14   2
BRANCH  11  19
ATOM     19  C   UNL     1      -6.446   0.846  24.434  0.00  0.00    +0.165 C 
BRANCH  19   3
ATOM      3  O   UNL     1      -7.334   1.939  24.500  0.00  0.00    -0.394 OA
ATOM     36  H   UNL     1      -7.437   2.284  23.597  0.00  0.00    +0.209 HD
ENDBRANCH  19   3
ENDBRANCH  11  19
BRANCH  12  22
ATOM     22  C   UNL     1      -1.329   4.012  24.431  0.00  0.00    +0.106 C 
BRANCH  22  23
ATOM      4  O   UNL     1       0.498   5.469  25.059  0.00  0.00    -0.276 OA
ATOM      8  N   UNL     1       0.299   3.381  26.061  0.00  0.00    -0.304 N 
ATOM     23  C   UNL     1      -0.084   4.396  25.198  0.00  0.00    +0.214 C 
ATOM     38  H   UNL     1      -0.263   2.537  26.115  0.00  0.00    +0.150 HD
BRANCH   8  27
ATOM     27  C   UNL     1       1.458   3.471  26.920  0.00  0.00    +0.193 C 
BRANCH  27  33
ATOM     33  C   UNL     1       1.217   2.808  28.202  0.00  0.00    -0.087 C 
ATOM     34  C   UNL     1       1.023   2.265  29.255  0.00  0.00    +0.005 C 
ENDBRANCH  27  33
ENDBRANCH   8  27
ENDBRANCH  22  23
ENDBRANCH  12  22
TORSDOF 8
ENDMDL
MODEL 3
REMARK VINA RESULT:       8.8      1.744      2.412
REMARK  Name = 11882969
REMARK  10 active torsions:
REMARK  status: ('A' for Active; 'I' for Inactive)
REMARK    1  A    between atoms: O_2  and  C_14
REMARK    2  A    between atoms: O_3  and  C_19
REMARK    3  A    between atoms: N_8  and  C_27
REMARK    4  A    between atoms: C_9  and  C_17
REMARK    5  A    between atoms: C_11  and  C_19
REMARK    6  A    between atoms: C_11  and  C_20
REMARK    7  A    between atoms: C_12  and  C_22
REMARK    8  A    between atoms: C_22  and  C_23
REMARK    9  A    between atoms: C_25  and  C_26
REMARK   10  A    between atoms: C_27  and  C_33
REMARK                            x       y       z     vdW  Elec       q    Type
REMARK                         _______ _______ _______ _____ _____    ______ ____
ROOT
ATOM      1  S   UNL     1       0.333   2.842  24.078  0.00  0.00    -0.057 S 
ATOM      5  O   UNL     1       2.824  -0.830  22.629  0.00  0.00    -0.275 OA
ATOM      6  N   UNL     1       0.214   0.334  23.455  0.00  0.00    -0.229 NA
ATOM      7  N   UNL     1       2.373   1.393  23.295  0.00  0.00    -0.264 N 
ATOM      9  C   UNL     1      -3.462   0.352  24.620  0.00  0.00    -0.019 C 
ATOM     10  C   UNL     1      -3.668   1.876  24.205  0.00  0.00    +0.011 C 
ATOM     11  C   UNL     1      -5.052   2.537  24.572  0.00  0.00    +0.021 C 
ATOM     12  C   UNL     1      -2.224  -0.222  23.788  0.00  0.00    +0.054 C 
ATOM     13  C   UNL     1      -4.726  -0.461  24.240  0.00  0.00    +0.010 C 
ATOM     14  C   UNL     1      -6.204   1.574  24.167  0.00  0.00    +0.123 C 
ATOM     15  C   UNL     1      -2.436   2.743  24.594  0.00  0.00    +0.049 C 
ATOM     16  C   UNL     1      -6.029   0.163  24.719  0.00  0.00    +0.032 C 
ATOM     17  C   UNL     1      -3.192   0.172  26.134  0.00  0.00    +0.012 C 
ATOM     18  C   UNL     1      -1.058   0.732  23.823  0.00  0.00    +0.058 A 
ATOM     20  C   UNL     1      -5.226   3.841  23.744  0.00  0.00    +0.016 C 
ATOM     21  C   UNL     1      -1.178   2.062  24.171  0.00  0.00    +0.015 A 
ATOM     24  C   UNL     1       1.030   1.360  23.557  0.00  0.00    +0.165 A 
ATOM     26  C   UNL     1       3.173   0.323  22.858  0.00  0.00    +0.222 C 
ATOM     37  H   UNL     1       2.812   2.299  23.435  0.00  0.00    +0.157 HD
ENDROOT
BRANCH  26  25
ATOM     25  C   UNL     1       4.603   0.737  22.675  0.00  0.00    +0.075 C 
ATOM     28  C   UNL     1       5.157   1.381  23.948  0.00  0.00    +0.013 C 
ATOM     29  C   UNL     1       5.441  -0.453  22.202  0.00  0.00    +0.013 C 
ATOM     30  C   UNL     1       5.491   0.370  25.045  0.00  0.00    +0.001 C 
ATOM     31  C   UNL     1       5.753  -1.447  23.319  0.00  0.00    +0.001 C 
ATOM     32  C   UNL     1       6.377  -0.757  24.528  0.00  0.00    +0.000 C 
ENDBRANCH  26  25
BRANCH  14   2
ATOM      2  O   UNL     1      -7.463   2.084  24.604  0.00  0.00    -0.391 OA
ATOM     35  H   UNL     1      -7.783   2.701  23.923  0.00  0.00    +0.210 HD
ENDBRANCH  14   2
BRANCH  11  19
ATOM     19  C   UNL     1      -5.185   2.963  26.051  0.00  0.00    +0.165 C 
BRANCH  19   3
ATOM      3  O   UNL     1      -6.186   3.954  26.126  0.00  0.00    -0.394 OA
ATOM     36  H   UNL     1      -6.391   4.229  25.216  0.00  0.00    +0.209 HD
ENDBRANCH  19   3
ENDBRANCH  11  19
BRANCH  12  22
ATOM     22  C   UNL     1      -1.799  -1.644  24.178  0.00  0.00    +0.106 C 
BRANCH  22  23
ATOM      4  O   UNL     1      -0.007  -2.532  25.540  0.00  0.00    -0.276 OA
ATOM      8  N   UNL     1      -1.028  -0.535  26.147  0.00  0.00    -0.304 N 
ATOM     23  C   UNL     1      -0.837  -1.649  25.344  0.00  0.00    +0.214 C 
ATOM     38  H   UNL     1      -1.732   0.149  25.888  0.00  0.00    +0.150 HD
BRANCH   8  27
ATOM     27  C   UNL     1      -0.250  -0.277  27.338  0.00  0.00    +0.193 C 
BRANCH  27  33
ATOM     33  C   UNL     1       0.052   1.147  27.472  0.00  0.00    -0.087 C 
ATOM     34  C   UNL     1       0.303   2.317  27.578  0.00  0.00    +0.005 C 
ENDBRANCH  27  33
ENDBRANCH   8  27
ENDBRANCH  22  23
ENDBRANCH  12  22
TORSDOF 8
ENDMDL
MODEL 4
REMARK VINA RESULT:       9.0      1.660      2.182
REMARK  Name = 11882969
REMARK  10 active torsions:
REMARK  status: ('A' for Active; 'I' for Inactive)
REMARK    1  A    between atoms: O_2  and  C_14
REMARK    2  A    between atoms: O_3  and  C_19
REMARK    3  A    between atoms: N_8  and  C_27
REMARK    4  A    between atoms: C_9  and  C_17
REMARK    5  A    between atoms: C_11  and  C_19
REMARK    6  A    between atoms: C_11  and  C_20
REMARK    7  A    between atoms: C_12  and  C_22
REMARK    8  A    between atoms: C_22  and  C_23
REMARK    9  A    between atoms: C_25  and  C_26
REMARK   10  A    between atoms: C_27  and  C_33
REMARK                            x       y       z     vdW  Elec       q    Type
REMARK                         _______ _______ _______ _____ _____    ______ ____
ROOT
ATOM      1  S   UNL     1       0.823   2.962  23.339  0.00  0.00    -0.057 S 
ATOM      5  O   UNL     1       2.072  -1.524  23.656  0.00  0.00    -0.275 OA
ATOM      6  N   UNL     1       0.077   0.625  24.160  0.00  0.00    -0.229 NA
ATOM      7  N   UNL     1       2.244   0.771  23.115  0.00  0.00    -0.264 N 
ATOM      9  C   UNL     1      -3.020   2.304  25.725  0.00  0.00    -0.019 C 
ATOM     10  C   UNL     1      -3.064   3.441  24.611  0.00  0.00    +0.011 C 
ATOM     11  C   UNL     1      -4.135   4.584  24.797  0.00  0.00    +0.021 C 
ATOM     12  C   UNL     1      -2.210   1.063  25.130  0.00  0.00    +0.054 C 
ATOM     13  C   UNL     1      -4.464   1.838  26.044  0.00  0.00    +0.010 C 
ATOM     14  C   UNL     1      -5.508   3.947  25.155  0.00  0.00    +0.123 C 
ATOM     15  C   UNL     1      -1.638   3.966  24.277  0.00  0.00    +0.049 C 
ATOM     16  C   UNL     1      -5.432   2.978  26.329  0.00  0.00    +0.032 C 
ATOM     17  C   UNL     1      -2.349   2.776  27.038  0.00  0.00    +0.012 C 
ATOM     18  C   UNL     1      -0.935   1.515  24.466  0.00  0.00    +0.058 A 
ATOM     20  C   UNL     1      -4.312   5.337  23.448  0.00  0.00    +0.016 C 
ATOM     21  C   UNL     1      -0.706   2.819  24.075  0.00  0.00    +0.015 A 
ATOM     24  C   UNL     1       1.056   1.276  23.571  0.00  0.00    +0.165 A 
ATOM     26  C   UNL     1       2.673  -0.566  23.182  0.00  0.00    +0.222 C 
ATOM     37  H   UNL     1       2.859   1.455  22.683  0.00  0.00    +0.157 HD
ENDROOT
BRANCH  26  25
ATOM     25  C   UNL     1       4.034  -0.744  22.576  0.00  0.00    +0.075 C 
ATOM     28  C   UNL     1       4.665   0.607  22.235  0.00  0.00    +0.013 C 
ATOM     29  C   UNL     1       4.915  -1.592  23.497  0.00  0.00    +0.013 C 
ATOM     30  C   UNL     1       5.202   1.354  23.456  0.00  0.00    +0.001 C 
ATOM     31  C   UNL     1       5.431  -0.819  24.710  0.00  0.00    +0.001 C 
ATOM     32  C   UNL     1       6.120   0.478  24.299  0.00  0.00    +0.000 C 
ENDBRANCH  26  25
BRANCH  14   2
ATOM      2  O   UNL     1      -6.468   4.959  25.457  0.00  0.00    -0.391 OA
ATOM     35  H   UNL     1      -7.009   5.099  24.661  0.00  0.00    +0.210 HD
ENDBRANCH  14   2
BRANCH  11  19
ATOM     19  C   UNL     1      -3.744   5.666  25.827  0.00  0.00    +0.165 C 
BRANCH  19   3
ATOM      3  O   UNL     1      -2.367   5.927  25.678  0.00  0.00    -0.394 OA
ATOM     36  H   UNL     1      -2.165   5.888  24.727  0.00  0.00    +0.209 HD
ENDBRANCH  19   3
ENDBRANCH  11  19
BRANCH  12  22
ATOM     22  C   UNL     1      -1.949  -0.069  26.135  0.00  0.00    +0.106 C 
BRANCH  22  23
ATOM      4  O   UNL     1      -3.647  -1.783  26.313  0.00  0.00    -0.276 OA
ATOM      8  N   UNL     1      -2.016  -1.951  24.666  0.00  0.00    -0.304 N 
ATOM     23  C   UNL     1      -2.650  -1.349  25.742  0.00  0.00    +0.214 C 
ATOM     38  H   UNL     1      -1.206  -1.500  24.252  0.00  0.00    +0.150 HD
BRANCH   8  27
ATOM     27  C   UNL     1      -2.467  -3.192  24.077  0.00  0.00    +0.193 C 
BRANCH  27  33
ATOM     33  C   UNL     1      -3.864  -3.097  23.654  0.00  0.00    -0.087 C 
ATOM     34  C   UNL     1      -5.010  -3.016  23.305  0.00  0.00    +0.005 C 
ENDBRANCH  27  33
ENDBRANCH   8  27
ENDBRANCH  22  23
ENDBRANCH  12  22
TORSDOF 8
ENDMDL
MODEL 5
REMARK VINA RESULT:       9.8      1.716      2.482
REMARK  Name = 11882969
REMARK  10 active torsions:
REMARK  status: ('A' for Active; 'I' for Inactive)
REMARK    1  A    between atoms: O_2  and  C_14
REMARK    2  A    between atoms: O_3  and  C_19
REMARK    3  A    between atoms: N_8  and  C_27
REMARK    4  A    between atoms: C_9  and  C_17
REMARK    5  A    between atoms: C_11  and  C_19
REMARK    6  A    between atoms: C_11  and  C_20
REMARK    7  A    between atoms: C_12  and  C_22
REMARK    8  A    between atoms: C_22  and  C_23
REMARK    9  A    between atoms: C_25  and  C_26
REMARK   10  A    between atoms: C_27  and  C_33
REMARK                            x       y       z     vdW  Elec       q    Type
REMARK                         _______ _______ _______ _____ _____    ______ ____
ROOT
ATOM      1  S   UNL     1       0.708   3.038  23.695  0.00  0.00    -0.057 S 
ATOM      5  O   UNL     1       3.116  -0.913  23.078  0.00  0.00    -0.275 OA
ATOM      6  N   UNL     1       0.564   0.455  23.759  0.00  0.00    -0.229 NA
ATOM      7  N   UNL     1       2.697   1.412  23.172  0.00  0.00    -0.264 N 
ATOM      9  C   UNL     1      -3.017   0.818  25.144  0.00  0.00    -0.019 C 
ATOM     10  C   UNL     1      -3.265   2.183  24.362  0.00  0.00    +0.011 C 
ATOM     11  C   UNL     1      -4.624   2.932  24.644  0.00  0.00    +0.021 C 
ATOM     12  C   UNL     1      -1.839   0.033  24.402  0.00  0.00    +0.054 C 
ATOM     13  C   UNL     1      -4.298  -0.053  25.082  0.00  0.00    +0.010 C 
ATOM     14  C   UNL     1      -5.794   1.909  24.589  0.00  0.00    +0.123 C 
ATOM     15  C   UNL     1      -2.015   3.108  24.421  0.00  0.00    +0.049 C 
ATOM     16  C   UNL     1      -5.568   0.690  25.476  0.00  0.00    +0.032 C 
ATOM     17  C   UNL     1      -2.635   1.036  26.628  0.00  0.00    +0.012 C 
ATOM     18  C   UNL     1      -0.681   0.950  24.103  0.00  0.00    +0.058 A 
ATOM     20  C   UNL     1      -4.869   3.977  23.519  0.00  0.00    +0.016 C 
ATOM     21  C   UNL     1      -0.786   2.326  24.099  0.00  0.00    +0.015 A 
ATOM     24  C   UNL     1       1.376   1.464  23.530  0.00  0.00    +0.165 A 
ATOM     26  C   UNL     1       3.471   0.256  22.972  0.00  0.00    +0.222 C 
ATOM     37  H   UNL     1       3.137   2.318  23.039  0.00  0.00    +0.157 HD
ENDROOT
BRANCH  26  25
ATOM     25  C   UNL     1       4.881   0.593  22.583  0.00  0.00    +0.075 C 
ATOM     28  C   UNL     1       5.576   1.400  23.681  0.00  0.00    +0.013 C 
ATOM     29  C   UNL     1       5.644  -0.681  22.213  0.00  0.00    +0.013 C 
ATOM     30  C   UNL     1       6.008   0.554  24.879  0.00  0.00    +0.001 C 
ATOM     31  C   UNL     1       6.057  -1.507  23.430  0.00  0.00    +0.001 C 
ATOM     32  C   UNL     1       6.816  -0.665  24.451  0.00  0.00    +0.000 C 
ENDBRANCH  26  25
BRANCH  14   2
ATOM      2  O   UNL     1      -7.023   2.530  24.968  0.00  0.00    -0.391 OA
ATOM     35  H   UNL     1      -6.806   3.381  25.385  0.00  0.00    +0.210 HD
ENDBRANCH  14   2
BRANCH  11  19
ATOM     19  C   UNL     1      -4.652   3.731  25.965  0.00  0.00    +0.165 C 
BRANCH  19   3
ATOM      3  O   UNL     1      -5.734   4.633  25.902  0.00  0.00    -0.394 OA
ATOM     36  H   UNL     1      -6.550   4.116  26.018  0.00  0.00    +0.209 HD
ENDBRANCH  19   3
ENDBRANCH  11  19
BRANCH  12  22
ATOM     22  C   UNL     1      -1.374  -1.243  25.118  0.00  0.00    +0.106 C 
BRANCH  22  23
ATOM      4  O   UNL     1      -1.420  -3.139  23.614  0.00  0.00    -0.276 OA
ATOM      8  N   UNL     1      -3.201  -2.781  25.064  0.00  0.00    -0.304 N 
ATOM     23  C   UNL     1      -1.968  -2.488  24.500  0.00  0.00    +0.214 C 
ATOM     38  H   UNL     1      -3.561  -2.188  25.805  0.00  0.00    +0.150 HD
BRANCH   8  27
ATOM     27  C   UNL     1      -4.002  -3.915  24.665  0.00  0.00    +0.193 C 
BRANCH  27  33
ATOM     33  C   UNL     1      -4.739  -3.634  23.433  0.00  0.00    -0.087 C 
ATOM     34  C   UNL     1      -5.341  -3.399  22.421  0.00  0.00    +0.005 C 
ENDBRANCH  27  33
ENDBRANCH   8  27
ENDBRANCH  22  23
ENDBRANCH  12  22
TORSDOF 8
ENDMDL
MODEL 6
REMARK VINA RESULT:      11.1      2.499      4.463
REMARK  Name = 11882969
REMARK  10 active torsions:
REMARK  status: ('A' for Active; 'I' for Inactive)
REMARK    1  A    between atoms: O_2  and  C_14
REMARK    2  A    between atoms: O_3  and  C_19
REMARK    3  A    between atoms: N_8  and  C_27
REMARK    4  A    between atoms: C_9  and  C_17
REMARK    5  A    between atoms: C_11  and  C_19
REMARK    6  A    between atoms: C_11  and  C_20
REMARK    7  A    between atoms: C_12  and  C_22
REMARK    8  A    between atoms: C_22  and  C_23
REMARK    9  A    between atoms: C_25  and  C_26
REMARK   10  A    between atoms: C_27  and  C_33
REMARK                            x       y       z     vdW  Elec       q    Type
REMARK                         _______ _______ _______ _____ _____    ______ ____
ROOT
ATOM      1  S   UNL     1       0.061  -0.845  23.836  0.00  0.00    -0.057 S 
ATOM      5  O   UNL     1       3.203   2.414  22.697  0.00  0.00    -0.275 OA
ATOM      6  N   UNL     1       0.440   1.697  23.537  0.00  0.00    -0.229 NA
ATOM      7  N   UNL     1       2.325   0.257  23.107  0.00  0.00    -0.264 N 
ATOM      9  C   UNL     1      -3.332   2.202  24.155  0.00  0.00    -0.019 C 
ATOM     10  C   UNL     1      -3.424   0.937  25.118  0.00  0.00    +0.011 C 
ATOM     11  C   UNL     1      -4.857   0.536  25.637  0.00  0.00    +0.021 C 
ATOM     12  C   UNL     1      -1.808   2.682  24.117  0.00  0.00    +0.054 C 
ATOM     13  C   UNL     1      -4.193   3.355  24.735  0.00  0.00    +0.010 C 
ATOM     14  C   UNL     1      -5.598   1.809  26.137  0.00  0.00    +0.123 C 
ATOM     15  C   UNL     1      -2.599  -0.260  24.564  0.00  0.00    +0.049 C 
ATOM     16  C   UNL     1      -5.607   2.938  25.113  0.00  0.00    +0.032 C 
ATOM     17  C   UNL     1      -3.812   1.899  22.716  0.00  0.00    +0.012 C 
ATOM     18  C   UNL     1      -0.877   1.515  23.916  0.00  0.00    +0.058 A 
ATOM     20  C   UNL     1      -4.707  -0.420  26.855  0.00  0.00    +0.016 C 
ATOM     21  C   UNL     1      -1.246   0.204  24.139  0.00  0.00    +0.015 A 
ATOM     24  C   UNL     1       1.028   0.523  23.456  0.00  0.00    +0.165 A 
ATOM     26  C   UNL     1       3.312   1.194  22.756  0.00  0.00    +0.222 C 
ATOM     37  H   UNL     1       2.574  -0.728  23.116  0.00  0.00    +0.157 HD
ENDROOT
BRANCH  26  25
ATOM     25  C   UNL     1       4.620   0.529  22.436  0.00  0.00    +0.075 C 
ATOM     28  C   UNL     1       5.727   1.013  23.375  0.00  0.00    +0.013 C 
ATOM     29  C   UNL     1       4.455  -0.992  22.451  0.00  0.00    +0.013 C 
ATOM     30  C   UNL     1       5.649   0.402  24.774  0.00  0.00    +0.001 C 
ATOM     31  C   UNL     1       4.376  -1.572  23.862  0.00  0.00    +0.001 C 
ATOM     32  C   UNL     1       5.549  -1.118  24.724  0.00  0.00    +0.000 C 
ENDBRANCH  26  25
BRANCH  14   2
ATOM      2  O   UNL     1      -6.945   1.500  26.493  0.00  0.00    -0.391 OA
ATOM     35  H   UNL     1      -7.081   0.551  26.337  0.00  0.00    +0.210 HD
ENDBRANCH  14   2
BRANCH  11  19
ATOM     19  C   UNL     1      -5.718  -0.234  24.611  0.00  0.00    +0.165 C 
BRANCH  19   3
ATOM      3  O   UNL     1      -4.937  -1.290  24.098  0.00  0.00    -0.394 OA
ATOM     36  H   UNL     1      -5.487  -2.092  24.113  0.00  0.00    +0.209 HD
ENDBRANCH  19   3
ENDBRANCH  11  19
BRANCH  12  22
ATOM     22  C   UNL     1      -1.520   3.810  23.115  0.00  0.00    +0.106 C 
BRANCH  22  23
ATOM      4  O   UNL     1      -0.004   4.879  24.669  0.00  0.00    -0.276 OA
ATOM      8  N   UNL     1       0.406   5.020  22.386  0.00  0.00    -0.304 N 
ATOM     23  C   UNL     1      -0.304   4.619  23.507  0.00  0.00    +0.214 C 
ATOM     38  H   UNL     1       0.082   4.736  21.466  0.00  0.00    +0.150 HD
BRANCH   8  27
ATOM     27  C   UNL     1       1.614   5.809  22.457  0.00  0.00    +0.193 C 
BRANCH  27  33
ATOM     33  C   UNL     1       2.230   5.951  21.138  0.00  0.00    -0.087 C 
ATOM     34  C   UNL     1       2.740   6.066  20.056  0.00  0.00    +0.005 C 
ENDBRANCH  27  33
ENDBRANCH   8  27
ENDBRANCH  22  23
ENDBRANCH  12  22
TORSDOF 8
ENDMDL
