MODEL 1
REMARK VINA RESULT:       8.8      0.000      0.000
REMARK  Name = 7051976
REMARK  6 active torsions:
REMARK  status: ('A' for Active; 'I' for Inactive)
REMARK    1  A    between atoms: N_3  and  C_16
REMARK    2  A    between atoms: N_5  and  C_27
REMARK    3  A    between atoms: N_6  and  C_20
REMARK    4  A    between atoms: N_7  and  C_31
REMARK    5  A    between atoms: C_16  and  C_19
REMARK    6  A    between atoms: C_34  and  C_37
REMARK                            x       y       z     vdW  Elec       q    Type
REMARK                         _______ _______ _______ _____ _____    ______ ____
ROOT
ATOM      1  O   UNL     1      -0.003   3.133  25.949  0.00  0.00    -0.266 OA
ATOM      3  N   UNL     1      -4.740   1.638  25.272  0.00  0.00    -0.297 NA
ATOM      4  N   UNL     1      -2.092   3.387  24.934  0.00  0.00    -0.310 N 
ATOM      9  C   UNL     1      -4.231   3.888  26.254  0.00  0.00    +0.024 C 
ATOM     10  C   UNL     1      -4.338   3.632  23.822  0.00  0.00    +0.050 C 
ATOM     11  C   UNL     1      -4.685   4.572  24.972  0.00  0.00    +0.017 C 
ATOM     12  C   UNL     1      -4.954   2.534  26.415  0.00  0.00    +0.090 C 
ATOM     13  C   UNL     1      -5.089   2.293  24.003  0.00  0.00    +0.094 C 
ATOM     14  C   UNL     1      -2.703   3.741  26.222  0.00  0.00    +0.130 C 
ATOM     15  C   UNL     1      -2.840   3.396  23.752  0.00  0.00    +0.026 A 
ATOM     17  C   UNL     1      -2.240   3.176  22.571  0.00  0.00    +0.024 A 
ATOM     18  C   UNL     1      -0.705   3.136  24.936  0.00  0.00    +0.273 A 
ATOM     20  C   UNL     1      -0.078   2.875  23.603  0.00  0.00    +0.100 A 
ATOM     21  C   UNL     1      -0.831   2.909  22.497  0.00  0.00    +0.030 A 
ENDROOT
BRANCH  20   6
ATOM      2  O   UNL     1       1.131   0.300  23.616  0.00  0.00    -0.252 OA
ATOM      6  N   UNL     1       1.260   2.615  23.564  0.00  0.00    -0.265 N 
ATOM      7  N   UNL     1       3.205   1.397  23.524  0.00  0.00    -0.269 N 
ATOM     29  C   UNL     1       1.808   1.325  23.573  0.00  0.00    +0.308 C 
ATOM     38  H   UNL     1       1.885   3.386  23.785  0.00  0.00    +0.157 HD
ATOM     39  H   UNL     1       3.611   2.328  23.487  0.00  0.00    +0.156 HD
BRANCH   7  31
ATOM     31  C   UNL     1       4.129   0.327  23.516  0.00  0.00    +0.036 A 
ATOM     32  C   UNL     1       5.475   0.593  23.321  0.00  0.00    +0.042 A 
ATOM     33  C   UNL     1       3.670  -0.967  23.702  0.00  0.00    +0.023 A 
ATOM     34  C   UNL     1       6.386  -0.463  23.311  0.00  0.00    +0.054 A 
ATOM     35  C   UNL     1       4.582  -2.023  23.694  0.00  0.00    +0.003 A 
ATOM     36  C   UNL     1       5.939  -1.770  23.498  0.00  0.00    +0.019 A 
BRANCH  34  37
ATOM      8  N   UNL     1       8.908   0.005  22.948  0.00  0.00    -0.191 NA
ATOM     37  C   UNL     1       7.777  -0.204  23.111  0.00  0.00    +0.099 C 
ENDBRANCH  34  37
ENDBRANCH   7  31
ENDBRANCH  20   6
BRANCH   3  16
ATOM     16  C   UNL     1      -5.481   0.390  25.438  0.00  0.00    +0.121 C 
BRANCH  16  19
ATOM      5  N   UNL     1      -4.197  -2.694  23.963  0.00  0.00    -0.349 N 
ATOM     19  C   UNL     1      -4.700  -0.797  24.942  0.00  0.00    -0.008 A 
ATOM     22  C   UNL     1      -3.328  -1.021  25.157  0.00  0.00    +0.004 A 
ATOM     23  C   UNL     1      -5.221  -1.820  24.215  0.00  0.00    +0.091 A 
ATOM     24  C   UNL     1      -3.029  -2.230  24.527  0.00  0.00    +0.049 A 
ATOM     25  C   UNL     1      -2.296  -0.329  25.820  0.00  0.00    +0.010 A 
ATOM     26  C   UNL     1      -1.745  -2.785  24.527  0.00  0.00    +0.026 A 
ATOM     27  C   UNL     1      -4.338  -3.921  23.210  0.00  0.00    +0.149 C 
ATOM     28  C   UNL     1      -1.006  -0.871  25.829  0.00  0.00    +0.001 A 
ATOM     30  C   UNL     1      -0.736  -2.081  25.191  0.00  0.00    +0.002 A 
ENDBRANCH  16  19
ENDBRANCH   3  16
TORSDOF 5
ENDMDL
