MODEL 1
REMARK VINA RESULT:      14.0      0.000      0.000
REMARK  Name = 40780321
REMARK  10 active torsions:
REMARK  status: ('A' for Active; 'I' for Inactive)
REMARK    1  A    between atoms: O_4  and  C_23
REMARK    2  A    between atoms: O_4  and  C_35
REMARK    3  A    between atoms: N_8  and  C_14
REMARK    4  A    between atoms: N_8  and  C_24
REMARK    5  A    between atoms: N_10  and  C_29
REMARK    6  A    between atoms: C_12  and  C_20
REMARK    7  A    between atoms: C_16  and  C_23
REMARK    8  A    between atoms: C_24  and  C_29
REMARK    9  A    between atoms: C_34  and  C_36
REMARK   10  A    between atoms: C_37  and  C_38
REMARK                            x       y       z     vdW  Elec       q    Type
REMARK                         _______ _______ _______ _____ _____    ______ ____
ROOT
ATOM      7  N   UNL     1      -0.150   1.006  23.914  0.00  0.00    -0.274 NA
ATOM      9  N   UNL     1      -3.523   2.649  23.755  0.00  0.00    -0.356 N 
ATOM     11  C   UNL     1      -1.633   0.956  24.096  0.00  0.00    +0.106 C 
ATOM     12  C   UNL     1       0.479  -0.327  24.089  0.00  0.00    +0.090 C 
ATOM     13  C   UNL     1      -2.266  -0.038  23.107  0.00  0.00    +0.044 C 
ATOM     14  C   UNL     1      -1.681  -1.444  23.250  0.00  0.00    +0.057 C 
ATOM     15  C   UNL     1      -0.159  -1.369  23.136  0.00  0.00    +0.042 C 
ATOM     16  C   UNL     1       0.492   2.106  24.684  0.00  0.00    +0.172 C 
ATOM     17  C   UNL     1      -2.206   2.333  23.938  0.00  0.00    +0.038 A 
ATOM     18  C   UNL     1      -0.021   3.506  24.260  0.00  0.00    +0.068 C 
ATOM     19  C   UNL     1      -1.491   3.507  24.028  0.00  0.00    -0.016 A 
ATOM     21  C   UNL     1      -2.403   4.585  23.858  0.00  0.00    +0.003 A 
ATOM     22  C   UNL     1      -3.670   4.018  23.687  0.00  0.00    +0.047 A 
ATOM     27  C   UNL     1      -2.279   5.988  23.836  0.00  0.00    +0.010 A 
ATOM     28  C   UNL     1      -4.821   4.792  23.495  0.00  0.00    +0.026 A 
ATOM     32  C   UNL     1      -3.422   6.773  23.643  0.00  0.00    +0.001 A 
ATOM     33  C   UNL     1      -4.672   6.181  23.475  0.00  0.00    +0.002 A 
ATOM     40  H   UNL     1      -4.281   1.985  23.678  0.00  0.00    +0.166 HD
ENDROOT
BRANCH  12  20
ATOM     20  C   UNL     1       1.987  -0.342  23.843  0.00  0.00    -0.030 A 
ATOM     25  C   UNL     1       2.616   0.778  23.301  0.00  0.00    +0.006 A 
ATOM     26  C   UNL     1       2.734  -1.476  24.162  0.00  0.00    +0.006 A 
ATOM     30  C   UNL     1       3.993   0.766  23.077  0.00  0.00    +0.013 A 
ATOM     31  C   UNL     1       4.111  -1.489  23.938  0.00  0.00    +0.013 A 
ATOM     34  C   UNL     1       4.740  -0.369  23.395  0.00  0.00    +0.055 A 
BRANCH  34  36
ATOM      1  F   UNL     1       6.864  -1.386  23.815  0.00  0.00    -0.166 F 
ATOM      2  F   UNL     1       6.819   0.773  23.561  0.00  0.00    -0.166 F 
ATOM      3  F   UNL     1       6.554  -0.535  21.845  0.00  0.00    -0.166 F 
ATOM     36  C   UNL     1       6.212  -0.381  23.158  0.00  0.00    +0.417 C 
ENDBRANCH  34  36
ENDBRANCH  12  20
BRANCH  16  23
ATOM      5  O   UNL     1      -0.457   1.068  26.642  0.00  0.00    -0.249 OA
ATOM     23  C   UNL     1       0.308   1.892  26.160  0.00  0.00    +0.325 C 
BRANCH  23   4
ATOM      4  O   UNL     1       1.116   2.748  26.849  0.00  0.00    -0.467 OA
ATOM     35  C   UNL     1       1.137   2.566  28.268  0.00  0.00    +0.280 C 
ENDBRANCH  23   4
ENDBRANCH  16  23
BRANCH  14   8
ATOM      8  N   UNL     1      -2.072  -2.044  24.527  0.00  0.00    -0.312 NA
ATOM     39  H   UNL     1      -1.625  -1.539  25.293  0.00  0.00    +0.122 HD
BRANCH   8  24
ATOM     24  C   UNL     1      -3.514  -1.985  24.703  0.00  0.00    +0.100 C 
BRANCH  24  29
ATOM     29  C   UNL     1      -3.890  -0.799  25.578  0.00  0.00    +0.119 C 
BRANCH  29  10
ATOM      6  O   UNL     1      -4.756   1.909  26.172  0.00  0.00    -0.276 OA
ATOM     10  N   UNL     1      -5.048  -0.119  25.063  0.00  0.00    -0.314 N 
ATOM     37  C   UNL     1      -5.385   1.184  25.405  0.00  0.00    +0.210 C 
ATOM     38  C   UNL     1      -6.630   1.660  24.706  0.00  0.00    +0.109 C 
ATOM     41  H   UNL     1      -5.646  -0.628  24.418  0.00  0.00    +0.149 HD
ENDBRANCH  29  10
ENDBRANCH  24  29
ENDBRANCH   8  24
ENDBRANCH  14   8
TORSDOF 8
ENDMDL
MODEL 2
REMARK VINA RESULT:      14.1      4.603      7.586
REMARK  Name = 40780321
REMARK  10 active torsions:
REMARK  status: ('A' for Active; 'I' for Inactive)
REMARK    1  A    between atoms: O_4  and  C_23
REMARK    2  A    between atoms: O_4  and  C_35
REMARK    3  A    between atoms: N_8  and  C_14
REMARK    4  A    between atoms: N_8  and  C_24
REMARK    5  A    between atoms: N_10  and  C_29
REMARK    6  A    between atoms: C_12  and  C_20
REMARK    7  A    between atoms: C_16  and  C_23
REMARK    8  A    between atoms: C_24  and  C_29
REMARK    9  A    between atoms: C_34  and  C_36
REMARK   10  A    between atoms: C_37  and  C_38
REMARK                            x       y       z     vdW  Elec       q    Type
REMARK                         _______ _______ _______ _____ _____    ______ ____
ROOT
ATOM      7  N   UNL     1      -1.120   0.461  24.601  0.00  0.00    -0.274 NA
ATOM      9  N   UNL     1       2.144  -1.366  24.263  0.00  0.00    -0.356 N 
ATOM     11  C   UNL     1      -0.343  -0.814  24.529  0.00  0.00    +0.106 C 
ATOM     12  C   UNL     1      -2.547   0.227  24.940  0.00  0.00    +0.090 C 
ATOM     13  C   UNL     1      -0.429  -1.577  25.862  0.00  0.00    +0.044 C 
ATOM     14  C   UNL     1      -1.876  -1.876  26.261  0.00  0.00    +0.057 C 
ATOM     15  C   UNL     1      -2.678  -0.575  26.259  0.00  0.00    +0.042 C 
ATOM     16  C   UNL     1      -0.894   1.346  23.426  0.00  0.00    +0.172 C 
ATOM     17  C   UNL     1       1.079  -0.516  24.155  0.00  0.00    +0.038 A 
ATOM     18  C   UNL     1       0.589   1.777  23.284  0.00  0.00    +0.068 C 
ATOM     19  C   UNL     1       1.520   0.651  23.570  0.00  0.00    -0.016 A 
ATOM     21  C   UNL     1       2.917   0.523  23.344  0.00  0.00    +0.003 A 
ATOM     22  C   UNL     1       3.282  -0.752  23.789  0.00  0.00    +0.047 A 
ATOM     27  C   UNL     1       3.910   1.361  22.799  0.00  0.00    +0.010 A 
ATOM     28  C   UNL     1       4.597  -1.227  23.715  0.00  0.00    +0.026 A 
ATOM     32  C   UNL     1       5.229   0.898  22.722  0.00  0.00    +0.001 A 
ATOM     33  C   UNL     1       5.565  -0.376  23.174  0.00  0.00    +0.002 A 
ATOM     40  H   UNL     1       2.109  -2.305  24.636  0.00  0.00    +0.166 HD
ENDROOT
BRANCH  12  20
ATOM     20  C   UNL     1      -3.369   1.505  25.095  0.00  0.00    -0.030 A 
ATOM     25  C   UNL     1      -2.734   2.709  25.399  0.00  0.00    +0.006 A 
ATOM     26  C   UNL     1      -4.754   1.467  24.932  0.00  0.00    +0.006 A 
ATOM     30  C   UNL     1      -3.484   3.877  25.541  0.00  0.00    +0.013 A 
ATOM     31  C   UNL     1      -5.503   2.635  25.074  0.00  0.00    +0.013 A 
ATOM     34  C   UNL     1      -4.869   3.840  25.378  0.00  0.00    +0.055 A 
BRANCH  34  36
ATOM      1  F   UNL     1      -5.681   5.868  24.405  0.00  0.00    -0.166 F 
ATOM      2  F   UNL     1      -5.210   5.892  26.528  0.00  0.00    -0.166 F 
ATOM      3  F   UNL     1      -6.987   4.863  25.814  0.00  0.00    -0.166 F 
ATOM     36  C   UNL     1      -5.671   5.088  25.526  0.00  0.00    +0.417 C 
ENDBRANCH  34  36
ENDBRANCH  12  20
BRANCH  16  23
ATOM      5  O   UNL     1      -0.740  -0.137  21.532  0.00  0.00    -0.249 OA
ATOM     23  C   UNL     1      -1.383   0.686  22.168  0.00  0.00    +0.325 C 
BRANCH  23   4
ATOM      4  O   UNL     1      -2.630   1.148  21.866  0.00  0.00    -0.467 OA
ATOM     35  C   UNL     1      -2.759   2.571  21.799  0.00  0.00    +0.280 C 
ENDBRANCH  23   4
ENDBRANCH  16  23
BRANCH  14   8
ATOM      8  N   UNL     1      -2.477  -2.851  25.349  0.00  0.00    -0.312 NA
ATOM     39  H   UNL     1      -3.301  -2.443  24.907  0.00  0.00    +0.122 HD
BRANCH   8  24
ATOM     24  C   UNL     1      -1.532  -3.237  24.313  0.00  0.00    +0.100 C 
BRANCH  24  29
ATOM     29  C   UNL     1      -2.273  -3.685  23.063  0.00  0.00    +0.119 C 
BRANCH  29  10
ATOM      6  O   UNL     1      -4.065  -1.407  23.240  0.00  0.00    -0.276 OA
ATOM     10  N   UNL     1      -3.695  -3.707  23.279  0.00  0.00    -0.314 N 
ATOM     37  C   UNL     1      -4.474  -2.560  23.350  0.00  0.00    +0.210 C 
ATOM     38  C   UNL     1      -5.933  -2.867  23.559  0.00  0.00    +0.109 C 
ATOM     41  H   UNL     1      -4.142  -4.612  23.387  0.00  0.00    +0.149 HD
ENDBRANCH  29  10
ENDBRANCH  24  29
ENDBRANCH   8  24
ENDBRANCH  14   8
TORSDOF 8
ENDMDL
MODEL 3
REMARK VINA RESULT:      14.8      4.225      7.365
REMARK  Name = 40780321
REMARK  10 active torsions:
REMARK  status: ('A' for Active; 'I' for Inactive)
REMARK    1  A    between atoms: O_4  and  C_23
REMARK    2  A    between atoms: O_4  and  C_35
REMARK    3  A    between atoms: N_8  and  C_14
REMARK    4  A    between atoms: N_8  and  C_24
REMARK    5  A    between atoms: N_10  and  C_29
REMARK    6  A    between atoms: C_12  and  C_20
REMARK    7  A    between atoms: C_16  and  C_23
REMARK    8  A    between atoms: C_24  and  C_29
REMARK    9  A    between atoms: C_34  and  C_36
REMARK   10  A    between atoms: C_37  and  C_38
REMARK                            x       y       z     vdW  Elec       q    Type
REMARK                         _______ _______ _______ _____ _____    ______ ____
ROOT
ATOM      7  N   UNL     1      -0.224   0.172  24.339  0.00  0.00    -0.274 NA
ATOM      9  N   UNL     1       2.952  -1.820  24.111  0.00  0.00    -0.356 N 
ATOM     11  C   UNL     1       0.486  -1.140  24.233  0.00  0.00    +0.106 C 
ATOM     12  C   UNL     1      -1.682   0.001  24.556  0.00  0.00    +0.090 C 
ATOM     13  C   UNL     1       0.256  -1.983  25.500  0.00  0.00    +0.044 C 
ATOM     14  C   UNL     1      -1.230  -2.222  25.770  0.00  0.00    +0.057 C 
ATOM     15  C   UNL     1      -1.958  -0.878  25.802  0.00  0.00    +0.042 C 
ATOM     16  C   UNL     1       0.140   1.118  23.249  0.00  0.00    +0.172 C 
ATOM     17  C   UNL     1       1.947  -0.902  23.986  0.00  0.00    +0.038 A 
ATOM     18  C   UNL     1       1.651   1.469  23.247  0.00  0.00    +0.068 C 
ATOM     19  C   UNL     1       2.494   0.272  23.519  0.00  0.00    -0.016 A 
ATOM     21  C   UNL     1       3.895   0.076  23.386  0.00  0.00    +0.003 A 
ATOM     22  C   UNL     1       4.156  -1.244  23.765  0.00  0.00    +0.047 A 
ATOM     27  C   UNL     1       4.972   0.888  22.976  0.00  0.00    +0.010 A 
ATOM     28  C   UNL     1       5.445  -1.791  23.754  0.00  0.00    +0.026 A 
ATOM     32  C   UNL     1       6.265   0.354  22.963  0.00  0.00    +0.001 A 
ATOM     33  C   UNL     1       6.496  -0.965  23.346  0.00  0.00    +0.002 A 
ATOM     40  H   UNL     1       2.838  -2.778  24.413  0.00  0.00    +0.166 HD
ENDROOT
BRANCH  12  20
ATOM     20  C   UNL     1      -2.443   1.313  24.741  0.00  0.00    -0.030 A 
ATOM     25  C   UNL     1      -3.577   1.575  23.972  0.00  0.00    +0.006 A 
ATOM     26  C   UNL     1      -2.005   2.246  25.680  0.00  0.00    +0.006 A 
ATOM     30  C   UNL     1      -4.273   2.772  24.141  0.00  0.00    +0.013 A 
ATOM     31  C   UNL     1      -2.701   3.444  25.849  0.00  0.00    +0.013 A 
ATOM     34  C   UNL     1      -3.834   3.707  25.080  0.00  0.00    +0.055 A 
BRANCH  34  36
ATOM      1  F   UNL     1      -4.567   5.789  24.158  0.00  0.00    -0.166 F 
ATOM      2  F   UNL     1      -4.074   5.747  26.276  0.00  0.00    -0.166 F 
ATOM      3  F   UNL     1      -5.901   4.811  25.560  0.00  0.00    -0.166 F 
ATOM     36  C   UNL     1      -4.580   4.985  25.263  0.00  0.00    +0.417 C 
ENDBRANCH  34  36
ENDBRANCH  12  20
BRANCH  16  23
ATOM      5  O   UNL     1       0.422  -0.122  21.202  0.00  0.00    -0.249 OA
ATOM     23  C   UNL     1      -0.286   0.574  21.916  0.00  0.00    +0.325 C 
BRANCH  23   4
ATOM      4  O   UNL     1      -1.561   0.976  21.646  0.00  0.00    -0.467 OA
ATOM     35  C   UNL     1      -1.783   2.389  21.693  0.00  0.00    +0.280 C 
ENDBRANCH  23   4
ENDBRANCH  16  23
BRANCH  14   8
ATOM      8  N   UNL     1      -1.812  -3.096  24.750  0.00  0.00    -0.312 NA
ATOM     39  H   UNL     1      -1.427  -4.037  24.846  0.00  0.00    +0.122 HD
BRANCH   8  24
ATOM     24  C   UNL     1      -3.257  -3.164  24.893  0.00  0.00    +0.100 C 
BRANCH  24  29
ATOM     29  C   UNL     1      -3.934  -2.892  23.558  0.00  0.00    +0.119 C 
BRANCH  29  10
ATOM      6  O   UNL     1      -4.382  -1.175  25.857  0.00  0.00    -0.276 OA
ATOM     10  N   UNL     1      -4.792  -1.741  23.634  0.00  0.00    -0.314 N 
ATOM     37  C   UNL     1      -4.945  -0.976  24.783  0.00  0.00    +0.210 C 
ATOM     38  C   UNL     1      -5.883   0.184  24.581  0.00  0.00    +0.109 C 
ATOM     41  H   UNL     1      -5.311  -1.483  22.800  0.00  0.00    +0.149 HD
ENDBRANCH  29  10
ENDBRANCH  24  29
ENDBRANCH   8  24
ENDBRANCH  14   8
TORSDOF 8
ENDMDL
MODEL 4
REMARK VINA RESULT:      15.2      2.851      5.951
REMARK  Name = 40780321
REMARK  10 active torsions:
REMARK  status: ('A' for Active; 'I' for Inactive)
REMARK    1  A    between atoms: O_4  and  C_23
REMARK    2  A    between atoms: O_4  and  C_35
REMARK    3  A    between atoms: N_8  and  C_14
REMARK    4  A    between atoms: N_8  and  C_24
REMARK    5  A    between atoms: N_10  and  C_29
REMARK    6  A    between atoms: C_12  and  C_20
REMARK    7  A    between atoms: C_16  and  C_23
REMARK    8  A    between atoms: C_24  and  C_29
REMARK    9  A    between atoms: C_34  and  C_36
REMARK   10  A    between atoms: C_37  and  C_38
REMARK                            x       y       z     vdW  Elec       q    Type
REMARK                         _______ _______ _______ _____ _____    ______ ____
ROOT
ATOM      7  N   UNL     1      -1.508   1.388  25.723  0.00  0.00    -0.274 NA
ATOM      9  N   UNL     1      -4.319  -0.457  24.049  0.00  0.00    -0.356 N 
ATOM     11  C   UNL     1      -2.756   1.385  24.898  0.00  0.00    +0.106 C 
ATOM     12  C   UNL     1      -1.081   2.763  26.084  0.00  0.00    +0.090 C 
ATOM     13  C   UNL     1      -3.900   2.093  25.644  0.00  0.00    +0.044 C 
ATOM     14  C   UNL     1      -3.537   3.529  26.025  0.00  0.00    +0.057 C 
ATOM     15  C   UNL     1      -2.222   3.526  26.804  0.00  0.00    +0.042 C 
ATOM     16  C   UNL     1      -0.434   0.528  25.154  0.00  0.00    +0.172 C 
ATOM     17  C   UNL     1      -3.119  -0.026  24.542  0.00  0.00    +0.038 A 
ATOM     18  C   UNL     1      -0.856  -0.961  25.054  0.00  0.00    +0.068 C 
ATOM     19  C   UNL     1      -2.263  -1.105  24.588  0.00  0.00    -0.016 A 
ATOM     21  C   UNL     1      -2.978  -2.248  24.139  0.00  0.00    +0.003 A 
ATOM     22  C   UNL     1      -4.266  -1.813  23.809  0.00  0.00    +0.047 A 
ATOM     27  C   UNL     1      -2.660  -3.610  23.976  0.00  0.00    +0.010 A 
ATOM     28  C   UNL     1      -5.252  -2.680  23.322  0.00  0.00    +0.026 A 
ATOM     32  C   UNL     1      -3.637  -4.488  23.492  0.00  0.00    +0.001 A 
ATOM     33  C   UNL     1      -4.912  -4.028  23.171  0.00  0.00    +0.002 A 
ATOM     40  H   UNL     1      -5.129   0.125  23.885  0.00  0.00    +0.166 HD
ENDROOT
BRANCH  12  20
ATOM     20  C   UNL     1       0.150   2.817  26.986  0.00  0.00    -0.030 A 
ATOM     25  C   UNL     1       0.088   2.302  28.281  0.00  0.00    +0.006 A 
ATOM     26  C   UNL     1       1.336   3.380  26.515  0.00  0.00    +0.006 A 
ATOM     30  C   UNL     1       1.212   2.351  29.106  0.00  0.00    +0.013 A 
ATOM     31  C   UNL     1       2.460   3.429  27.340  0.00  0.00    +0.013 A 
ATOM     34  C   UNL     1       2.398   2.915  28.635  0.00  0.00    +0.055 A 
BRANCH  34  36
ATOM      1  F   UNL     1       4.735   2.492  28.919  0.00  0.00    -0.166 F 
ATOM      2  F   UNL     1       3.449   2.224  30.652  0.00  0.00    -0.166 F 
ATOM      3  F   UNL     1       3.918   4.223  29.938  0.00  0.00    -0.166 F 
ATOM     36  C   UNL     1       3.600   2.964  29.515  0.00  0.00    +0.417 C 
ENDBRANCH  34  36
ENDBRANCH  12  20
BRANCH  16  23
ATOM      5  O   UNL     1      -0.063   2.228  23.485  0.00  0.00    -0.249 OA
ATOM     23  C   UNL     1       0.006   1.052  23.817  0.00  0.00    +0.325 C 
BRANCH  23   4
ATOM      4  O   UNL     1       0.481   0.023  23.058  0.00  0.00    -0.467 OA
ATOM     35  C   UNL     1       1.875   0.085  22.743  0.00  0.00    +0.280 C 
ENDBRANCH  23   4
ENDBRANCH  16  23
BRANCH  14   8
ATOM      8  N   UNL     1      -3.425   4.372  24.833  0.00  0.00    -0.312 NA
ATOM     39  H   UNL     1      -2.643   4.053  24.260  0.00  0.00    +0.122 HD
BRANCH   8  24
ATOM     24  C   UNL     1      -4.643   4.306  24.041  0.00  0.00    +0.100 C 
BRANCH  24  29
ATOM     29  C   UNL     1      -5.841   4.724  24.879  0.00  0.00    +0.119 C 
BRANCH  29  10
ATOM      6  O   UNL     1      -6.591   1.949  24.465  0.00  0.00    -0.276 OA
ATOM     10  N   UNL     1      -6.142   3.741  25.885  0.00  0.00    -0.314 N 
ATOM     37  C   UNL     1      -6.493   2.430  25.591  0.00  0.00    +0.210 C 
ATOM     38  C   UNL     1      -6.731   1.606  26.829  0.00  0.00    +0.109 C 
ATOM     41  H   UNL     1      -6.093   4.030  26.857  0.00  0.00    +0.149 HD
ENDBRANCH  29  10
ENDBRANCH  24  29
ENDBRANCH   8  24
ENDBRANCH  14   8
TORSDOF 8
ENDMDL
