MODEL 1
REMARK VINA RESULT:       7.5      0.000      0.000
REMARK  Name = 7682267
REMARK  5 active torsions:
REMARK  status: ('A' for Active; 'I' for Inactive)
REMARK    1  A    between atoms: N_4  and  C_14
REMARK    2  A    between atoms: N_6  and  C_29
REMARK    3  A    between atoms: C_14  and  C_19
REMARK    4  A    between atoms: C_15  and  C_20
REMARK    5  A    between atoms: C_31  and  C_32
REMARK                            x       y       z     vdW  Elec       q    Type
REMARK                         _______ _______ _______ _____ _____    ______ ____
ROOT
ATOM      2  O   UNL     1      -2.628   6.319  25.171  0.00  0.00    -0.268 OA
ATOM      4  N   UNL     1      -3.930   1.531  24.676  0.00  0.00    -0.297 NA
ATOM      5  N   UNL     1      -2.359   4.242  24.123  0.00  0.00    -0.311 N 
ATOM      7  C   UNL     1      -4.260   3.145  22.793  0.00  0.00    +0.024 C 
ATOM      8  C   UNL     1      -2.110   1.997  23.023  0.00  0.00    +0.051 C 
ATOM      9  C   UNL     1      -3.131   2.500  22.005  0.00  0.00    +0.017 C 
ATOM     10  C   UNL     1      -4.903   2.118  23.746  0.00  0.00    +0.090 C 
ATOM     11  C   UNL     1      -2.783   0.961  23.955  0.00  0.00    +0.094 C 
ATOM     12  C   UNL     1      -3.700   4.362  23.534  0.00  0.00    +0.130 C 
ATOM     13  C   UNL     1      -1.514   3.152  23.833  0.00  0.00    +0.034 A 
ATOM     15  C   UNL     1      -0.233   3.149  24.284  0.00  0.00    +0.002 A 
ATOM     16  C   UNL     1      -1.938   5.336  24.899  0.00  0.00    +0.252 A 
ATOM     17  C   UNL     1       0.235   4.259  25.092  0.00  0.00    +0.015 A 
ATOM     18  C   UNL     1      -0.548   5.291  25.407  0.00  0.00    +0.071 A 
ENDROOT
BRANCH  15  20
ATOM     20  C   UNL     1       0.695   2.037  23.986  0.00  0.00    -0.016 A 
ATOM     21  C   UNL     1       1.960   2.312  23.475  0.00  0.00    +0.010 A 
ATOM     22  C   UNL     1       0.297   0.725  24.216  0.00  0.00    +0.010 A 
ATOM     25  C   UNL     1       2.835   1.263  23.193  0.00  0.00    +0.024 A 
ATOM     26  C   UNL     1       1.172  -0.325  23.935  0.00  0.00    +0.024 A 
ATOM     29  C   UNL     1       2.441  -0.055  23.423  0.00  0.00    +0.033 A 
BRANCH  29   6
ATOM      3  O   UNL     1       5.215  -0.615  24.451  0.00  0.00    -0.276 OA
ATOM      6  N   UNL     1       3.318  -1.104  23.141  0.00  0.00    -0.286 N 
ATOM     31  C   UNL     1       4.606  -1.315  23.650  0.00  0.00    +0.214 C 
ATOM     32  C   UNL     1       5.227  -2.573  23.095  0.00  0.00    +0.109 C 
ATOM     33  H   UNL     1       2.968  -1.798  22.483  0.00  0.00    +0.155 HD
ENDBRANCH  29   6
ENDBRANCH  15  20
BRANCH   4  14
ATOM     14  C   UNL     1      -4.561   0.529  25.530  0.00  0.00    +0.119 C 
BRANCH  14  19
ATOM      1  F   UNL     1      -3.226  -4.704  23.976  0.00  0.00    -0.205 F 
ATOM     19  C   UNL     1      -4.205  -0.868  25.115  0.00  0.00    -0.033 A 
ATOM     23  C   UNL     1      -3.401  -1.647  25.939  0.00  0.00    +0.008 A 
ATOM     24  C   UNL     1      -4.683  -1.371  23.910  0.00  0.00    +0.008 A 
ATOM     27  C   UNL     1      -3.070  -2.946  25.554  0.00  0.00    +0.038 A 
ATOM     28  C   UNL     1      -4.352  -2.670  23.524  0.00  0.00    +0.038 A 
ATOM     30  C   UNL     1      -3.545  -3.457  24.346  0.00  0.00    +0.123 A 
ENDBRANCH  14  19
ENDBRANCH   4  14
TORSDOF 4
ENDMDL
MODEL 2
REMARK VINA RESULT:       7.9      1.497      1.790
REMARK  Name = 7682267
REMARK  5 active torsions:
REMARK  status: ('A' for Active; 'I' for Inactive)
REMARK    1  A    between atoms: N_4  and  C_14
REMARK    2  A    between atoms: N_6  and  C_29
REMARK    3  A    between atoms: C_14  and  C_19
REMARK    4  A    between atoms: C_15  and  C_20
REMARK    5  A    between atoms: C_31  and  C_32
REMARK                            x       y       z     vdW  Elec       q    Type
REMARK                         _______ _______ _______ _____ _____    ______ ____
ROOT
ATOM      2  O   UNL     1      -4.157   4.824  27.290  0.00  0.00    -0.268 OA
ATOM      4  N   UNL     1      -4.516   0.845  24.306  0.00  0.00    -0.297 NA
ATOM      5  N   UNL     1      -3.465   3.647  25.388  0.00  0.00    -0.311 N 
ATOM      7  C   UNL     1      -5.078   3.132  23.459  0.00  0.00    +0.024 C 
ATOM      8  C   UNL     1      -2.760   2.352  23.353  0.00  0.00    +0.051 C 
ATOM      9  C   UNL     1      -3.822   3.154  22.604  0.00  0.00    +0.017 C 
ATOM     10  C   UNL     1      -5.549   1.680  23.681  0.00  0.00    +0.090 C 
ATOM     11  C   UNL     1      -3.258   0.899  23.549  0.00  0.00    +0.094 C 
ATOM     12  C   UNL     1      -4.783   3.859  24.773  0.00  0.00    +0.130 C 
ATOM     13  C   UNL     1      -2.421   2.997  24.700  0.00  0.00    +0.034 A 
ATOM     15  C   UNL     1      -1.178   2.946  25.247  0.00  0.00    +0.002 A 
ATOM     16  C   UNL     1      -3.285   4.233  26.653  0.00  0.00    +0.252 A 
ATOM     17  C   UNL     1      -0.956   3.536  26.553  0.00  0.00    +0.015 A 
ATOM     18  C   UNL     1      -1.930   4.134  27.240  0.00  0.00    +0.071 A 
ENDROOT
BRANCH  15  20
ATOM     20  C   UNL     1      -0.048   2.293  24.552  0.00  0.00    -0.016 A 
ATOM     21  C   UNL     1       0.926   3.073  23.936  0.00  0.00    +0.010 A 
ATOM     22  C   UNL     1       0.033   0.906  24.519  0.00  0.00    +0.010 A 
ATOM     25  C   UNL     1       1.992   2.457  23.280  0.00  0.00    +0.024 A 
ATOM     26  C   UNL     1       1.099   0.289  23.863  0.00  0.00    +0.024 A 
ATOM     29  C   UNL     1       2.079   1.066  23.243  0.00  0.00    +0.033 A 
BRANCH  29   6
ATOM      3  O   UNL     1       4.960   0.758  24.061  0.00  0.00    -0.276 OA
ATOM      6  N   UNL     1       3.146   0.450  22.588  0.00  0.00    -0.286 N 
ATOM     31  C   UNL     1       4.475   0.337  23.016  0.00  0.00    +0.214 C 
ATOM     32  C   UNL     1       5.325  -0.405  22.015  0.00  0.00    +0.109 C 
ATOM     33  H   UNL     1       2.920   0.034  21.687  0.00  0.00    +0.155 HD
ENDBRANCH  29   6
ENDBRANCH  15  20
BRANCH   4  14
ATOM     14  C   UNL     1      -4.977  -0.532  24.458  0.00  0.00    +0.119 C 
BRANCH  14  19
ATOM      1  F   UNL     1      -0.719  -4.089  25.354  0.00  0.00    -0.205 F 
ATOM     19  C   UNL     1      -3.840  -1.482  24.697  0.00  0.00    -0.033 A 
ATOM     23  C   UNL     1      -3.826  -2.714  24.054  0.00  0.00    +0.008 A 
ATOM     24  C   UNL     1      -2.811  -1.120  25.559  0.00  0.00    +0.008 A 
ATOM     27  C   UNL     1      -2.769  -3.597  24.276  0.00  0.00    +0.038 A 
ATOM     28  C   UNL     1      -1.754  -2.002  25.782  0.00  0.00    +0.038 A 
ATOM     30  C   UNL     1      -1.734  -3.241  25.140  0.00  0.00    +0.123 A 
ENDBRANCH  14  19
ENDBRANCH   4  14
TORSDOF 4
ENDMDL
