MODEL 1
REMARK VINA RESULT:       4.1      0.000      0.000
REMARK  Name = 51136637
REMARK  11 active torsions:
REMARK  status: ('A' for Active; 'I' for Inactive)
REMARK    1  A    between atoms: S_1  and  N_9
REMARK    2  A    between atoms: S_1  and  C_21
REMARK    3  A    between atoms: O_5  and  C_19
REMARK    4  A    between atoms: O_7  and  C_29
REMARK    5  A    between atoms: O_7  and  C_34
REMARK    6  A    between atoms: O_8  and  C_30
REMARK    7  A    between atoms: O_8  and  C_35
REMARK    8  A    between atoms: C_11  and  C_16
REMARK    9  A    between atoms: C_12  and  C_17
REMARK   10  A    between atoms: C_16  and  C_18
REMARK   11  A    between atoms: C_17  and  C_19
REMARK                            x       y       z     vdW  Elec       q    Type
REMARK                         _______ _______ _______ _____ _____    ______ ____
ROOT
ATOM      9  N   UNL     1       1.142  -0.083  23.397  0.00  0.00    -0.176 NA
ATOM     11  C   UNL     1      -1.169   0.094  24.294  0.00  0.00    +0.014 C 
ATOM     12  C   UNL     1      -1.145  -1.424  24.597  0.00  0.00    +0.006 C 
ATOM     13  C   UNL     1      -0.240   0.407  23.110  0.00  0.00    +0.113 C 
ATOM     14  C   UNL     1       0.291  -1.934  24.788  0.00  0.00    +0.021 C 
ATOM     15  C   UNL     1       1.181  -1.558  23.607  0.00  0.00    +0.110 C 
ENDROOT
BRANCH   9   1
ATOM      1  S   UNL     1       2.368   0.545  22.378  0.00  0.00    +0.061 S 
ATOM      3  O   UNL     1       2.370   1.988  22.477  0.00  0.00    -0.153 OA
ATOM      4  O   UNL     1       2.293  -0.115  21.092  0.00  0.00    -0.153 OA
BRANCH   1  21
ATOM      2  F   UNL     1       7.155  -1.460  25.172  0.00  0.00    -0.205 F 
ATOM     21  C   UNL     1       3.801  -0.057  23.214  0.00  0.00    +0.106 A 
ATOM     26  C   UNL     1       3.897  -1.406  23.554  0.00  0.00    +0.031 A 
ATOM     27  C   UNL     1       4.839   0.819  23.536  0.00  0.00    +0.031 A 
ATOM     31  C   UNL     1       5.030  -1.880  24.215  0.00  0.00    +0.040 A 
ATOM     32  C   UNL     1       5.971   0.344  24.197  0.00  0.00    +0.040 A 
ATOM     33  C   UNL     1       6.067  -1.006  24.536  0.00  0.00    +0.124 A 
ENDBRANCH   1  21
ENDBRANCH   9   1
BRANCH  11  16
ATOM     16  C   UNL     1      -0.820   0.978  25.499  0.00  0.00    +0.060 C 
BRANCH  16  18
ATOM     10  N   UNL     1      -0.148   3.188  24.845  0.00  0.00    -0.287 NA
ATOM     18  C   UNL     1      -1.131   2.421  25.184  0.00  0.00    +0.044 C 
ATOM     20  C   UNL     1      -2.537   2.888  25.282  0.00  0.00    +0.003 A 
ATOM     22  C   UNL     1      -2.738   4.272  25.367  0.00  0.00    -0.033 A 
ATOM     23  C   UNL     1      -1.540   5.175  25.368  0.00  0.00    +0.059 C 
ATOM     24  C   UNL     1      -0.458   4.575  24.480  0.00  0.00    +0.146 C 
ATOM     25  C   UNL     1      -3.625   2.012  25.306  0.00  0.00    +0.059 A 
ATOM     28  C   UNL     1      -4.035   4.774  25.502  0.00  0.00    +0.053 A 
ATOM     29  C   UNL     1      -4.917   2.523  25.426  0.00  0.00    +0.162 A 
ATOM     30  C   UNL     1      -5.122   3.900  25.527  0.00  0.00    +0.162 A 
BRANCH  29   7
ATOM      7  O   UNL     1      -5.976   1.665  25.447  0.00  0.00    -0.491 OA
ATOM     34  C   UNL     1      -6.620   1.463  26.703  0.00  0.00    +0.277 C 
ENDBRANCH  29   7
BRANCH  30   8
ATOM      8  O   UNL     1      -6.382   4.403  25.652  0.00  0.00    -0.491 OA
ATOM     35  C   UNL     1      -6.580   5.759  25.258  0.00  0.00    +0.277 C 
ENDBRANCH  30   8
ENDBRANCH  16  18
ENDBRANCH  11  16
BRANCH  12  17
ATOM     17  C   UNL     1      -2.019  -1.814  25.788  0.00  0.00    +0.124 C 
BRANCH  17  19
ATOM      6  O   UNL     1      -3.922  -2.863  24.683  0.00  0.00    -0.251 OA
ATOM     19  C   UNL     1      -3.460  -1.979  25.388  0.00  0.00    +0.305 C 
BRANCH  19   5
ATOM      5  O   UNL     1      -4.204  -0.982  25.932  0.00  0.00    -0.481 OA
ATOM     36  H   UNL     1      -3.911  -0.763  26.842  0.00  0.00    +0.295 HD
ENDBRANCH  19   5
ENDBRANCH  17  19
ENDBRANCH  12  17
TORSDOF 9
ENDMDL
MODEL 2
REMARK VINA RESULT:       4.5      3.105      7.451
REMARK  Name = 51136637
REMARK  11 active torsions:
REMARK  status: ('A' for Active; 'I' for Inactive)
REMARK    1  A    between atoms: S_1  and  N_9
REMARK    2  A    between atoms: S_1  and  C_21
REMARK    3  A    between atoms: O_5  and  C_19
REMARK    4  A    between atoms: O_7  and  C_29
REMARK    5  A    between atoms: O_7  and  C_34
REMARK    6  A    between atoms: O_8  and  C_30
REMARK    7  A    between atoms: O_8  and  C_35
REMARK    8  A    between atoms: C_11  and  C_16
REMARK    9  A    between atoms: C_12  and  C_17
REMARK   10  A    between atoms: C_16  and  C_18
REMARK   11  A    between atoms: C_17  and  C_19
REMARK                            x       y       z     vdW  Elec       q    Type
REMARK                         _______ _______ _______ _____ _____    ______ ____
ROOT
ATOM      9  N   UNL     1      -5.077   0.817  24.986  0.00  0.00    -0.176 NA
ATOM     11  C   UNL     1      -3.171  -0.764  25.202  0.00  0.00    +0.014 C 
ATOM     12  C   UNL     1      -4.088  -1.904  24.697  0.00  0.00    +0.006 C 
ATOM     13  C   UNL     1      -4.013   0.312  25.906  0.00  0.00    +0.113 C 
ATOM     14  C   UNL     1      -5.237  -1.360  23.836  0.00  0.00    +0.021 C 
ATOM     15  C   UNL     1      -6.011  -0.265  24.564  0.00  0.00    +0.110 C 
ENDROOT
BRANCH   9   1
ATOM      1  S   UNL     1      -5.821   2.284  25.464  0.00  0.00    +0.061 S 
ATOM      3  O   UNL     1      -6.215   2.183  26.852  0.00  0.00    -0.153 OA
ATOM      4  O   UNL     1      -6.771   2.682  24.446  0.00  0.00    -0.153 OA
BRANCH   1  21
ATOM      2  F   UNL     1      -1.198   5.928  25.159  0.00  0.00    -0.205 F 
ATOM     21  C   UNL     1      -4.437   3.376  25.371  0.00  0.00    +0.106 A 
ATOM     26  C   UNL     1      -3.825   3.624  24.143  0.00  0.00    +0.031 A 
ATOM     27  C   UNL     1      -3.955   3.989  26.528  0.00  0.00    +0.031 A 
ATOM     31  C   UNL     1      -2.731   4.487  24.071  0.00  0.00    +0.040 A 
ATOM     32  C   UNL     1      -2.861   4.851  26.455  0.00  0.00    +0.040 A 
ATOM     33  C   UNL     1      -2.249   5.101  25.227  0.00  0.00    +0.124 A 
ENDBRANCH   1  21
ENDBRANCH   9   1
BRANCH  11  16
ATOM     16  C   UNL     1      -2.298  -0.133  24.109  0.00  0.00    +0.060 C 
BRANCH  16  18
ATOM     10  N   UNL     1      -1.521   1.365  25.818  0.00  0.00    -0.287 NA
ATOM     18  C   UNL     1      -1.222   0.718  24.740  0.00  0.00    +0.044 C 
ATOM     20  C   UNL     1       0.114   0.776  24.094  0.00  0.00    +0.003 A 
ATOM     22  C   UNL     1       0.946   1.842  24.461  0.00  0.00    -0.033 A 
ATOM     23  C   UNL     1       0.436   2.846  25.452  0.00  0.00    +0.059 C 
ATOM     24  C   UNL     1      -0.459   2.143  26.464  0.00  0.00    +0.146 C 
ATOM     25  C   UNL     1       0.541  -0.164  23.154  0.00  0.00    +0.059 A 
ATOM     28  C   UNL     1       2.200   1.977  23.860  0.00  0.00    +0.053 A 
ATOM     29  C   UNL     1       1.801  -0.030  22.571  0.00  0.00    +0.162 A 
ATOM     30  C   UNL     1       2.628   1.038  22.920  0.00  0.00    +0.162 A 
BRANCH  29   7
ATOM      7  O   UNL     1       2.215  -0.952  21.656  0.00  0.00    -0.491 OA
ATOM     34  C   UNL     1       1.231  -1.456  20.755  0.00  0.00    +0.277 C 
ENDBRANCH  29   7
BRANCH  30   8
ATOM      8  O   UNL     1       3.856   1.177  22.347  0.00  0.00    -0.491 OA
ATOM     35  C   UNL     1       4.956   0.563  23.015  0.00  0.00    +0.277 C 
ENDBRANCH  30   8
ENDBRANCH  16  18
ENDBRANCH  11  16
BRANCH  12  17
ATOM     17  C   UNL     1      -3.328  -3.001  23.951  0.00  0.00    +0.124 C 
BRANCH  17  19
ATOM      6  O   UNL     1      -1.391  -2.829  25.421  0.00  0.00    -0.251 OA
ATOM     19  C   UNL     1      -1.868  -3.008  24.311  0.00  0.00    +0.305 C 
BRANCH  19   5
ATOM      5  O   UNL     1      -1.124  -3.246  23.200  0.00  0.00    -0.481 OA
ATOM     36  H   UNL     1      -0.191  -3.448  23.422  0.00  0.00    +0.295 HD
ENDBRANCH  19   5
ENDBRANCH  17  19
ENDBRANCH  12  17
TORSDOF 9
ENDMDL
MODEL 3
REMARK VINA RESULT:       4.6      2.989      5.814
REMARK  Name = 51136637
REMARK  11 active torsions:
REMARK  status: ('A' for Active; 'I' for Inactive)
REMARK    1  A    between atoms: S_1  and  N_9
REMARK    2  A    between atoms: S_1  and  C_21
REMARK    3  A    between atoms: O_5  and  C_19
REMARK    4  A    between atoms: O_7  and  C_29
REMARK    5  A    between atoms: O_7  and  C_34
REMARK    6  A    between atoms: O_8  and  C_30
REMARK    7  A    between atoms: O_8  and  C_35
REMARK    8  A    between atoms: C_11  and  C_16
REMARK    9  A    between atoms: C_12  and  C_17
REMARK   10  A    between atoms: C_16  and  C_18
REMARK   11  A    between atoms: C_17  and  C_19
REMARK                            x       y       z     vdW  Elec       q    Type
REMARK                         _______ _______ _______ _____ _____    ______ ____
ROOT
ATOM      9  N   UNL     1      -1.097  -0.191  25.021  0.00  0.00    -0.176 NA
ATOM     11  C   UNL     1       0.662   1.409  24.300  0.00  0.00    +0.014 C 
ATOM     12  C   UNL     1       1.487   0.221  23.750  0.00  0.00    +0.006 C 
ATOM     13  C   UNL     1      -0.224   0.937  25.464  0.00  0.00    +0.113 C 
ATOM     14  C   UNL     1       0.586  -0.971  23.395  0.00  0.00    +0.021 C 
ATOM     15  C   UNL     1      -0.304  -1.368  24.569  0.00  0.00    +0.110 C 
ENDROOT
BRANCH   9   1
ATOM      1  S   UNL     1      -2.414  -0.548  26.059  0.00  0.00    +0.061 S 
ATOM      3  O   UNL     1      -3.181   0.658  26.279  0.00  0.00    -0.153 OA
ATOM      4  O   UNL     1      -1.933  -1.341  27.171  0.00  0.00    -0.153 OA
BRANCH   1  21
ATOM      2  F   UNL     1      -5.561  -4.078  22.539  0.00  0.00    -0.205 F 
ATOM     21  C   UNL     1      -3.356  -1.606  25.006  0.00  0.00    +0.106 A 
ATOM     26  C   UNL     1      -3.260  -2.991  25.140  0.00  0.00    +0.031 A 
ATOM     27  C   UNL     1      -4.197  -1.056  24.037  0.00  0.00    +0.031 A 
ATOM     31  C   UNL     1      -4.005  -3.826  24.308  0.00  0.00    +0.040 A 
ATOM     32  C   UNL     1      -4.942  -1.891  23.206  0.00  0.00    +0.040 A 
ATOM     33  C   UNL     1      -4.846  -3.276  23.341  0.00  0.00    +0.124 A 
ENDBRANCH   1  21
ENDBRANCH   9   1
BRANCH  11  16
ATOM     16  C   UNL     1      -0.182   2.129  23.239  0.00  0.00    +0.060 C 
BRANCH  16  18
ATOM     10  N   UNL     1       0.136   4.433  23.838  0.00  0.00    -0.287 NA
ATOM     18  C   UNL     1      -0.689   3.440  23.790  0.00  0.00    +0.044 C 
ATOM     20  C   UNL     1      -2.097   3.523  24.253  0.00  0.00    +0.003 A 
ATOM     22  C   UNL     1      -2.422   4.595  25.096  0.00  0.00    -0.033 A 
ATOM     23  C   UNL     1      -1.341   5.561  25.480  0.00  0.00    +0.059 C 
ATOM     24  C   UNL     1      -0.373   5.722  24.316  0.00  0.00    +0.146 C 
ATOM     25  C   UNL     1      -3.069   2.586  23.894  0.00  0.00    +0.059 A 
ATOM     28  C   UNL     1      -3.721   4.708  25.599  0.00  0.00    +0.053 A 
ATOM     29  C   UNL     1      -4.366   2.716  24.389  0.00  0.00    +0.162 A 
ATOM     30  C   UNL     1      -4.692   3.772  25.241  0.00  0.00    +0.162 A 
BRANCH  29   7
ATOM      7  O   UNL     1      -5.312   1.801  24.034  0.00  0.00    -0.491 OA
ATOM     34  C   UNL     1      -6.287   1.463  25.018  0.00  0.00    +0.277 C 
ENDBRANCH  29   7
BRANCH  30   8
ATOM      8  O   UNL     1      -5.956   3.899  25.733  0.00  0.00    -0.491 OA
ATOM     35  C   UNL     1      -6.572   5.179  25.615  0.00  0.00    +0.277 C 
ENDBRANCH  30   8
ENDBRANCH  16  18
ENDBRANCH  11  16
BRANCH  12  17
ATOM     17  C   UNL     1       2.371   0.601  22.563  0.00  0.00    +0.124 C 
BRANCH  17  19
ATOM      6  O   UNL     1       4.736   1.188  22.647  0.00  0.00    -0.251 OA
ATOM     19  C   UNL     1       3.830   0.399  22.870  0.00  0.00    +0.305 C 
BRANCH  19   5
ATOM      5  O   UNL     1       4.013  -0.817  23.447  0.00  0.00    -0.481 OA
ATOM     36  H   UNL     1       3.367  -0.980  24.166  0.00  0.00    +0.295 HD
ENDBRANCH  19   5
ENDBRANCH  17  19
ENDBRANCH  12  17
TORSDOF 9
ENDMDL
MODEL 4
REMARK VINA RESULT:       5.5      3.152      6.015
REMARK  Name = 51136637
REMARK  11 active torsions:
REMARK  status: ('A' for Active; 'I' for Inactive)
REMARK    1  A    between atoms: S_1  and  N_9
REMARK    2  A    between atoms: S_1  and  C_21
REMARK    3  A    between atoms: O_5  and  C_19
REMARK    4  A    between atoms: O_7  and  C_29
REMARK    5  A    between atoms: O_7  and  C_34
REMARK    6  A    between atoms: O_8  and  C_30
REMARK    7  A    between atoms: O_8  and  C_35
REMARK    8  A    between atoms: C_11  and  C_16
REMARK    9  A    between atoms: C_12  and  C_17
REMARK   10  A    between atoms: C_16  and  C_18
REMARK   11  A    between atoms: C_17  and  C_19
REMARK                            x       y       z     vdW  Elec       q    Type
REMARK                         _______ _______ _______ _____ _____    ______ ____
ROOT
ATOM      9  N   UNL     1      -0.861  -1.735  23.678  0.00  0.00    -0.176 NA
ATOM     11  C   UNL     1       0.937  -0.029  23.867  0.00  0.00    +0.014 C 
ATOM     12  C   UNL     1       1.669  -0.703  22.681  0.00  0.00    +0.006 C 
ATOM     13  C   UNL     1       0.091  -1.070  24.618  0.00  0.00    +0.113 C 
ATOM     14  C   UNL     1       0.691  -1.469  21.779  0.00  0.00    +0.021 C 
ATOM     15  C   UNL     1      -0.155  -2.454  22.581  0.00  0.00    +0.110 C 
ENDROOT
BRANCH   9   1
ATOM      1  S   UNL     1      -2.137  -2.604  24.422  0.00  0.00    +0.061 S 
ATOM      3  O   UNL     1      -1.693  -3.080  25.714  0.00  0.00    -0.153 OA
ATOM      4  O   UNL     1      -2.716  -3.509  23.452  0.00  0.00    -0.153 OA
BRANCH   1  21
ATOM      2  F   UNL     1      -5.977   1.776  25.323  0.00  0.00    -0.205 F 
ATOM     21  C   UNL     1      -3.286  -1.292  24.693  0.00  0.00    +0.106 A 
ATOM     26  C   UNL     1      -3.549  -0.851  25.989  0.00  0.00    +0.031 A 
ATOM     27  C   UNL     1      -3.933  -0.696  23.608  0.00  0.00    +0.031 A 
ATOM     31  C   UNL     1      -4.458   0.186  26.203  0.00  0.00    +0.040 A 
ATOM     32  C   UNL     1      -4.840   0.340  23.823  0.00  0.00    +0.040 A 
ATOM     33  C   UNL     1      -5.103   0.782  25.119  0.00  0.00    +0.124 A 
ENDBRANCH   1  21
ENDBRANCH   9   1
BRANCH  11  16
ATOM     16  C   UNL     1       0.076   1.176  23.467  0.00  0.00    +0.060 C 
BRANCH  16  18
ATOM     10  N   UNL     1       0.734   2.099  25.584  0.00  0.00    -0.287 NA
ATOM     18  C   UNL     1      -0.182   2.045  24.674  0.00  0.00    +0.044 C 
ATOM     20  C   UNL     1      -1.466   2.784  24.762  0.00  0.00    +0.003 A 
ATOM     22  C   UNL     1      -1.839   3.254  26.028  0.00  0.00    -0.033 A 
ATOM     23  C   UNL     1      -0.939   2.972  27.194  0.00  0.00    +0.059 C 
ATOM     24  C   UNL     1       0.510   2.990  26.727  0.00  0.00    +0.146 C 
ATOM     25  C   UNL     1      -2.290   3.002  23.656  0.00  0.00    +0.059 A 
ATOM     28  C   UNL     1      -3.056   3.923  26.186  0.00  0.00    +0.053 A 
ATOM     29  C   UNL     1      -3.496   3.684  23.820  0.00  0.00    +0.162 A 
ATOM     30  C   UNL     1      -3.880   4.141  25.081  0.00  0.00    +0.162 A 
BRANCH  29   7
ATOM      7  O   UNL     1      -4.296   3.897  22.737  0.00  0.00    -0.491 OA
ATOM     34  C   UNL     1      -3.887   3.309  21.504  0.00  0.00    +0.277 C 
ENDBRANCH  29   7
BRANCH  30   8
ATOM      8  O   UNL     1      -5.060   4.800  25.247  0.00  0.00    -0.491 OA
ATOM     35  C   UNL     1      -6.134   4.068  25.835  0.00  0.00    +0.277 C 
ENDBRANCH  30   8
ENDBRANCH  16  18
ENDBRANCH  11  16
BRANCH  12  17
ATOM     17  C   UNL     1       2.508   0.275  21.859  0.00  0.00    +0.124 C 
BRANCH  17  19
ATOM      6  O   UNL     1       4.650   0.124  23.012  0.00  0.00    -0.251 OA
ATOM     19  C   UNL     1       3.692   0.782  22.637  0.00  0.00    +0.305 C 
BRANCH  19   5
ATOM      5  O   UNL     1       3.549   2.111  22.874  0.00  0.00    -0.481 OA
ATOM     36  H   UNL     1       4.267   2.635  22.460  0.00  0.00    +0.295 HD
ENDBRANCH  19   5
ENDBRANCH  17  19
ENDBRANCH  12  17
TORSDOF 9
ENDMDL
MODEL 5
REMARK VINA RESULT:       7.0      3.311      3.968
REMARK  Name = 51136637
REMARK  11 active torsions:
REMARK  status: ('A' for Active; 'I' for Inactive)
REMARK    1  A    between atoms: S_1  and  N_9
REMARK    2  A    between atoms: S_1  and  C_21
REMARK    3  A    between atoms: O_5  and  C_19
REMARK    4  A    between atoms: O_7  and  C_29
REMARK    5  A    between atoms: O_7  and  C_34
REMARK    6  A    between atoms: O_8  and  C_30
REMARK    7  A    between atoms: O_8  and  C_35
REMARK    8  A    between atoms: C_11  and  C_16
REMARK    9  A    between atoms: C_12  and  C_17
REMARK   10  A    between atoms: C_16  and  C_18
REMARK   11  A    between atoms: C_17  and  C_19
REMARK                            x       y       z     vdW  Elec       q    Type
REMARK                         _______ _______ _______ _____ _____    ______ ____
ROOT
ATOM      9  N   UNL     1      -0.963   1.195  25.512  0.00  0.00    -0.176 NA
ATOM     11  C   UNL     1      -1.257  -0.669  23.894  0.00  0.00    +0.014 C 
ATOM     12  C   UNL     1      -0.999  -1.676  25.041  0.00  0.00    +0.006 C 
ATOM     13  C   UNL     1      -0.533   0.655  24.187  0.00  0.00    +0.113 C 
ATOM     14  C   UNL     1      -1.349  -1.071  26.408  0.00  0.00    +0.021 C 
ATOM     15  C   UNL     1      -0.640   0.262  26.628  0.00  0.00    +0.110 C 
ENDROOT
BRANCH   9   1
ATOM      1  S   UNL     1      -0.572   2.839  25.794  0.00  0.00    +0.061 S 
ATOM      3  O   UNL     1      -1.780   3.558  26.137  0.00  0.00    -0.153 OA
ATOM      4  O   UNL     1       0.298   3.304  24.735  0.00  0.00    -0.153 OA
BRANCH   1  21
ATOM      2  F   UNL     1       2.667   2.304  30.689  0.00  0.00    -0.205 F 
ATOM     21  C   UNL     1       0.397   2.678  27.260  0.00  0.00    +0.106 A 
ATOM     26  C   UNL     1      -0.223   2.411  28.481  0.00  0.00    +0.031 A 
ATOM     27  C   UNL     1       1.784   2.819  27.198  0.00  0.00    +0.031 A 
ATOM     31  C   UNL     1       0.544   2.284  29.639  0.00  0.00    +0.040 A 
ATOM     32  C   UNL     1       2.549   2.692  28.356  0.00  0.00    +0.040 A 
ATOM     33  C   UNL     1       1.930   2.424  29.577  0.00  0.00    +0.124 A 
ENDBRANCH   1  21
ENDBRANCH   9   1
BRANCH  11  16
ATOM     16  C   UNL     1      -2.743  -0.416  23.606  0.00  0.00    +0.060 C 
BRANCH  16  18
ATOM     10  N   UNL     1      -2.243   1.458  22.190  0.00  0.00    -0.287 NA
ATOM     18  C   UNL     1      -2.946   1.018  23.180  0.00  0.00    +0.044 C 
ATOM     20  C   UNL     1      -3.931   1.849  23.917  0.00  0.00    +0.003 A 
ATOM     22  C   UNL     1      -3.822   3.239  23.768  0.00  0.00    -0.033 A 
ATOM     23  C   UNL     1      -2.727   3.785  22.900  0.00  0.00    +0.059 C 
ATOM     24  C   UNL     1      -2.483   2.832  21.738  0.00  0.00    +0.146 C 
ATOM     25  C   UNL     1      -4.919   1.302  24.738  0.00  0.00    +0.059 A 
ATOM     28  C   UNL     1      -4.693   4.079  24.466  0.00  0.00    +0.053 A 
ATOM     29  C   UNL     1      -5.795   2.148  25.419  0.00  0.00    +0.162 A 
ATOM     30  C   UNL     1      -5.681   3.532  25.287  0.00  0.00    +0.162 A 
BRANCH  29   7
ATOM      7  O   UNL     1      -6.759   1.609  26.218  0.00  0.00    -0.491 OA
ATOM     34  C   UNL     1      -6.436   1.434  27.595  0.00  0.00    +0.277 C 
ENDBRANCH  29   7
BRANCH  30   8
ATOM      8  O   UNL     1      -6.528   4.362  25.956  0.00  0.00    -0.491 OA
ATOM     35  C   UNL     1      -6.573   5.723  25.531  0.00  0.00    +0.277 C 
ENDBRANCH  30   8
ENDBRANCH  16  18
ENDBRANCH  11  16
BRANCH  12  17
ATOM     17  C   UNL     1      -1.716  -3.011  24.841  0.00  0.00    +0.124 C 
BRANCH  17  19
ATOM      6  O   UNL     1      -3.797  -2.296  25.892  0.00  0.00    -0.251 OA
ATOM     19  C   UNL     1      -3.206  -2.868  24.988  0.00  0.00    +0.305 C 
BRANCH  19   5
ATOM      5  O   UNL     1      -3.829  -3.479  23.947  0.00  0.00    -0.481 OA
ATOM     36  H   UNL     1      -3.447  -3.212  23.085  0.00  0.00    +0.295 HD
ENDBRANCH  19   5
ENDBRANCH  17  19
ENDBRANCH  12  17
TORSDOF 9
ENDMDL
MODEL 6
REMARK VINA RESULT:       7.5      3.288      4.582
REMARK  Name = 51136637
REMARK  11 active torsions:
REMARK  status: ('A' for Active; 'I' for Inactive)
REMARK    1  A    between atoms: S_1  and  N_9
REMARK    2  A    between atoms: S_1  and  C_21
REMARK    3  A    between atoms: O_5  and  C_19
REMARK    4  A    between atoms: O_7  and  C_29
REMARK    5  A    between atoms: O_7  and  C_34
REMARK    6  A    between atoms: O_8  and  C_30
REMARK    7  A    between atoms: O_8  and  C_35
REMARK    8  A    between atoms: C_11  and  C_16
REMARK    9  A    between atoms: C_12  and  C_17
REMARK   10  A    between atoms: C_16  and  C_18
REMARK   11  A    between atoms: C_17  and  C_19
REMARK                            x       y       z     vdW  Elec       q    Type
REMARK                         _______ _______ _______ _____ _____    ______ ____
ROOT
ATOM      9  N   UNL     1      -0.253   0.427  24.530  0.00  0.00    -0.176 NA
ATOM     11  C   UNL     1      -1.846  -1.111  23.401  0.00  0.00    +0.014 C 
ATOM     12  C   UNL     1      -1.302  -2.274  24.266  0.00  0.00    +0.006 C 
ATOM     13  C   UNL     1      -0.753  -0.049  23.205  0.00  0.00    +0.113 C 
ATOM     14  C   UNL     1      -0.698  -1.760  25.581  0.00  0.00    +0.021 C 
ATOM     15  C   UNL     1       0.347  -0.677  25.331  0.00  0.00    +0.110 C 
ENDROOT
BRANCH   9   1
ATOM      1  S   UNL     1       0.652   1.881  24.492  0.00  0.00    +0.061 S 
ATOM      3  O   UNL     1       0.888   2.254  23.114  0.00  0.00    -0.153 OA
ATOM      4  O   UNL     1       1.745   1.778  25.435  0.00  0.00    -0.153 OA
BRANCH   1  21
ATOM      2  F   UNL     1      -3.319   5.620  26.728  0.00  0.00    -0.205 F 
ATOM     21  C   UNL     1      -0.537   3.001  25.160  0.00  0.00    +0.106 A 
ATOM     26  C   UNL     1      -0.581   4.322  24.714  0.00  0.00    +0.031 A 
ATOM     27  C   UNL     1      -1.433   2.565  26.137  0.00  0.00    +0.031 A 
ATOM     31  C   UNL     1      -1.521   5.206  25.243  0.00  0.00    +0.040 A 
ATOM     32  C   UNL     1      -2.373   3.450  26.665  0.00  0.00    +0.040 A 
ATOM     33  C   UNL     1      -2.417   4.770  26.218  0.00  0.00    +0.124 A 
ENDBRANCH   1  21
ENDBRANCH   9   1
BRANCH  11  16
ATOM     16  C   UNL     1      -3.127  -0.469  23.951  0.00  0.00    +0.060 C 
BRANCH  16  18
ATOM     10  N   UNL     1      -2.780   1.095  22.163  0.00  0.00    -0.287 NA
ATOM     18  C   UNL     1      -3.344   0.878  23.304  0.00  0.00    +0.044 C 
ATOM     20  C   UNL     1      -4.182   1.881  24.008  0.00  0.00    +0.003 A 
ATOM     22  C   UNL     1      -4.051   3.214  23.594  0.00  0.00    -0.033 A 
ATOM     23  C   UNL     1      -3.079   3.535  22.498  0.00  0.00    +0.059 C 
ATOM     24  C   UNL     1      -3.040   2.381  21.506  0.00  0.00    +0.146 C 
ATOM     25  C   UNL     1      -5.056   1.545  25.044  0.00  0.00    +0.059 A 
ATOM     28  C   UNL     1      -4.783   4.213  24.242  0.00  0.00    +0.053 A 
ATOM     29  C   UNL     1      -5.793   2.547  25.674  0.00  0.00    +0.162 A 
ATOM     30  C   UNL     1      -5.656   3.878  25.278  0.00  0.00    +0.162 A 
BRANCH  29   7
ATOM      7  O   UNL     1      -6.647   2.214  26.684  0.00  0.00    -0.491 OA
ATOM     34  C   UNL     1      -6.492   0.919  27.261  0.00  0.00    +0.277 C 
ENDBRANCH  29   7
BRANCH  30   8
ATOM      8  O   UNL     1      -6.368   4.860  25.896  0.00  0.00    -0.491 OA
ATOM     35  C   UNL     1      -6.595   6.059  25.158  0.00  0.00    +0.277 C 
ENDBRANCH  30   8
ENDBRANCH  16  18
ENDBRANCH  11  16
BRANCH  12  17
ATOM     17  C   UNL     1      -2.343  -3.359  24.538  0.00  0.00    +0.124 C 
BRANCH  17  19
ATOM      6  O   UNL     1      -4.639  -2.824  23.917  0.00  0.00    -0.251 OA
ATOM     19  C   UNL     1      -3.718  -2.777  24.719  0.00  0.00    +0.305 C 
BRANCH  19   5
ATOM      5  O   UNL     1      -3.803  -2.172  25.931  0.00  0.00    -0.481 OA
ATOM     36  H   UNL     1      -4.504  -1.486  25.949  0.00  0.00    +0.295 HD
ENDBRANCH  19   5
ENDBRANCH  17  19
ENDBRANCH  12  17
TORSDOF 9
ENDMDL
MODEL 7
REMARK VINA RESULT:       7.7      3.017      6.199
REMARK  Name = 51136637
REMARK  11 active torsions:
REMARK  status: ('A' for Active; 'I' for Inactive)
REMARK    1  A    between atoms: S_1  and  N_9
REMARK    2  A    between atoms: S_1  and  C_21
REMARK    3  A    between atoms: O_5  and  C_19
REMARK    4  A    between atoms: O_7  and  C_29
REMARK    5  A    between atoms: O_7  and  C_34
REMARK    6  A    between atoms: O_8  and  C_30
REMARK    7  A    between atoms: O_8  and  C_35
REMARK    8  A    between atoms: C_11  and  C_16
REMARK    9  A    between atoms: C_12  and  C_17
REMARK   10  A    between atoms: C_16  and  C_18
REMARK   11  A    between atoms: C_17  and  C_19
REMARK                            x       y       z     vdW  Elec       q    Type
REMARK                         _______ _______ _______ _____ _____    ______ ____
ROOT
ATOM      9  N   UNL     1      -0.761   1.054  22.891  0.00  0.00    -0.176 NA
ATOM     11  C   UNL     1       0.451  -1.084  23.261  0.00  0.00    +0.014 C 
ATOM     12  C   UNL     1       1.792  -0.320  23.137  0.00  0.00    +0.006 C 
ATOM     13  C   UNL     1      -0.637  -0.366  22.446  0.00  0.00    +0.113 C 
ATOM     14  C   UNL     1       1.628   1.163  23.499  0.00  0.00    +0.021 C 
ATOM     15  C   UNL     1       0.506   1.814  22.696  0.00  0.00    +0.110 C 
ENDROOT
BRANCH   9   1
ATOM      1  S   UNL     1      -2.185   1.860  22.382  0.00  0.00    +0.061 S 
ATOM      3  O   UNL     1      -3.337   1.097  22.812  0.00  0.00    -0.153 OA
ATOM      4  O   UNL     1      -2.029   2.262  21.001  0.00  0.00    -0.153 OA
BRANCH   1  21
ATOM      2  F   UNL     1      -1.870   6.707  25.722  0.00  0.00    -0.205 F 
ATOM     21  C   UNL     1      -2.092   3.311  23.383  0.00  0.00    +0.106 A 
ATOM     26  C   UNL     1      -3.254   4.006  23.714  0.00  0.00    +0.031 A 
ATOM     27  C   UNL     1      -0.854   3.762  23.842  0.00  0.00    +0.031 A 
ATOM     31  C   UNL     1      -3.180   5.153  24.504  0.00  0.00    +0.040 A 
ATOM     32  C   UNL     1      -0.780   4.909  24.633  0.00  0.00    +0.040 A 
ATOM     33  C   UNL     1      -1.943   5.604  24.964  0.00  0.00    +0.124 A 
ENDBRANCH   1  21
ENDBRANCH   9   1
BRANCH  11  16
ATOM     16  C   UNL     1      -0.014  -1.300  24.707  0.00  0.00    +0.060 C 
BRANCH  16  18
ATOM     10  N   UNL     1      -1.781  -2.904  24.437  0.00  0.00    -0.287 NA
ATOM     18  C   UNL     1      -1.475  -1.682  24.724  0.00  0.00    +0.044 C 
ATOM     20  C   UNL     1      -2.481  -0.643  25.058  0.00  0.00    +0.003 A 
ATOM     22  C   UNL     1      -3.809  -0.909  24.695  0.00  0.00    -0.033 A 
ATOM     23  C   UNL     1      -4.117  -2.197  23.990  0.00  0.00    +0.059 C 
ATOM     24  C   UNL     1      -3.194  -3.289  24.513  0.00  0.00    +0.146 C 
ATOM     25  C   UNL     1      -2.149   0.557  25.691  0.00  0.00    +0.059 A 
ATOM     28  C   UNL     1      -4.798   0.045  24.946  0.00  0.00    +0.053 A 
ATOM     29  C   UNL     1      -3.146   1.497  25.952  0.00  0.00    +0.162 A 
ATOM     30  C   UNL     1      -4.466   1.245  25.578  0.00  0.00    +0.162 A 
BRANCH  29   7
ATOM      7  O   UNL     1      -2.817   2.666  26.572  0.00  0.00    -0.491 OA
ATOM     34  C   UNL     1      -1.446   2.850  26.919  0.00  0.00    +0.277 C 
ENDBRANCH  29   7
BRANCH  30   8
ATOM      8  O   UNL     1      -5.441   2.163  25.823  0.00  0.00    -0.491 OA
ATOM     35  C   UNL     1      -6.621   2.085  25.025  0.00  0.00    +0.277 C 
ENDBRANCH  30   8
ENDBRANCH  16  18
ENDBRANCH  11  16
BRANCH  12  17
ATOM     17  C   UNL     1       2.921  -0.952  23.950  0.00  0.00    +0.124 C 
BRANCH  17  19
ATOM      6  O   UNL     1       4.489   0.385  22.647  0.00  0.00    -0.251 OA
ATOM     19  C   UNL     1       4.266  -0.413  23.545  0.00  0.00    +0.305 C 
BRANCH  19   5
ATOM      5  O   UNL     1       5.231  -0.949  24.336  0.00  0.00    -0.481 OA
ATOM     36  H   UNL     1       5.189  -0.599  25.251  0.00  0.00    +0.295 HD
ENDBRANCH  19   5
ENDBRANCH  17  19
ENDBRANCH  12  17
TORSDOF 9
ENDMDL
MODEL 8
REMARK VINA RESULT:       8.0      2.128      5.002
REMARK  Name = 51136637
REMARK  11 active torsions:
REMARK  status: ('A' for Active; 'I' for Inactive)
REMARK    1  A    between atoms: S_1  and  N_9
REMARK    2  A    between atoms: S_1  and  C_21
REMARK    3  A    between atoms: O_5  and  C_19
REMARK    4  A    between atoms: O_7  and  C_29
REMARK    5  A    between atoms: O_7  and  C_34
REMARK    6  A    between atoms: O_8  and  C_30
REMARK    7  A    between atoms: O_8  and  C_35
REMARK    8  A    between atoms: C_11  and  C_16
REMARK    9  A    between atoms: C_12  and  C_17
REMARK   10  A    between atoms: C_16  and  C_18
REMARK   11  A    between atoms: C_17  and  C_19
REMARK                            x       y       z     vdW  Elec       q    Type
REMARK                         _______ _______ _______ _____ _____    ______ ____
ROOT
ATOM      9  N   UNL     1       0.142   0.877  23.517  0.00  0.00    -0.176 NA
ATOM     11  C   UNL     1       0.143   2.374  25.501  0.00  0.00    +0.014 C 
ATOM     12  C   UNL     1      -0.501   3.484  24.636  0.00  0.00    +0.006 C 
ATOM     13  C   UNL     1       0.984   1.442  24.613  0.00  0.00    +0.113 C 
ATOM     14  C   UNL     1      -1.280   2.892  23.452  0.00  0.00    +0.021 C 
ATOM     15  C   UNL     1      -0.413   1.940  22.633  0.00  0.00    +0.110 C 
ENDROOT
BRANCH   9   1
ATOM      1  S   UNL     1       0.808  -0.477  22.705  0.00  0.00    +0.061 S 
ATOM      3  O   UNL     1       0.580  -0.334  21.284  0.00  0.00    -0.153 OA
ATOM      4  O   UNL     1       0.418  -1.683  23.405  0.00  0.00    -0.153 OA
BRANCH   1  21
ATOM      2  F   UNL     1       6.543   0.430  23.720  0.00  0.00    -0.205 F 
ATOM     21  C   UNL     1       2.525  -0.204  23.009  0.00  0.00    +0.106 A 
ATOM     26  C   UNL     1       3.121   0.995  22.621  0.00  0.00    +0.031 A 
ATOM     27  C   UNL     1       3.286  -1.191  23.638  0.00  0.00    +0.031 A 
ATOM     31  C   UNL     1       4.478   1.210  22.861  0.00  0.00    +0.040 A 
ATOM     32  C   UNL     1       4.643  -0.975  23.878  0.00  0.00    +0.040 A 
ATOM     33  C   UNL     1       5.239   0.225  23.491  0.00  0.00    +0.124 A 
ENDBRANCH   1  21
ENDBRANCH   9   1
BRANCH  11  16
ATOM     16  C   UNL     1      -0.862   1.564  26.330  0.00  0.00    +0.060 C 
BRANCH  16  18
ATOM     10  N   UNL     1      -2.816   2.654  25.458  0.00  0.00    -0.287 NA
ATOM     18  C   UNL     1      -2.198   1.532  25.628  0.00  0.00    +0.044 C 
ATOM     20  C   UNL     1      -2.736   0.224  25.176  0.00  0.00    +0.003 A 
ATOM     22  C   UNL     1      -4.107   0.170  24.891  0.00  0.00    -0.033 A 
ATOM     23  C   UNL     1      -4.929   1.412  25.073  0.00  0.00    +0.059 C 
ATOM     24  C   UNL     1      -4.085   2.630  24.722  0.00  0.00    +0.146 C 
ATOM     25  C   UNL     1      -1.942  -0.917  25.046  0.00  0.00    +0.059 A 
ATOM     28  C   UNL     1      -4.684  -1.041  24.499  0.00  0.00    +0.053 A 
ATOM     29  C   UNL     1      -2.523  -2.118  24.640  0.00  0.00    +0.162 A 
ATOM     30  C   UNL     1      -3.891  -2.181  24.370  0.00  0.00    +0.162 A 
BRANCH  29   7
ATOM      7  O   UNL     1      -1.744  -3.229  24.512  0.00  0.00    -0.491 OA
ATOM     34  C   UNL     1      -0.544  -3.270  25.283  0.00  0.00    +0.277 C 
ENDBRANCH  29   7
BRANCH  30   8
ATOM      8  O   UNL     1      -4.465  -3.354  23.981  0.00  0.00    -0.491 OA
ATOM     35  C   UNL     1      -4.880  -3.452  22.620  0.00  0.00    +0.277 C 
ENDBRANCH  30   8
ENDBRANCH  16  18
ENDBRANCH  11  16
BRANCH  12  17
ATOM     17  C   UNL     1      -1.385   4.436  25.441  0.00  0.00    +0.124 C 
BRANCH  17  19
ATOM      6  O   UNL     1      -2.210   6.682  24.971  0.00  0.00    -0.251 OA
ATOM     19  C   UNL     1      -1.329   5.838  24.900  0.00  0.00    +0.305 C 
BRANCH  19   5
ATOM      5  O   UNL     1      -0.128   6.050  24.301  0.00  0.00    -0.481 OA
ATOM     36  H   UNL     1       0.620   5.850  24.902  0.00  0.00    +0.295 HD
ENDBRANCH  19   5
ENDBRANCH  17  19
ENDBRANCH  12  17
TORSDOF 9
ENDMDL
MODEL 9
REMARK VINA RESULT:       8.0      1.873      3.989
REMARK  Name = 51136637
REMARK  11 active torsions:
REMARK  status: ('A' for Active; 'I' for Inactive)
REMARK    1  A    between atoms: S_1  and  N_9
REMARK    2  A    between atoms: S_1  and  C_21
REMARK    3  A    between atoms: O_5  and  C_19
REMARK    4  A    between atoms: O_7  and  C_29
REMARK    5  A    between atoms: O_7  and  C_34
REMARK    6  A    between atoms: O_8  and  C_30
REMARK    7  A    between atoms: O_8  and  C_35
REMARK    8  A    between atoms: C_11  and  C_16
REMARK    9  A    between atoms: C_12  and  C_17
REMARK   10  A    between atoms: C_16  and  C_18
REMARK   11  A    between atoms: C_17  and  C_19
REMARK                            x       y       z     vdW  Elec       q    Type
REMARK                         _______ _______ _______ _____ _____    ______ ____
ROOT
ATOM      9  N   UNL     1       0.291   0.559  23.176  0.00  0.00    -0.176 NA
ATOM     11  C   UNL     1       0.397   2.450  24.786  0.00  0.00    +0.014 C 
ATOM     12  C   UNL     1      -0.750   3.144  24.013  0.00  0.00    +0.006 C 
ATOM     13  C   UNL     1       1.198   1.547  23.833  0.00  0.00    +0.113 C 
ATOM     14  C   UNL     1      -1.615   2.124  23.257  0.00  0.00    +0.021 C 
ATOM     15  C   UNL     1      -0.766   1.225  22.363  0.00  0.00    +0.110 C 
ENDROOT
BRANCH   9   1
ATOM      1  S   UNL     1       1.074  -0.763  22.418  0.00  0.00    +0.061 S 
ATOM      3  O   UNL     1       0.978  -0.609  20.983  0.00  0.00    -0.153 OA
ATOM      4  O   UNL     1       0.658  -1.989  23.067  0.00  0.00    -0.153 OA
BRANCH   1  21
ATOM      2  F   UNL     1       6.653   0.318  23.985  0.00  0.00    -0.205 F 
ATOM     21  C   UNL     1       2.745  -0.441  22.887  0.00  0.00    +0.106 A 
ATOM     26  C   UNL     1       3.455  -1.382  23.631  0.00  0.00    +0.031 A 
ATOM     27  C   UNL     1       3.354   0.758  22.514  0.00  0.00    +0.031 A 
ATOM     31  C   UNL     1       4.775  -1.126  24.002  0.00  0.00    +0.040 A 
ATOM     32  C   UNL     1       4.674   1.013  22.885  0.00  0.00    +0.040 A 
ATOM     33  C   UNL     1       5.385   0.071  23.628  0.00  0.00    +0.124 A 
ENDBRANCH   1  21
ENDBRANCH   9   1
BRANCH  11  16
ATOM     16  C   UNL     1      -0.066   1.657  26.015  0.00  0.00    +0.060 C 
BRANCH  16  18
ATOM     10  N   UNL     1      -0.506  -0.631  25.436  0.00  0.00    -0.287 NA
ATOM     18  C   UNL     1      -1.002   0.552  25.590  0.00  0.00    +0.044 C 
ATOM     20  C   UNL     1      -2.433   0.875  25.364  0.00  0.00    +0.003 A 
ATOM     22  C   UNL     1      -3.178  -0.046  24.615  0.00  0.00    -0.033 A 
ATOM     23  C   UNL     1      -2.488  -1.269  24.087  0.00  0.00    +0.059 C 
ATOM     24  C   UNL     1      -1.427  -1.717  25.082  0.00  0.00    +0.146 C 
ATOM     25  C   UNL     1      -3.032   2.039  25.850  0.00  0.00    +0.059 A 
ATOM     28  C   UNL     1      -4.521   0.218  24.332  0.00  0.00    +0.053 A 
ATOM     29  C   UNL     1      -4.377   2.287  25.576  0.00  0.00    +0.162 A 
ATOM     30  C   UNL     1      -5.119   1.382  24.817  0.00  0.00    +0.162 A 
BRANCH  29   7
ATOM      7  O   UNL     1      -4.958   3.424  26.054  0.00  0.00    -0.491 OA
ATOM     34  C   UNL     1      -4.143   4.280  26.853  0.00  0.00    +0.277 C 
ENDBRANCH  29   7
BRANCH  30   8
ATOM      8  O   UNL     1      -6.431   1.624  24.541  0.00  0.00    -0.491 OA
ATOM     35  C   UNL     1      -7.261   2.016  25.632  0.00  0.00    +0.277 C 
ENDBRANCH  30   8
ENDBRANCH  16  18
ENDBRANCH  11  16
BRANCH  12  17
ATOM     17  C   UNL     1      -1.619   4.036  24.899  0.00  0.00    +0.124 C 
BRANCH  17  19
ATOM      6  O   UNL     1      -0.028   5.853  24.569  0.00  0.00    -0.251 OA
ATOM     19  C   UNL     1      -1.139   5.461  24.893  0.00  0.00    +0.305 C 
BRANCH  19   5
ATOM      5  O   UNL     1      -2.137   6.282  25.309  0.00  0.00    -0.481 OA
ATOM     36  H   UNL     1      -2.494   6.824  24.574  0.00  0.00    +0.295 HD
ENDBRANCH  19   5
ENDBRANCH  17  19
ENDBRANCH  12  17
TORSDOF 9
ENDMDL
MODEL 10
REMARK VINA RESULT:       8.1      1.912      4.611
REMARK  Name = 51136637
REMARK  11 active torsions:
REMARK  status: ('A' for Active; 'I' for Inactive)
REMARK    1  A    between atoms: S_1  and  N_9
REMARK    2  A    between atoms: S_1  and  C_21
REMARK    3  A    between atoms: O_5  and  C_19
REMARK    4  A    between atoms: O_7  and  C_29
REMARK    5  A    between atoms: O_7  and  C_34
REMARK    6  A    between atoms: O_8  and  C_30
REMARK    7  A    between atoms: O_8  and  C_35
REMARK    8  A    between atoms: C_11  and  C_16
REMARK    9  A    between atoms: C_12  and  C_17
REMARK   10  A    between atoms: C_16  and  C_18
REMARK   11  A    between atoms: C_17  and  C_19
REMARK                            x       y       z     vdW  Elec       q    Type
REMARK                         _______ _______ _______ _____ _____    ______ ____
ROOT
ATOM      9  N   UNL     1       0.090   1.139  23.534  0.00  0.00    -0.176 NA
ATOM     11  C   UNL     1      -0.092   2.510  25.599  0.00  0.00    +0.014 C 
ATOM     12  C   UNL     1      -0.260   3.773  24.720  0.00  0.00    +0.006 C 
ATOM     13  C   UNL     1       0.732   1.454  24.845  0.00  0.00    +0.113 C 
ATOM     14  C   UNL     1      -0.825   3.422  23.336  0.00  0.00    +0.021 C 
ATOM     15  C   UNL     1       0.002   2.338  22.653  0.00  0.00    +0.110 C 
ENDROOT
BRANCH   9   1
ATOM      1  S   UNL     1       0.643  -0.292  22.772  0.00  0.00    +0.061 S 
ATOM      3  O   UNL     1       0.393  -0.196  21.350  0.00  0.00    -0.153 OA
ATOM      4  O   UNL     1       0.187  -1.436  23.534  0.00  0.00    -0.153 OA
BRANCH   1  21
ATOM      2  F   UNL     1       6.447   0.268  23.632  0.00  0.00    -0.205 F 
ATOM     21  C   UNL     1       2.381  -0.126  23.029  0.00  0.00    +0.106 A 
ATOM     26  C   UNL     1       3.101  -1.162  23.622  0.00  0.00    +0.031 A 
ATOM     27  C   UNL     1       3.034   1.045  22.640  0.00  0.00    +0.031 A 
ATOM     31  C   UNL     1       4.475  -1.030  23.826  0.00  0.00    +0.040 A 
ATOM     32  C   UNL     1       4.407   1.176  22.844  0.00  0.00    +0.040 A 
ATOM     33  C   UNL     1       5.128   0.139  23.436  0.00  0.00    +0.124 A 
ENDBRANCH   1  21
ENDBRANCH   9   1
BRANCH  11  16
ATOM     16  C   UNL     1      -1.416   1.909  26.090  0.00  0.00    +0.060 C 
BRANCH  16  18
ATOM     10  N   UNL     1      -0.319  -0.173  26.568  0.00  0.00    -0.287 NA
ATOM     18  C   UNL     1      -1.346   0.402  26.036  0.00  0.00    +0.044 C 
ATOM     20  C   UNL     1      -2.448  -0.340  25.375  0.00  0.00    +0.003 A 
ATOM     22  C   UNL     1      -2.182  -1.664  24.999  0.00  0.00    -0.033 A 
ATOM     23  C   UNL     1      -0.819  -2.229  25.273  0.00  0.00    +0.059 C 
ATOM     24  C   UNL     1      -0.281  -1.639  26.569  0.00  0.00    +0.146 C 
ATOM     25  C   UNL     1      -3.696   0.231  25.113  0.00  0.00    +0.059 A 
ATOM     28  C   UNL     1      -3.163  -2.405  24.337  0.00  0.00    +0.053 A 
ATOM     29  C   UNL     1      -4.675  -0.522  24.464  0.00  0.00    +0.162 A 
ATOM     30  C   UNL     1      -4.410  -1.835  24.074  0.00  0.00    +0.162 A 
BRANCH  29   7
ATOM      7  O   UNL     1      -5.891   0.040  24.213  0.00  0.00    -0.491 OA
ATOM     34  C   UNL     1      -6.135   1.332  24.765  0.00  0.00    +0.277 C 
ENDBRANCH  29   7
BRANCH  30   8
ATOM      8  O   UNL     1      -5.360  -2.570  23.434  0.00  0.00    -0.491 OA
ATOM     35  C   UNL     1      -4.928  -3.768  22.791  0.00  0.00    +0.277 C 
ENDBRANCH  30   8
ENDBRANCH  16  18
ENDBRANCH  11  16
BRANCH  12  17
ATOM     17  C   UNL     1      -1.100   4.862  25.386  0.00  0.00    +0.124 C 
BRANCH  17  19
ATOM      6  O   UNL     1      -3.252   4.300  24.388  0.00  0.00    -0.251 OA
ATOM     19  C   UNL     1      -2.564   4.519  25.374  0.00  0.00    +0.305 C 
BRANCH  19   5
ATOM      5  O   UNL     1      -3.037   4.482  26.647  0.00  0.00    -0.481 OA
ATOM     36  H   UNL     1      -2.905   5.337  27.110  0.00  0.00    +0.295 HD
ENDBRANCH  19   5
ENDBRANCH  17  19
ENDBRANCH  12  17
TORSDOF 9
ENDMDL
