MODEL 1
REMARK VINA RESULT:      -5.1      0.000      0.000
REMARK  Name = 11912055
REMARK  8 active torsions:
REMARK  status: ('A' for Active; 'I' for Inactive)
REMARK    1  A    between atoms: N_4  and  C_17
REMARK    2  A    between atoms: C_6  and  C_12
REMARK    3  A    between atoms: C_7  and  C_11
REMARK    4  A    between atoms: C_11  and  C_13
REMARK    5  A    between atoms: C_12  and  C_15
REMARK    6  A    between atoms: C_14  and  C_16
REMARK    7  A    between atoms: C_17  and  C_20
REMARK    8  A    between atoms: C_20  and  C_22
REMARK                            x       y       z     vdW  Elec       q    Type
REMARK                         _______ _______ _______ _____ _____    ______ ____
ROOT
ATOM      1  O   UNL     1      -4.634  -0.795  24.731  0.00  0.00    -0.270 OA
ATOM      3  N   UNL     1      -2.631   0.251  24.122  0.00  0.00    -0.297 N 
ATOM      6  C   UNL     1       0.278   0.085  24.314  0.00  0.00    +0.004 C 
ATOM      7  C   UNL     1      -0.502   1.378  24.668  0.00  0.00    +0.010 C 
ATOM      8  C   UNL     1      -0.639  -1.139  24.500  0.00  0.00    +0.023 C 
ATOM      9  C   UNL     1      -1.833   1.464  23.904  0.00  0.00    +0.112 C 
ATOM     10  C   UNL     1      -1.966  -0.999  23.755  0.00  0.00    +0.108 C 
ATOM     14  C   UNL     1      -3.948   0.217  24.589  0.00  0.00    +0.248 C 
ENDROOT
BRANCH  14  16
ATOM      5  N   UNL     1      -6.274   2.647  26.234  0.00  0.00    -0.263 NA
ATOM     16  C   UNL     1      -4.584   1.487  24.963  0.00  0.00    +0.055 A 
ATOM     18  C   UNL     1      -4.134   2.689  24.437  0.00  0.00    +0.016 A 
ATOM     19  C   UNL     1      -5.645   1.514  25.848  0.00  0.00    +0.123 A 
ATOM     21  C   UNL     1      -4.757   3.876  24.809  0.00  0.00    +0.020 A 
ATOM     23  C   UNL     1      -5.812   3.801  25.703  0.00  0.00    +0.111 A 
ENDBRANCH  14  16
BRANCH   7  11
ATOM     11  C   UNL     1       0.319   2.649  24.462  0.00  0.00    +0.002 C 
ATOM     13  C   UNL     1      -0.523   3.887  24.689  0.00  0.00    +0.004 C 
ENDBRANCH   7  11
BRANCH   6  12
ATOM     12  C   UNL     1       0.897   0.093  22.910  0.00  0.00    +0.099 C 
BRANCH  12  15
ATOM      2  O   UNL     1       2.810  -1.368  23.148  0.00  0.00    -0.276 OA
ATOM      4  N   UNL     1       3.144   0.884  22.681  0.00  0.00    -0.315 N 
ATOM     15  C   UNL     1       2.372  -0.240  22.932  0.00  0.00    +0.213 C 
ATOM     24  H   UNL     1       2.689   1.778  22.519  0.00  0.00    +0.149 HD
BRANCH   4  17
ATOM     17  C   UNL     1       4.588   0.859  22.645  0.00  0.00    +0.104 C 
BRANCH  17  20
ATOM     20  C   UNL     1       5.199   0.627  24.021  0.00  0.00    +0.015 C 
ATOM     22  C   UNL     1       5.752  -0.781  24.191  0.00  0.00    +0.005 C 
ENDBRANCH  17  20
ENDBRANCH   4  17
ENDBRANCH  12  15
ENDBRANCH   6  12
TORSDOF 6
ENDMDL
MODEL 2
REMARK VINA RESULT:      -4.0      1.915      7.113
REMARK  Name = 11912055
REMARK  8 active torsions:
REMARK  status: ('A' for Active; 'I' for Inactive)
REMARK    1  A    between atoms: N_4  and  C_17
REMARK    2  A    between atoms: C_6  and  C_12
REMARK    3  A    between atoms: C_7  and  C_11
REMARK    4  A    between atoms: C_11  and  C_13
REMARK    5  A    between atoms: C_12  and  C_15
REMARK    6  A    between atoms: C_14  and  C_16
REMARK    7  A    between atoms: C_17  and  C_20
REMARK    8  A    between atoms: C_20  and  C_22
REMARK                            x       y       z     vdW  Elec       q    Type
REMARK                         _______ _______ _______ _____ _____    ______ ____
ROOT
ATOM      1  O   UNL     1       0.975  -0.721  21.401  0.00  0.00    -0.270 OA
ATOM      3  N   UNL     1       0.238   0.507  23.251  0.00  0.00    -0.297 N 
ATOM      6  C   UNL     1      -1.540   2.661  24.105  0.00  0.00    +0.004 C 
ATOM      7  C   UNL     1      -0.041   2.620  24.499  0.00  0.00    +0.010 C 
ATOM      8  C   UNL     1      -1.751   1.878  22.793  0.00  0.00    +0.023 C 
ATOM      9  C   UNL     1       0.499   1.182  24.529  0.00  0.00    +0.112 C 
ATOM     10  C   UNL     1      -1.169   0.467  22.852  0.00  0.00    +0.108 C 
ATOM     14  C   UNL     1       1.197  -0.117  22.449  0.00  0.00    +0.248 C 
ENDROOT
BRANCH  14  16
ATOM      5  N   UNL     1       4.509  -1.131  23.873  0.00  0.00    -0.263 NA
ATOM     16  C   UNL     1       2.603  -0.046  22.869  0.00  0.00    +0.055 A 
ATOM     18  C   UNL     1       3.344   1.112  22.680  0.00  0.00    +0.016 A 
ATOM     19  C   UNL     1       3.221  -1.130  23.463  0.00  0.00    +0.123 A 
ATOM     21  C   UNL     1       4.673   1.150  23.089  0.00  0.00    +0.020 A 
ATOM     23  C   UNL     1       5.203   0.012  23.674  0.00  0.00    +0.111 A 
ENDBRANCH  14  16
BRANCH   7  11
ATOM     11  C   UNL     1       0.252   3.333  25.818  0.00  0.00    +0.002 C 
ATOM     13  C   UNL     1       0.426   2.340  26.948  0.00  0.00    +0.004 C 
ENDBRANCH   7  11
BRANCH   6  12
ATOM     12  C   UNL     1      -2.488   2.154  25.199  0.00  0.00    +0.099 C 
BRANCH  12  15
ATOM      2  O   UNL     1      -4.669   2.119  24.153  0.00  0.00    -0.276 OA
ATOM      4  N   UNL     1      -3.639   0.113  24.715  0.00  0.00    -0.315 N 
ATOM     15  C   UNL     1      -3.723   1.494  24.627  0.00  0.00    +0.213 C 
ATOM     24  H   UNL     1      -2.817  -0.314  25.131  0.00  0.00    +0.149 HD
BRANCH   4  17
ATOM     17  C   UNL     1      -4.681  -0.773  24.248  0.00  0.00    +0.104 C 
BRANCH  17  20
ATOM     20  C   UNL     1      -4.154  -2.164  23.915  0.00  0.00    +0.015 C 
ATOM     22  C   UNL     1      -2.933  -2.544  24.740  0.00  0.00    +0.005 C 
ENDBRANCH  17  20
ENDBRANCH   4  17
ENDBRANCH  12  15
ENDBRANCH   6  12
TORSDOF 6
ENDMDL
MODEL 3
REMARK VINA RESULT:      -3.6      1.623      2.695
REMARK  Name = 11912055
REMARK  8 active torsions:
REMARK  status: ('A' for Active; 'I' for Inactive)
REMARK    1  A    between atoms: N_4  and  C_17
REMARK    2  A    between atoms: C_6  and  C_12
REMARK    3  A    between atoms: C_7  and  C_11
REMARK    4  A    between atoms: C_11  and  C_13
REMARK    5  A    between atoms: C_12  and  C_15
REMARK    6  A    between atoms: C_14  and  C_16
REMARK    7  A    between atoms: C_17  and  C_20
REMARK    8  A    between atoms: C_20  and  C_22
REMARK                            x       y       z     vdW  Elec       q    Type
REMARK                         _______ _______ _______ _____ _____    ______ ____
ROOT
ATOM      1  O   UNL     1      -3.578   3.930  23.353  0.00  0.00    -0.270 OA
ATOM      3  N   UNL     1      -2.328   2.068  24.019  0.00  0.00    -0.297 N 
ATOM      6  C   UNL     1      -0.638  -0.113  23.062  0.00  0.00    +0.004 C 
ATOM      7  C   UNL     1      -1.843  -0.354  24.008  0.00  0.00    +0.010 C 
ATOM      8  C   UNL     1      -0.867   1.179  22.253  0.00  0.00    +0.023 C 
ATOM      9  C   UNL     1      -2.144   0.883  24.868  0.00  0.00    +0.112 C 
ATOM     10  C   UNL     1      -1.200   2.377  23.141  0.00  0.00    +0.108 C 
ATOM     14  C   UNL     1      -3.441   2.912  24.031  0.00  0.00    +0.248 C 
ENDROOT
BRANCH  14  16
ATOM      5  N   UNL     1      -5.872   3.073  26.875  0.00  0.00    -0.263 NA
ATOM     16  C   UNL     1      -4.564   2.567  24.913  0.00  0.00    +0.055 A 
ATOM     18  C   UNL     1      -5.358   1.459  24.652  0.00  0.00    +0.016 A 
ATOM     19  C   UNL     1      -4.855   3.336  26.024  0.00  0.00    +0.123 A 
ATOM     21  C   UNL     1      -6.414   1.157  25.505  0.00  0.00    +0.020 A 
ATOM     23  C   UNL     1      -6.627   1.988  26.592  0.00  0.00    +0.111 A 
ENDBRANCH  14  16
BRANCH   7  11
ATOM     11  C   UNL     1      -1.676  -1.593  24.887  0.00  0.00    +0.002 C 
ATOM     13  C   UNL     1      -2.955  -2.401  24.941  0.00  0.00    +0.004 C 
ENDBRANCH   7  11
BRANCH   6  12
ATOM     12  C   UNL     1       0.719  -0.075  23.775  0.00  0.00    +0.099 C 
BRANCH  12  15
ATOM      2  O   UNL     1       1.835  -0.386  21.651  0.00  0.00    -0.276 OA
ATOM      4  N   UNL     1       2.961   0.668  23.388  0.00  0.00    -0.315 N 
ATOM     15  C   UNL     1       1.874   0.036  22.804  0.00  0.00    +0.213 C 
ATOM     24  H   UNL     1       2.902   0.977  24.354  0.00  0.00    +0.149 HD
BRANCH   4  17
ATOM     17  C   UNL     1       4.204   0.907  22.692  0.00  0.00    +0.104 C 
BRANCH  17  20
ATOM     20  C   UNL     1       5.420   0.512  23.522  0.00  0.00    +0.015 C 
ATOM     22  C   UNL     1       5.272  -0.858  24.169  0.00  0.00    +0.005 C 
ENDBRANCH  17  20
ENDBRANCH   4  17
ENDBRANCH  12  15
ENDBRANCH   6  12
TORSDOF 6
ENDMDL
MODEL 4
REMARK VINA RESULT:      -2.6      3.003      4.911
REMARK  Name = 11912055
REMARK  8 active torsions:
REMARK  status: ('A' for Active; 'I' for Inactive)
REMARK    1  A    between atoms: N_4  and  C_17
REMARK    2  A    between atoms: C_6  and  C_12
REMARK    3  A    between atoms: C_7  and  C_11
REMARK    4  A    between atoms: C_11  and  C_13
REMARK    5  A    between atoms: C_12  and  C_15
REMARK    6  A    between atoms: C_14  and  C_16
REMARK    7  A    between atoms: C_17  and  C_20
REMARK    8  A    between atoms: C_20  and  C_22
REMARK                            x       y       z     vdW  Elec       q    Type
REMARK                         _______ _______ _______ _____ _____    ______ ____
ROOT
ATOM      1  O   UNL     1      -5.590   1.061  25.030  0.00  0.00    -0.270 OA
ATOM      3  N   UNL     1      -3.326   1.642  24.926  0.00  0.00    -0.297 N 
ATOM      6  C   UNL     1      -1.411   3.492  23.726  0.00  0.00    +0.004 C 
ATOM      7  C   UNL     1      -1.206   1.955  23.697  0.00  0.00    +0.010 C 
ATOM      8  C   UNL     1      -2.915   3.810  23.842  0.00  0.00    +0.023 C 
ATOM      9  C   UNL     1      -1.906   1.267  24.879  0.00  0.00    +0.112 C 
ATOM     10  C   UNL     1      -3.581   3.080  25.007  0.00  0.00    +0.108 C 
ATOM     14  C   UNL     1      -4.402   0.751  24.947  0.00  0.00    +0.248 C 
ENDROOT
BRANCH  14  16
ATOM      5  N   UNL     1      -3.235  -2.685  25.873  0.00  0.00    -0.263 NA
ATOM     16  C   UNL     1      -4.114  -0.686  24.848  0.00  0.00    +0.055 A 
ATOM     18  C   UNL     1      -4.423  -1.395  23.696  0.00  0.00    +0.016 A 
ATOM     19  C   UNL     1      -3.527  -1.365  25.899  0.00  0.00    +0.123 A 
ATOM     21  C   UNL     1      -4.137  -2.755  23.632  0.00  0.00    +0.020 A 
ATOM     23  C   UNL     1      -3.549  -3.347  24.737  0.00  0.00    +0.111 A 
ENDBRANCH  14  16
BRANCH   7  11
ATOM     11  C   UNL     1       0.265   1.547  23.632  0.00  0.00    +0.002 C 
ATOM     13  C   UNL     1       0.411   0.047  23.489  0.00  0.00    +0.004 C 
ENDBRANCH   7  11
BRANCH   6  12
ATOM     12  C   UNL     1      -0.616   4.208  24.824  0.00  0.00    +0.099 C 
BRANCH  12  15
ATOM      2  O   UNL     1      -1.737   3.539  26.861  0.00  0.00    -0.276 OA
ATOM      4  N   UNL     1       0.447   2.844  26.479  0.00  0.00    -0.315 N 
ATOM     15  C   UNL     1      -0.728   3.509  26.161  0.00  0.00    +0.213 C 
ATOM     24  H   UNL     1       1.234   2.882  25.837  0.00  0.00    +0.149 HD
BRANCH   4  17
ATOM     17  C   UNL     1       0.625   2.094  27.700  0.00  0.00    +0.104 C 
BRANCH  17  20
ATOM     20  C   UNL     1       1.706   2.687  28.595  0.00  0.00    +0.015 C 
ATOM     22  C   UNL     1       1.513   2.336  30.064  0.00  0.00    +0.005 C 
ENDBRANCH  17  20
ENDBRANCH   4  17
ENDBRANCH  12  15
ENDBRANCH   6  12
TORSDOF 6
ENDMDL
MODEL 5
REMARK VINA RESULT:      -2.1      2.077      6.451
REMARK  Name = 11912055
REMARK  8 active torsions:
REMARK  status: ('A' for Active; 'I' for Inactive)
REMARK    1  A    between atoms: N_4  and  C_17
REMARK    2  A    between atoms: C_6  and  C_12
REMARK    3  A    between atoms: C_7  and  C_11
REMARK    4  A    between atoms: C_11  and  C_13
REMARK    5  A    between atoms: C_12  and  C_15
REMARK    6  A    between atoms: C_14  and  C_16
REMARK    7  A    between atoms: C_17  and  C_20
REMARK    8  A    between atoms: C_20  and  C_22
REMARK                            x       y       z     vdW  Elec       q    Type
REMARK                         _______ _______ _______ _____ _____    ______ ____
ROOT
ATOM      1  O   UNL     1      -0.500  -2.075  25.260  0.00  0.00    -0.270 OA
ATOM      3  N   UNL     1      -1.970  -0.270  25.017  0.00  0.00    -0.297 N 
ATOM      6  C   UNL     1      -4.724   0.470  24.388  0.00  0.00    +0.004 C 
ATOM      7  C   UNL     1      -3.509   1.128  23.684  0.00  0.00    +0.010 C 
ATOM      8  C   UNL     1      -4.333  -0.936  24.887  0.00  0.00    +0.023 C 
ATOM      9  C   UNL     1      -2.256   1.100  24.572  0.00  0.00    +0.112 C 
ATOM     10  C   UNL     1      -3.062  -0.925  25.735  0.00  0.00    +0.108 C 
ATOM     14  C   UNL     1      -0.756  -0.943  24.850  0.00  0.00    +0.248 C 
ENDROOT
BRANCH  14  16
ATOM      5  N   UNL     1       1.651   1.716  23.775  0.00  0.00    -0.263 NA
ATOM     16  C   UNL     1       0.316  -0.265  24.111  0.00  0.00    +0.055 A 
ATOM     18  C   UNL     1       0.995  -0.912  23.089  0.00  0.00    +0.016 A 
ATOM     19  C   UNL     1       0.674   1.035  24.415  0.00  0.00    +0.123 A 
ATOM     21  C   UNL     1       2.006  -0.244  22.406  0.00  0.00    +0.020 A 
ATOM     23  C   UNL     1       2.293   1.057  22.784  0.00  0.00    +0.111 A 
ENDBRANCH  14  16
BRANCH   7  11
ATOM     11  C   UNL     1      -3.794   2.549  23.200  0.00  0.00    +0.002 C 
ATOM     13  C   UNL     1      -2.882   2.928  22.053  0.00  0.00    +0.004 C 
ENDBRANCH   7  11
BRANCH   6  12
ATOM     12  C   UNL     1      -5.314   1.307  25.529  0.00  0.00    +0.099 C 
BRANCH  12  15
ATOM      2  O   UNL     1      -5.503   3.627  24.871  0.00  0.00    -0.276 OA
ATOM      4  N   UNL     1      -3.689   2.949  26.156  0.00  0.00    -0.315 N 
ATOM     15  C   UNL     1      -4.876   2.754  25.465  0.00  0.00    +0.213 C 
ATOM     24  H   UNL     1      -3.239   2.161  26.611  0.00  0.00    +0.149 HD
BRANCH   4  17
ATOM     17  C   UNL     1      -3.038   4.234  26.258  0.00  0.00    +0.104 C 
BRANCH  17  20
ATOM     20  C   UNL     1      -1.601   4.199  25.750  0.00  0.00    +0.015 C 
ATOM     22  C   UNL     1      -1.263   5.382  24.855  0.00  0.00    +0.005 C 
ENDBRANCH  17  20
ENDBRANCH   4  17
ENDBRANCH  12  15
ENDBRANCH   6  12
TORSDOF 6
ENDMDL
