MODEL 1
REMARK VINA RESULT:      -5.1      0.000      0.000
REMARK  Name = 75536597
REMARK  7 active torsions:
REMARK  status: ('A' for Active; 'I' for Inactive)
REMARK    1  A    between atoms: O_3  and  C_9
REMARK    2  A    between atoms: N_5  and  C_8
REMARK    3  A    between atoms: N_5  and  C_13
REMARK    4  A    between atoms: N_6  and  C_12
REMARK    5  A    between atoms: C_10  and  C_12
REMARK    6  A    between atoms: C_13  and  C_14
REMARK    7  A    between atoms: C_15  and  C_17
REMARK                            x       y       z     vdW  Elec       q    Type
REMARK                         _______ _______ _______ _____ _____    ______ ____
ROOT
ATOM      2  O   UNL     1      -3.144   4.350  23.768  0.00  0.00    -0.371 OA
ATOM      8  C   UNL     1      -4.554   3.268  25.344  0.00  0.00    +0.111 C 
ATOM      9  C   UNL     1      -3.189   3.491  25.971  0.00  0.00    +0.164 C 
ATOM     10  C   UNL     1      -2.640   4.604  25.090  0.00  0.00    +0.165 C 
ATOM     11  C   UNL     1      -4.232   3.415  23.865  0.00  0.00    +0.181 C 
ENDROOT
BRANCH   9   3
ATOM      3  O   UNL     1      -3.271   3.882  27.328  0.00  0.00    -0.388 OA
ATOM     25  H   UNL     1      -2.410   4.246  27.593  0.00  0.00    +0.210 HD
ENDBRANCH   9   3
BRANCH   8   5
ATOM      5  N   UNL     1      -5.142   1.979  25.670  0.00  0.00    -0.303 NA
ATOM     24  H   UNL     1      -6.096   2.121  26.001  0.00  0.00    +0.123 HD
BRANCH   5  13
ATOM     13  C   UNL     1      -5.172   1.105  24.503  0.00  0.00    +0.137 C 
BRANCH  13  14
ATOM      7  N   UNL     1      -3.642  -0.221  25.854  0.00  0.00    -0.259 NA
ATOM     14  C   UNL     1      -4.402  -0.167  24.736  0.00  0.00    +0.055 A 
ATOM     16  C   UNL     1      -4.505  -1.201  23.819  0.00  0.00    +0.024 A 
ATOM     18  C   UNL     1      -3.782  -2.363  24.064  0.00  0.00    +0.003 A 
ATOM     19  C   UNL     1      -2.954  -1.366  26.059  0.00  0.00    +0.111 A 
ATOM     21  C   UNL     1      -2.989  -2.455  25.203  0.00  0.00    +0.020 A 
ENDBRANCH  13  14
ENDBRANCH   5  13
ENDBRANCH   8   5
BRANCH  10  12
ATOM     12  C   UNL     1      -1.123   4.655  25.061  0.00  0.00    +0.138 C 
BRANCH  12   6
ATOM      4  O   UNL     1       0.415   2.514  26.196  0.00  0.00    -0.270 OA
ATOM      6  N   UNL     1      -0.577   3.529  24.361  0.00  0.00    -0.308 N 
ATOM     15  C   UNL     1       0.160   2.533  24.995  0.00  0.00    +0.251 C 
ATOM     26  H   UNL     1      -0.738   3.487  23.360  0.00  0.00    +0.149 HD
BRANCH  15  17
ATOM      1  S   UNL     1      -0.296   0.068  23.842  0.00  0.00    -0.092 S 
ATOM     17  C   UNL     1       0.679   1.447  24.124  0.00  0.00    +0.074 A 
ATOM     20  C   UNL     1       1.889   1.367  23.470  0.00  0.00    +0.021 A 
ATOM     22  C   UNL     1       2.016   0.158  22.728  0.00  0.00    +0.008 A 
ATOM     23  C   UNL     1       0.900  -0.640  22.842  0.00  0.00    +0.046 A 
ENDBRANCH  15  17
ENDBRANCH  12   6
ENDBRANCH  10  12
TORSDOF 7
ENDMDL
MODEL 2
REMARK VINA RESULT:      -5.1      2.918      6.952
REMARK  Name = 75536597
REMARK  7 active torsions:
REMARK  status: ('A' for Active; 'I' for Inactive)
REMARK    1  A    between atoms: O_3  and  C_9
REMARK    2  A    between atoms: N_5  and  C_8
REMARK    3  A    between atoms: N_5  and  C_13
REMARK    4  A    between atoms: N_6  and  C_12
REMARK    5  A    between atoms: C_10  and  C_12
REMARK    6  A    between atoms: C_13  and  C_14
REMARK    7  A    between atoms: C_15  and  C_17
REMARK                            x       y       z     vdW  Elec       q    Type
REMARK                         _______ _______ _______ _____ _____    ______ ____
ROOT
ATOM      2  O   UNL     1      -1.689  -2.676  23.951  0.00  0.00    -0.371 OA
ATOM      8  C   UNL     1      -0.023  -1.043  24.397  0.00  0.00    +0.111 C 
ATOM      9  C   UNL     1      -1.239  -0.759  25.260  0.00  0.00    +0.164 C 
ATOM     10  C   UNL     1      -1.928  -2.116  25.253  0.00  0.00    +0.165 C 
ATOM     11  C   UNL     1      -0.618  -1.945  23.328  0.00  0.00    +0.181 C 
ENDROOT
BRANCH   9   3
ATOM      3  O   UNL     1      -0.894  -0.349  26.570  0.00  0.00    -0.388 OA
ATOM     25  H   UNL     1      -1.061   0.606  26.645  0.00  0.00    +0.210 HD
ENDBRANCH   9   3
BRANCH   8   5
ATOM      5  N   UNL     1       0.595   0.154  23.849  0.00  0.00    -0.303 NA
ATOM     24  H   UNL     1       1.177   0.587  24.565  0.00  0.00    +0.123 HD
BRANCH   5  13
ATOM     13  C   UNL     1       1.427  -0.167  22.696  0.00  0.00    +0.137 C 
BRANCH  13  14
ATOM      7  N   UNL     1       3.383  -1.332  23.556  0.00  0.00    -0.259 NA
ATOM     14  C   UNL     1       2.891  -0.179  23.047  0.00  0.00    +0.055 A 
ATOM     16  C   UNL     1       3.649   0.961  22.837  0.00  0.00    +0.024 A 
ATOM     18  C   UNL     1       4.998   0.917  23.172  0.00  0.00    +0.003 A 
ATOM     19  C   UNL     1       4.699  -1.338  23.868  0.00  0.00    +0.111 A 
ATOM     21  C   UNL     1       5.540  -0.251  23.697  0.00  0.00    +0.020 A 
ENDBRANCH  13  14
ENDBRANCH   5  13
ENDBRANCH   8   5
BRANCH  10  12
ATOM     12  C   UNL     1      -3.421  -2.034  25.511  0.00  0.00    +0.138 C 
BRANCH  12   6
ATOM      4  O   UNL     1      -3.985  -0.154  23.417  0.00  0.00    -0.270 OA
ATOM      6  N   UNL     1      -3.849  -0.675  25.673  0.00  0.00    -0.308 N 
ATOM     15  C   UNL     1      -4.100   0.169  24.595  0.00  0.00    +0.251 C 
ATOM     26  H   UNL     1      -3.952  -0.335  26.623  0.00  0.00    +0.149 HD
BRANCH  15  17
ATOM      1  S   UNL     1      -3.396   2.835  24.700  0.00  0.00    -0.092 S 
ATOM     17  C   UNL     1      -4.511   1.557  24.931  0.00  0.00    +0.074 A 
ATOM     20  C   UNL     1      -5.716   2.006  25.427  0.00  0.00    +0.021 A 
ATOM     22  C   UNL     1      -5.722   3.417  25.620  0.00  0.00    +0.008 A 
ATOM     23  C   UNL     1      -4.523   3.993  25.264  0.00  0.00    +0.046 A 
ENDBRANCH  15  17
ENDBRANCH  12   6
ENDBRANCH  10  12
TORSDOF 7
ENDMDL
MODEL 3
REMARK VINA RESULT:      -5.0      1.959      4.267
REMARK  Name = 75536597
REMARK  7 active torsions:
REMARK  status: ('A' for Active; 'I' for Inactive)
REMARK    1  A    between atoms: O_3  and  C_9
REMARK    2  A    between atoms: N_5  and  C_8
REMARK    3  A    between atoms: N_5  and  C_13
REMARK    4  A    between atoms: N_6  and  C_12
REMARK    5  A    between atoms: C_10  and  C_12
REMARK    6  A    between atoms: C_13  and  C_14
REMARK    7  A    between atoms: C_15  and  C_17
REMARK                            x       y       z     vdW  Elec       q    Type
REMARK                         _______ _______ _______ _____ _____    ______ ____
ROOT
ATOM      2  O   UNL     1      -0.009   3.399  23.611  0.00  0.00    -0.371 OA
ATOM      8  C   UNL     1      -0.929   3.891  25.745  0.00  0.00    +0.111 C 
ATOM      9  C   UNL     1      -0.512   2.432  25.710  0.00  0.00    +0.164 C 
ATOM     10  C   UNL     1       0.486   2.440  24.561  0.00  0.00    +0.165 C 
ATOM     11  C   UNL     1      -0.994   4.220  24.263  0.00  0.00    +0.181 C 
ENDROOT
BRANCH   9   3
ATOM      3  O   UNL     1       0.082   2.006  26.922  0.00  0.00    -0.388 OA
ATOM     25  H   UNL     1       0.868   1.476  26.707  0.00  0.00    +0.210 HD
ENDBRANCH   9   3
BRANCH   8   5
ATOM      5  N   UNL     1      -2.189   4.121  26.433  0.00  0.00    -0.303 NA
ATOM     24  H   UNL     1      -2.061   4.854  27.130  0.00  0.00    +0.123 HD
BRANCH   5  13
ATOM     13  C   UNL     1      -3.229   4.534  25.498  0.00  0.00    +0.137 C 
BRANCH  13  14
ATOM      7  N   UNL     1      -5.174   3.370  26.384  0.00  0.00    -0.259 NA
ATOM     14  C   UNL     1      -4.302   3.488  25.356  0.00  0.00    +0.055 A 
ATOM     16  C   UNL     1      -4.350   2.716  24.207  0.00  0.00    +0.024 A 
ATOM     18  C   UNL     1      -5.354   1.760  24.106  0.00  0.00    +0.003 A 
ATOM     19  C   UNL     1      -6.137   2.430  26.250  0.00  0.00    +0.111 A 
ATOM     21  C   UNL     1      -6.269   1.608  25.143  0.00  0.00    +0.020 A 
ENDBRANCH  13  14
ENDBRANCH   5  13
ENDBRANCH   8   5
BRANCH  10  12
ATOM     12  C   UNL     1       0.641   1.086  23.890  0.00  0.00    +0.138 C 
BRANCH  12   6
ATOM      4  O   UNL     1      -0.014  -1.373  25.217  0.00  0.00    -0.270 OA
ATOM      6  N   UNL     1      -0.611   0.388  23.830  0.00  0.00    -0.308 N 
ATOM     15  C   UNL     1      -0.841  -0.805  24.509  0.00  0.00    +0.251 C 
ATOM     26  H   UNL     1      -1.337   0.794  23.250  0.00  0.00    +0.149 HD
BRANCH  15  17
ATOM      1  S   UNL     1      -2.359  -3.108  24.521  0.00  0.00    -0.092 S 
ATOM     17  C   UNL     1      -2.181  -1.417  24.322  0.00  0.00    +0.074 A 
ATOM     20  C   UNL     1      -3.373  -0.807  23.996  0.00  0.00    +0.021 A 
ATOM     22  C   UNL     1      -4.445  -1.740  23.908  0.00  0.00    +0.008 A 
ATOM     23  C   UNL     1      -4.034  -3.028  24.171  0.00  0.00    +0.046 A 
ENDBRANCH  15  17
ENDBRANCH  12   6
ENDBRANCH  10  12
TORSDOF 7
ENDMDL
MODEL 4
REMARK VINA RESULT:      -4.9      2.578      6.128
REMARK  Name = 75536597
REMARK  7 active torsions:
REMARK  status: ('A' for Active; 'I' for Inactive)
REMARK    1  A    between atoms: O_3  and  C_9
REMARK    2  A    between atoms: N_5  and  C_8
REMARK    3  A    between atoms: N_5  and  C_13
REMARK    4  A    between atoms: N_6  and  C_12
REMARK    5  A    between atoms: C_10  and  C_12
REMARK    6  A    between atoms: C_13  and  C_14
REMARK    7  A    between atoms: C_15  and  C_17
REMARK                            x       y       z     vdW  Elec       q    Type
REMARK                         _______ _______ _______ _____ _____    ______ ____
ROOT
ATOM      2  O   UNL     1      -1.886  -2.578  23.953  0.00  0.00    -0.371 OA
ATOM      8  C   UNL     1      -0.121  -1.135  24.619  0.00  0.00    +0.111 C 
ATOM      9  C   UNL     1      -1.329  -0.879  25.500  0.00  0.00    +0.164 C 
ATOM     10  C   UNL     1      -2.109  -2.173  25.314  0.00  0.00    +0.165 C 
ATOM     11  C   UNL     1      -0.757  -1.851  23.438  0.00  0.00    +0.181 C 
ENDROOT
BRANCH   9   3
ATOM      3  O   UNL     1      -0.980  -0.663  26.854  0.00  0.00    -0.388 OA
ATOM     25  H   UNL     1      -1.041   0.289  27.038  0.00  0.00    +0.210 HD
ENDBRANCH   9   3
BRANCH   8   5
ATOM      5  N   UNL     1       0.587   0.075  24.234  0.00  0.00    -0.303 NA
ATOM     24  H   UNL     1       1.391  -0.177  23.659  0.00  0.00    +0.123 HD
BRANCH   5  13
ATOM     13  C   UNL     1      -0.276   0.968  23.471  0.00  0.00    +0.137 C 
BRANCH  13  14
ATOM      7  N   UNL     1      -1.058   2.055  25.503  0.00  0.00    -0.259 NA
ATOM     14  C   UNL     1      -0.605   2.221  24.239  0.00  0.00    +0.055 A 
ATOM     16  C   UNL     1      -0.430   3.454  23.634  0.00  0.00    +0.024 A 
ATOM     18  C   UNL     1      -0.742   4.592  24.371  0.00  0.00    +0.003 A 
ATOM     19  C   UNL     1      -1.350   3.183  26.189  0.00  0.00    +0.111 A 
ATOM     21  C   UNL     1      -1.211   4.462  25.674  0.00  0.00    +0.020 A 
ENDBRANCH  13  14
ENDBRANCH   5  13
ENDBRANCH   8   5
BRANCH  10  12
ATOM     12  C   UNL     1      -3.598  -2.020  25.567  0.00  0.00    +0.138 C 
BRANCH  12   6
ATOM      4  O   UNL     1      -4.024  -0.290  23.317  0.00  0.00    -0.270 OA
ATOM      6  N   UNL     1      -3.980  -0.638  25.610  0.00  0.00    -0.308 N 
ATOM     15  C   UNL     1      -4.166   0.128  24.462  0.00  0.00    +0.251 C 
ATOM     26  H   UNL     1      -4.102  -0.222  26.527  0.00  0.00    +0.149 HD
BRANCH  15  17
ATOM      1  S   UNL     1      -5.675   1.940  25.894  0.00  0.00    -0.092 S 
ATOM     17  C   UNL     1      -4.536   1.550  24.676  0.00  0.00    +0.074 A 
ATOM     20  C   UNL     1      -4.084   2.671  24.014  0.00  0.00    +0.021 A 
ATOM     22  C   UNL     1      -4.681   3.864  24.513  0.00  0.00    +0.008 A 
ATOM     23  C   UNL     1      -5.566   3.611  25.537  0.00  0.00    +0.046 A 
ENDBRANCH  15  17
ENDBRANCH  12   6
ENDBRANCH  10  12
TORSDOF 7
ENDMDL
MODEL 5
REMARK VINA RESULT:      -4.9      1.724      4.677
REMARK  Name = 75536597
REMARK  7 active torsions:
REMARK  status: ('A' for Active; 'I' for Inactive)
REMARK    1  A    between atoms: O_3  and  C_9
REMARK    2  A    between atoms: N_5  and  C_8
REMARK    3  A    between atoms: N_5  and  C_13
REMARK    4  A    between atoms: N_6  and  C_12
REMARK    5  A    between atoms: C_10  and  C_12
REMARK    6  A    between atoms: C_13  and  C_14
REMARK    7  A    between atoms: C_15  and  C_17
REMARK                            x       y       z     vdW  Elec       q    Type
REMARK                         _______ _______ _______ _____ _____    ______ ____
ROOT
ATOM      2  O   UNL     1      -3.852   4.267  25.714  0.00  0.00    -0.371 OA
ATOM      8  C   UNL     1      -1.511   4.031  25.391  0.00  0.00    +0.111 C 
ATOM      9  C   UNL     1      -2.241   3.200  24.351  0.00  0.00    +0.164 C 
ATOM     10  C   UNL     1      -3.612   3.862  24.356  0.00  0.00    +0.165 C 
ATOM     11  C   UNL     1      -2.604   4.242  26.427  0.00  0.00    +0.181 C 
ENDROOT
BRANCH   9   3
ATOM      3  O   UNL     1      -1.629   3.262  23.077  0.00  0.00    -0.388 OA
ATOM     25  H   UNL     1      -1.034   4.030  23.060  0.00  0.00    +0.210 HD
ENDBRANCH   9   3
BRANCH   8   5
ATOM      5  N   UNL     1      -0.332   3.377  25.936  0.00  0.00    -0.303 NA
ATOM     24  H   UNL     1      -0.102   3.800  26.835  0.00  0.00    +0.123 HD
BRANCH   5  13
ATOM     13  C   UNL     1      -0.565   1.952  26.131  0.00  0.00    +0.137 C 
BRANCH  13  14
ATOM      7  N   UNL     1       0.975   1.690  24.265  0.00  0.00    -0.259 NA
ATOM     14  C   UNL     1      -0.025   1.135  24.987  0.00  0.00    +0.055 A 
ATOM     16  C   UNL     1      -0.561  -0.118  24.734  0.00  0.00    +0.024 A 
ATOM     18  C   UNL     1      -0.039  -0.847  23.671  0.00  0.00    +0.003 A 
ATOM     19  C   UNL     1       1.457   0.951  23.240  0.00  0.00    +0.111 A 
ATOM     21  C   UNL     1       0.989  -0.309  22.905  0.00  0.00    +0.020 A 
ENDBRANCH  13  14
ENDBRANCH   5  13
ENDBRANCH   8   5
BRANCH  10  12
ATOM     12  C   UNL     1      -4.725   2.942  23.889  0.00  0.00    +0.138 C 
BRANCH  12   6
ATOM      4  O   UNL     1      -5.463   0.984  25.854  0.00  0.00    -0.270 OA
ATOM      6  N   UNL     1      -4.316   1.568  23.923  0.00  0.00    -0.308 N 
ATOM     15  C   UNL     1      -4.725   0.685  24.919  0.00  0.00    +0.251 C 
ATOM     26  H   UNL     1      -3.692   1.255  23.188  0.00  0.00    +0.149 HD
BRANCH  15  17
ATOM      1  S   UNL     1      -3.317  -1.343  26.150  0.00  0.00    -0.092 S 
ATOM     17  C   UNL     1      -4.192  -0.698  24.828  0.00  0.00    +0.074 A 
ATOM     20  C   UNL     1      -4.296  -1.597  23.789  0.00  0.00    +0.021 A 
ATOM     22  C   UNL     1      -3.648  -2.831  24.083  0.00  0.00    +0.008 A 
ATOM     23  C   UNL     1      -3.074  -2.829  25.335  0.00  0.00    +0.046 A 
ENDBRANCH  15  17
ENDBRANCH  12   6
ENDBRANCH  10  12
TORSDOF 7
ENDMDL
MODEL 6
REMARK VINA RESULT:      -4.2      2.393      6.378
REMARK  Name = 75536597
REMARK  7 active torsions:
REMARK  status: ('A' for Active; 'I' for Inactive)
REMARK    1  A    between atoms: O_3  and  C_9
REMARK    2  A    between atoms: N_5  and  C_8
REMARK    3  A    between atoms: N_5  and  C_13
REMARK    4  A    between atoms: N_6  and  C_12
REMARK    5  A    between atoms: C_10  and  C_12
REMARK    6  A    between atoms: C_13  and  C_14
REMARK    7  A    between atoms: C_15  and  C_17
REMARK                            x       y       z     vdW  Elec       q    Type
REMARK                         _______ _______ _______ _____ _____    ______ ____
ROOT
ATOM      2  O   UNL     1      -1.113  -1.837  23.385  0.00  0.00    -0.371 OA
ATOM      8  C   UNL     1       0.130  -0.244  24.634  0.00  0.00    +0.111 C 
ATOM      9  C   UNL     1      -1.146  -0.575  25.386  0.00  0.00    +0.164 C 
ATOM     10  C   UNL     1      -1.513  -1.915  24.764  0.00  0.00    +0.165 C 
ATOM     11  C   UNL     1      -0.213  -0.725  23.233  0.00  0.00    +0.181 C 
ENDROOT
BRANCH   9   3
ATOM      3  O   UNL     1      -0.944  -0.679  26.782  0.00  0.00    -0.388 OA
ATOM     25  H   UNL     1      -1.682  -0.235  27.232  0.00  0.00    +0.210 HD
ENDBRANCH   9   3
BRANCH   8   5
ATOM      5  N   UNL     1       0.483   1.166  24.677  0.00  0.00    -0.303 NA
ATOM     24  H   UNL     1       0.055   1.642  23.883  0.00  0.00    +0.123 HD
BRANCH   5  13
ATOM     13  C   UNL     1       0.011   1.787  25.909  0.00  0.00    +0.137 C 
BRANCH  13  14
ATOM      7  N   UNL     1      -0.069   3.947  24.791  0.00  0.00    -0.259 NA
ATOM     14  C   UNL     1      -0.682   3.097  25.646  0.00  0.00    +0.055 A 
ATOM     16  C   UNL     1      -1.888   3.366  26.274  0.00  0.00    +0.024 A 
ATOM     18  C   UNL     1      -2.503   4.585  26.009  0.00  0.00    +0.003 A 
ATOM     19  C   UNL     1      -0.697   5.121  24.557  0.00  0.00    +0.111 A 
ATOM     21  C   UNL     1      -1.902   5.484  25.135  0.00  0.00    +0.020 A 
ENDBRANCH  13  14
ENDBRANCH   5  13
ENDBRANCH   8   5
BRANCH  10  12
ATOM     12  C   UNL     1      -2.995  -2.233  24.852  0.00  0.00    +0.138 C 
BRANCH  12   6
ATOM      4  O   UNL     1      -3.694  -0.004  23.184  0.00  0.00    -0.270 OA
ATOM      6  N   UNL     1      -3.754  -1.079  25.239  0.00  0.00    -0.308 N 
ATOM     15  C   UNL     1      -4.047  -0.041  24.360  0.00  0.00    +0.251 C 
ATOM     26  H   UNL     1      -4.067  -1.037  26.203  0.00  0.00    +0.149 HD
BRANCH  15  17
ATOM      1  S   UNL     1      -4.625   2.654  24.241  0.00  0.00    -0.092 S 
ATOM     17  C   UNL     1      -4.821   1.096  24.922  0.00  0.00    +0.074 A 
ATOM     20  C   UNL     1      -5.723   1.096  25.964  0.00  0.00    +0.021 A 
ATOM     22  C   UNL     1      -6.260   2.393  26.206  0.00  0.00    +0.008 A 
ATOM     23  C   UNL     1      -5.749   3.334  25.341  0.00  0.00    +0.046 A 
ENDBRANCH  15  17
ENDBRANCH  12   6
ENDBRANCH  10  12
TORSDOF 7
ENDMDL
MODEL 7
REMARK VINA RESULT:      -4.1      2.641      4.690
REMARK  Name = 75536597
REMARK  7 active torsions:
REMARK  status: ('A' for Active; 'I' for Inactive)
REMARK    1  A    between atoms: O_3  and  C_9
REMARK    2  A    between atoms: N_5  and  C_8
REMARK    3  A    between atoms: N_5  and  C_13
REMARK    4  A    between atoms: N_6  and  C_12
REMARK    5  A    between atoms: C_10  and  C_12
REMARK    6  A    between atoms: C_13  and  C_14
REMARK    7  A    between atoms: C_15  and  C_17
REMARK                            x       y       z     vdW  Elec       q    Type
REMARK                         _______ _______ _______ _____ _____    ______ ____
ROOT
ATOM      2  O   UNL     1      -0.659   0.220  25.610  0.00  0.00    -0.371 OA
ATOM      8  C   UNL     1      -1.404   2.379  24.956  0.00  0.00    +0.111 C 
ATOM      9  C   UNL     1      -1.057   1.577  23.715  0.00  0.00    +0.164 C 
ATOM     10  C   UNL     1      -1.131   0.155  24.254  0.00  0.00    +0.165 C 
ATOM     11  C   UNL     1      -0.672   1.594  26.034  0.00  0.00    +0.181 C 
ENDROOT
BRANCH   9   3
ATOM      3  O   UNL     1      -1.973   1.788  22.657  0.00  0.00    -0.388 OA
ATOM     25  H   UNL     1      -1.884   2.708  22.355  0.00  0.00    +0.210 HD
ENDBRANCH   9   3
BRANCH   8   5
ATOM      5  N   UNL     1      -0.987   3.770  24.887  0.00  0.00    -0.303 NA
ATOM     24  H   UNL     1      -0.538   3.940  23.988  0.00  0.00    +0.123 HD
BRANCH   5  13
ATOM     13  C   UNL     1      -2.128   4.667  25.021  0.00  0.00    +0.137 C 
BRANCH  13  14
ATOM      7  N   UNL     1      -3.889   3.385  23.935  0.00  0.00    -0.259 NA
ATOM     14  C   UNL     1      -3.429   3.911  25.093  0.00  0.00    +0.055 A 
ATOM     16  C   UNL     1      -4.078   3.790  26.310  0.00  0.00    +0.024 A 
ATOM     18  C   UNL     1      -5.277   3.086  26.342  0.00  0.00    +0.003 A 
ATOM     19  C   UNL     1      -5.056   2.706  24.005  0.00  0.00    +0.111 A 
ATOM     21  C   UNL     1      -5.781   2.530  25.171  0.00  0.00    +0.020 A 
ENDBRANCH  13  14
ENDBRANCH   5  13
ENDBRANCH   8   5
BRANCH  10  12
ATOM     12  C   UNL     1      -0.289  -0.831  23.464  0.00  0.00    +0.138 C 
BRANCH  12   6
ATOM      4  O   UNL     1       1.694  -0.216  21.482  0.00  0.00    -0.270 OA
ATOM      6  N   UNL     1       1.112  -0.620  23.691  0.00  0.00    -0.308 N 
ATOM     15  C   UNL     1       2.005  -0.325  22.664  0.00  0.00    +0.251 C 
ATOM     26  H   UNL     1       1.442  -0.709  24.645  0.00  0.00    +0.149 HD
BRANCH  15  17
ATOM      1  S   UNL     1       4.231  -1.460  23.833  0.00  0.00    -0.092 S 
ATOM     17  C   UNL     1       3.427  -0.161  23.060  0.00  0.00    +0.074 A 
ATOM     20  C   UNL     1       4.250   0.932  22.895  0.00  0.00    +0.021 A 
ATOM     22  C   UNL     1       5.557   0.698  23.410  0.00  0.00    +0.008 A 
ATOM     23  C   UNL     1       5.685  -0.562  23.949  0.00  0.00    +0.046 A 
ENDBRANCH  15  17
ENDBRANCH  12   6
ENDBRANCH  10  12
TORSDOF 7
ENDMDL
MODEL 8
REMARK VINA RESULT:      -4.0      2.898      4.807
REMARK  Name = 75536597
REMARK  7 active torsions:
REMARK  status: ('A' for Active; 'I' for Inactive)
REMARK    1  A    between atoms: O_3  and  C_9
REMARK    2  A    between atoms: N_5  and  C_8
REMARK    3  A    between atoms: N_5  and  C_13
REMARK    4  A    between atoms: N_6  and  C_12
REMARK    5  A    between atoms: C_10  and  C_12
REMARK    6  A    between atoms: C_13  and  C_14
REMARK    7  A    between atoms: C_15  and  C_17
REMARK                            x       y       z     vdW  Elec       q    Type
REMARK                         _______ _______ _______ _____ _____    ______ ____
ROOT
ATOM      2  O   UNL     1      -0.754  -0.211  25.524  0.00  0.00    -0.371 OA
ATOM      8  C   UNL     1      -2.927  -1.152  25.709  0.00  0.00    +0.111 C 
ATOM      9  C   UNL     1      -2.392  -1.412  24.313  0.00  0.00    +0.164 C 
ATOM     10  C   UNL     1      -0.896  -1.246  24.536  0.00  0.00    +0.165 C 
ATOM     11  C   UNL     1      -2.024  -0.019  26.170  0.00  0.00    +0.181 C 
ENDROOT
BRANCH   9   3
ATOM      3  O   UNL     1      -2.715  -2.705  23.838  0.00  0.00    -0.388 OA
ATOM     25  H   UNL     1      -2.060  -3.332  24.188  0.00  0.00    +0.210 HD
ENDBRANCH   9   3
BRANCH   8   5
ATOM      5  N   UNL     1      -4.338  -0.799  25.737  0.00  0.00    -0.303 NA
ATOM     24  H   UNL     1      -4.515  -0.194  26.538  0.00  0.00    +0.123 HD
BRANCH   5  13
ATOM     13  C   UNL     1      -4.727  -0.098  24.520  0.00  0.00    +0.137 C 
BRANCH  13  14
ATOM      7  N   UNL     1      -3.750   2.065  23.982  0.00  0.00    -0.259 NA
ATOM     14  C   UNL     1      -4.684   1.397  24.696  0.00  0.00    +0.055 A 
ATOM     16  C   UNL     1      -5.582   2.005  25.558  0.00  0.00    +0.024 A 
ATOM     18  C   UNL     1      -5.517   3.387  25.698  0.00  0.00    +0.003 A 
ATOM     19  C   UNL     1      -3.717   3.407  24.143  0.00  0.00    +0.111 A 
ATOM     21  C   UNL     1      -4.569   4.109  24.980  0.00  0.00    +0.020 A 
ENDBRANCH  13  14
ENDBRANCH   5  13
ENDBRANCH   8   5
BRANCH  10  12
ATOM     12  C   UNL     1      -0.139  -0.861  23.278  0.00  0.00    +0.138 C 
BRANCH  12   6
ATOM      4  O   UNL     1       1.907  -0.231  21.365  0.00  0.00    -0.270 OA
ATOM      6  N   UNL     1       1.248  -0.623  23.555  0.00  0.00    -0.308 N 
ATOM     15  C   UNL     1       2.174  -0.322  22.560  0.00  0.00    +0.251 C 
ATOM     26  H   UNL     1       1.543  -0.695  24.523  0.00  0.00    +0.149 HD
BRANCH  15  17
ATOM      1  S   UNL     1       4.384  -1.412  23.801  0.00  0.00    -0.092 S 
ATOM     17  C   UNL     1       3.577  -0.127  23.008  0.00  0.00    +0.074 A 
ATOM     20  C   UNL     1       4.379   0.986  22.879  0.00  0.00    +0.021 A 
ATOM     22  C   UNL     1       5.672   0.780  23.440  0.00  0.00    +0.008 A 
ATOM     23  C   UNL     1       5.810  -0.481  23.975  0.00  0.00    +0.046 A 
ENDBRANCH  15  17
ENDBRANCH  12   6
ENDBRANCH  10  12
TORSDOF 7
ENDMDL
MODEL 9
REMARK VINA RESULT:      -3.5      2.253      4.715
REMARK  Name = 75536597
REMARK  7 active torsions:
REMARK  status: ('A' for Active; 'I' for Inactive)
REMARK    1  A    between atoms: O_3  and  C_9
REMARK    2  A    between atoms: N_5  and  C_8
REMARK    3  A    between atoms: N_5  and  C_13
REMARK    4  A    between atoms: N_6  and  C_12
REMARK    5  A    between atoms: C_10  and  C_12
REMARK    6  A    between atoms: C_13  and  C_14
REMARK    7  A    between atoms: C_15  and  C_17
REMARK                            x       y       z     vdW  Elec       q    Type
REMARK                         _______ _______ _______ _____ _____    ______ ____
ROOT
ATOM      2  O   UNL     1      -1.002  -0.377  26.186  0.00  0.00    -0.371 OA
ATOM      8  C   UNL     1      -2.480  -2.076  25.431  0.00  0.00    +0.111 C 
ATOM      9  C   UNL     1      -1.610  -1.624  24.271  0.00  0.00    +0.164 C 
ATOM     10  C   UNL     1      -0.442  -0.988  25.011  0.00  0.00    +0.165 C 
ATOM     11  C   UNL     1      -2.320  -0.913  26.397  0.00  0.00    +0.181 C 
ENDROOT
BRANCH   9   3
ATOM      3  O   UNL     1      -1.193  -2.700  23.452  0.00  0.00    -0.388 OA
ATOM     25  H   UNL     1      -0.800  -3.383  24.020  0.00  0.00    +0.210 HD
ENDBRANCH   9   3
BRANCH   8   5
ATOM      5  N   UNL     1      -3.865  -2.318  25.061  0.00  0.00    -0.303 NA
ATOM     24  H   UNL     1      -4.473  -1.990  25.810  0.00  0.00    +0.123 HD
BRANCH   5  13
ATOM     13  C   UNL     1      -4.210  -1.617  23.831  0.00  0.00    +0.137 C 
BRANCH  13  14
ATOM      7  N   UNL     1      -3.542   0.675  23.354  0.00  0.00    -0.259 NA
ATOM     14  C   UNL     1      -4.368  -0.136  24.055  0.00  0.00    +0.055 A 
ATOM     16  C   UNL     1      -5.327   0.318  24.945  0.00  0.00    +0.024 A 
ATOM     18  C   UNL     1      -5.448   1.691  25.130  0.00  0.00    +0.003 A 
ATOM     19  C   UNL     1      -3.689   2.003  23.559  0.00  0.00    +0.111 A 
ATOM     21  C   UNL     1      -4.616   2.556  24.426  0.00  0.00    +0.020 A 
ENDBRANCH  13  14
ENDBRANCH   5  13
ENDBRANCH   8   5
BRANCH  10  12
ATOM     12  C   UNL     1       0.292   0.057  24.190  0.00  0.00    +0.138 C 
BRANCH  12   6
ATOM      4  O   UNL     1       0.901   2.136  26.072  0.00  0.00    -0.270 OA
ATOM      6  N   UNL     1      -0.345   1.338  24.285  0.00  0.00    -0.308 N 
ATOM     15  C   UNL     1       0.017   2.290  25.234  0.00  0.00    +0.251 C 
ATOM     26  H   UNL     1      -1.096   1.529  23.631  0.00  0.00    +0.149 HD
BRANCH  15  17
ATOM      1  S   UNL     1      -2.176   3.679  26.168  0.00  0.00    -0.092 S 
ATOM     17  C   UNL     1      -0.757   3.558  25.219  0.00  0.00    +0.074 A 
ATOM     20  C   UNL     1      -0.499   4.719  24.523  0.00  0.00    +0.021 A 
ATOM     22  C   UNL     1      -1.481   5.720  24.773  0.00  0.00    +0.008 A 
ATOM     23  C   UNL     1      -2.451   5.288  25.650  0.00  0.00    +0.046 A 
ENDBRANCH  15  17
ENDBRANCH  12   6
ENDBRANCH  10  12
TORSDOF 7
ENDMDL
MODEL 10
REMARK VINA RESULT:      -3.2      2.458      3.340
REMARK  Name = 75536597
REMARK  7 active torsions:
REMARK  status: ('A' for Active; 'I' for Inactive)
REMARK    1  A    between atoms: O_3  and  C_9
REMARK    2  A    between atoms: N_5  and  C_8
REMARK    3  A    between atoms: N_5  and  C_13
REMARK    4  A    between atoms: N_6  and  C_12
REMARK    5  A    between atoms: C_10  and  C_12
REMARK    6  A    between atoms: C_13  and  C_14
REMARK    7  A    between atoms: C_15  and  C_17
REMARK                            x       y       z     vdW  Elec       q    Type
REMARK                         _______ _______ _______ _____ _____    ______ ____
ROOT
ATOM      2  O   UNL     1      -0.346   4.109  23.952  0.00  0.00    -0.371 OA
ATOM      8  C   UNL     1      -1.709   3.819  25.876  0.00  0.00    +0.111 C 
ATOM      9  C   UNL     1      -1.194   2.464  25.425  0.00  0.00    +0.164 C 
ATOM     10  C   UNL     1       0.012   2.871  24.590  0.00  0.00    +0.165 C 
ATOM     11  C   UNL     1      -1.495   4.654  24.623  0.00  0.00    +0.181 C 
ENDROOT
BRANCH   9   3
ATOM      3  O   UNL     1      -0.830   1.632  26.509  0.00  0.00    -0.388 OA
ATOM     25  H   UNL     1      -0.464   2.191  27.215  0.00  0.00    +0.210 HD
ENDBRANCH   9   3
BRANCH   8   5
ATOM      5  N   UNL     1      -3.095   3.800  26.315  0.00  0.00    -0.303 NA
ATOM     24  H   UNL     1      -3.320   4.695  26.750  0.00  0.00    +0.123 HD
BRANCH   5  13
ATOM     13  C   UNL     1      -3.998   3.582  25.191  0.00  0.00    +0.137 C 
BRANCH  13  14
ATOM      7  N   UNL     1      -4.623   1.261  25.574  0.00  0.00    -0.259 NA
ATOM     14  C   UNL     1      -4.007   2.141  24.752  0.00  0.00    +0.055 A 
ATOM     16  C   UNL     1      -3.402   1.791  23.556  0.00  0.00    +0.024 A 
ATOM     18  C   UNL     1      -3.429   0.453  23.180  0.00  0.00    +0.003 A 
ATOM     19  C   UNL     1      -4.631  -0.030  25.175  0.00  0.00    +0.111 A 
ATOM     21  C   UNL     1      -4.053  -0.481  23.999  0.00  0.00    +0.020 A 
ENDBRANCH  13  14
ENDBRANCH   5  13
ENDBRANCH   8   5
BRANCH  10  12
ATOM     12  C   UNL     1       0.391   1.843  23.540  0.00  0.00    +0.138 C 
BRANCH  12   6
ATOM      4  O   UNL     1       1.751  -0.142  21.974  0.00  0.00    -0.270 OA
ATOM      6  N   UNL     1       1.744   1.398  23.710  0.00  0.00    -0.308 N 
ATOM     15  C   UNL     1       2.324   0.425  22.900  0.00  0.00    +0.251 C 
ATOM     26  H   UNL     1       2.274   1.815  24.467  0.00  0.00    +0.149 HD
BRANCH  15  17
ATOM      1  S   UNL     1       4.061  -1.523  23.791  0.00  0.00    -0.092 S 
ATOM     17  C   UNL     1       3.726   0.056  23.222  0.00  0.00    +0.074 A 
ATOM     20  C   UNL     1       4.866   0.825  23.129  0.00  0.00    +0.021 A 
ATOM     22  C   UNL     1       6.029   0.107  23.532  0.00  0.00    +0.008 A 
ATOM     23  C   UNL     1       5.735  -1.182  23.916  0.00  0.00    +0.046 A 
ENDBRANCH  15  17
ENDBRANCH  12   6
ENDBRANCH  10  12
TORSDOF 7
ENDMDL
