MODEL 1
REMARK VINA RESULT:      -3.9      0.000      0.000
REMARK  Name = 26745538
REMARK  5 active torsions:
REMARK  status: ('A' for Active; 'I' for Inactive)
REMARK    1  A    between atoms: O_2  and  C_13
REMARK    2  A    between atoms: O_2  and  C_20
REMARK    3  A    between atoms: N_6  and  C_16
REMARK    4  A    between atoms: C_8  and  C_13
REMARK    5  A    between atoms: C_14  and  C_17
REMARK                            x       y       z     vdW  Elec       q    Type
REMARK                         _______ _______ _______ _____ _____    ______ ____
ROOT
ATOM      3  O   UNL     1      -0.610   2.756  26.026  0.00  0.00    -0.270 OA
ATOM      5  N   UNL     1      -1.561   0.883  24.980  0.00  0.00    -0.278 N 
ATOM      6  N   UNL     1      -3.559  -2.173  24.145  0.00  0.00    -0.336 N 
ATOM      7  N   UNL     1      -1.708  -3.285  24.716  0.00  0.00    -0.240 NA
ATOM      8  C   UNL     1      -0.247   0.209  24.816  0.00  0.00    +0.191 C 
ATOM      9  C   UNL     1      -0.240  -1.283  25.208  0.00  0.00    +0.091 C 
ATOM     10  C   UNL     1      -2.777   0.236  24.408  0.00  0.00    +0.164 C 
ATOM     11  C   UNL     1      -2.623  -1.230  24.453  0.00  0.00    +0.059 A 
ATOM     12  C   UNL     1      -1.498  -1.937  24.794  0.00  0.00    +0.066 A 
ATOM     14  C   UNL     1      -1.578   2.172  25.541  0.00  0.00    +0.248 C 
ATOM     15  C   UNL     1      -2.960  -3.395  24.320  0.00  0.00    +0.199 A 
ATOM     16  C   UNL     1      -4.917  -1.948  23.714  0.00  0.00    +0.150 C 
ENDROOT
BRANCH  14  17
ATOM      1  F   UNL     1      -6.425   4.972  25.590  0.00  0.00    -0.205 F 
ATOM     17  C   UNL     1      -2.850   2.907  25.554  0.00  0.00    +0.037 A 
ATOM     18  C   UNL     1      -2.914   4.181  26.120  0.00  0.00    +0.016 A 
ATOM     19  C   UNL     1      -3.995   2.331  25.000  0.00  0.00    +0.016 A 
ATOM     21  C   UNL     1      -4.122   4.878  26.132  0.00  0.00    +0.039 A 
ATOM     22  C   UNL     1      -5.202   3.029  25.013  0.00  0.00    +0.039 A 
ATOM     23  C   UNL     1      -5.266   4.302  25.579  0.00  0.00    +0.123 A 
ENDBRANCH  14  17
BRANCH   8  13
ATOM      4  O   UNL     1      -0.361   1.253  22.646  0.00  0.00    -0.249 OA
ATOM     13  C   UNL     1       0.148   0.420  23.382  0.00  0.00    +0.328 C 
BRANCH  13   2
ATOM      2  O   UNL     1       1.144  -0.452  23.051  0.00  0.00    -0.467 OA
ATOM     20  C   UNL     1       2.357   0.148  22.587  0.00  0.00    +0.280 C 
ENDBRANCH  13   2
ENDBRANCH   8  13
TORSDOF 3
ENDMDL
MODEL 2
REMARK VINA RESULT:      -3.7     18.383     20.583
REMARK  Name = 26745538
REMARK  5 active torsions:
REMARK  status: ('A' for Active; 'I' for Inactive)
REMARK    1  A    between atoms: O_2  and  C_13
REMARK    2  A    between atoms: O_2  and  C_20
REMARK    3  A    between atoms: N_6  and  C_16
REMARK    4  A    between atoms: C_8  and  C_13
REMARK    5  A    between atoms: C_14  and  C_17
REMARK                            x       y       z     vdW  Elec       q    Type
REMARK                         _______ _______ _______ _____ _____    ______ ____
ROOT
ATOM      3  O   UNL     1      14.875  -8.960  30.400  0.00  0.00    -0.270 OA
ATOM      5  N   UNL     1      15.063  -6.624  30.517  0.00  0.00    -0.278 N 
ATOM      6  N   UNL     1      16.307  -3.095  30.673  0.00  0.00    -0.336 N 
ATOM      7  N   UNL     1      15.981  -3.297  32.873  0.00  0.00    -0.240 NA
ATOM      8  C   UNL     1      14.356  -6.554  31.823  0.00  0.00    +0.191 C 
ATOM      9  C   UNL     1      15.033  -5.643  32.868  0.00  0.00    +0.091 C 
ATOM     10  C   UNL     1      15.467  -5.354  29.849  0.00  0.00    +0.164 C 
ATOM     11  C   UNL     1      15.780  -4.337  30.871  0.00  0.00    +0.059 A 
ATOM     12  C   UNL     1      15.586  -4.434  32.226  0.00  0.00    +0.066 A 
ATOM     14  C   UNL     1      15.190  -7.881  29.901  0.00  0.00    +0.248 C 
ATOM     15  C   UNL     1      16.409  -2.508  31.908  0.00  0.00    +0.199 A 
ATOM     16  C   UNL     1      16.684  -2.497  29.415  0.00  0.00    +0.150 C 
ENDROOT
BRANCH  14  17
ATOM      1  F   UNL     1      17.284  -8.083  24.713  0.00  0.00    -0.205 F 
ATOM     17  C   UNL     1      15.739  -7.934  28.539  0.00  0.00    +0.037 A 
ATOM     18  C   UNL     1      16.864  -8.715  28.271  0.00  0.00    +0.016 A 
ATOM     19  C   UNL     1      15.137  -7.204  27.514  0.00  0.00    +0.016 A 
ATOM     21  C   UNL     1      17.386  -8.765  26.979  0.00  0.00    +0.039 A 
ATOM     22  C   UNL     1      15.659  -7.254  26.222  0.00  0.00    +0.039 A 
ATOM     23  C   UNL     1      16.784  -8.034  25.954  0.00  0.00    +0.123 A 
ENDBRANCH  14  17
BRANCH   8  13
ATOM      4  O   UNL     1      12.506  -5.009  31.782  0.00  0.00    -0.249 OA
ATOM     13  C   UNL     1      12.954  -6.113  31.510  0.00  0.00    +0.328 C 
BRANCH  13   2
ATOM      2  O   UNL     1      12.287  -7.126  30.887  0.00  0.00    -0.467 OA
ATOM     20  C   UNL     1      11.292  -7.784  31.677  0.00  0.00    +0.280 C 
ENDBRANCH  13   2
ENDBRANCH   8  13
TORSDOF 3
ENDMDL
MODEL 3
REMARK VINA RESULT:      -3.3      2.917      5.760
REMARK  Name = 26745538
REMARK  5 active torsions:
REMARK  status: ('A' for Active; 'I' for Inactive)
REMARK    1  A    between atoms: O_2  and  C_13
REMARK    2  A    between atoms: O_2  and  C_20
REMARK    3  A    between atoms: N_6  and  C_16
REMARK    4  A    between atoms: C_8  and  C_13
REMARK    5  A    between atoms: C_14  and  C_17
REMARK                            x       y       z     vdW  Elec       q    Type
REMARK                         _______ _______ _______ _____ _____    ______ ____
ROOT
ATOM      3  O   UNL     1      -0.926   0.921  23.149  0.00  0.00    -0.270 OA
ATOM      5  N   UNL     1      -2.624   1.832  24.488  0.00  0.00    -0.278 N 
ATOM      6  N   UNL     1      -5.897   2.975  25.905  0.00  0.00    -0.336 N 
ATOM      7  N   UNL     1      -5.328   4.965  25.066  0.00  0.00    -0.240 NA
ATOM      8  C   UNL     1      -2.036   3.197  24.441  0.00  0.00    +0.191 C 
ATOM      9  C   UNL     1      -3.055   4.322  24.160  0.00  0.00    +0.091 C 
ATOM     10  C   UNL     1      -3.834   1.598  25.328  0.00  0.00    +0.164 C 
ATOM     11  C   UNL     1      -4.657   2.822  25.358  0.00  0.00    +0.059 A 
ATOM     12  C   UNL     1      -4.330   4.056  24.854  0.00  0.00    +0.066 A 
ATOM     14  C   UNL     1      -1.927   0.790  23.852  0.00  0.00    +0.248 C 
ATOM     15  C   UNL     1      -6.258   4.283  25.704  0.00  0.00    +0.199 A 
ATOM     16  C   UNL     1      -6.687   1.971  26.575  0.00  0.00    +0.150 C 
ENDROOT
BRANCH  14  17
ATOM      1  F   UNL     1      -3.786  -4.445  24.548  0.00  0.00    -0.205 F 
ATOM     17  C   UNL     1      -2.415  -0.584  24.035  0.00  0.00    +0.037 A 
ATOM     18  C   UNL     1      -1.558  -1.569  24.527  0.00  0.00    +0.016 A 
ATOM     19  C   UNL     1      -3.735  -0.904  23.717  0.00  0.00    +0.016 A 
ATOM     21  C   UNL     1      -2.020  -2.873  24.700  0.00  0.00    +0.039 A 
ATOM     22  C   UNL     1      -4.198  -2.208  23.890  0.00  0.00    +0.039 A 
ATOM     23  C   UNL     1      -3.340  -3.193  24.381  0.00  0.00    +0.123 A 
ENDBRANCH  14  17
BRANCH   8  13
ATOM      4  O   UNL     1      -1.842   3.895  26.740  0.00  0.00    -0.249 OA
ATOM     13  C   UNL     1      -1.330   3.387  25.753  0.00  0.00    +0.328 C 
BRANCH  13   2
ATOM      2  O   UNL     1      -0.057   2.908  25.658  0.00  0.00    -0.467 OA
ATOM     20  C   UNL     1       0.513   2.428  26.880  0.00  0.00    +0.280 C 
ENDBRANCH  13   2
ENDBRANCH   8  13
TORSDOF 3
ENDMDL
MODEL 4
REMARK VINA RESULT:      -3.2      2.238      4.047
REMARK  Name = 26745538
REMARK  5 active torsions:
REMARK  status: ('A' for Active; 'I' for Inactive)
REMARK    1  A    between atoms: O_2  and  C_13
REMARK    2  A    between atoms: O_2  and  C_20
REMARK    3  A    between atoms: N_6  and  C_16
REMARK    4  A    between atoms: C_8  and  C_13
REMARK    5  A    between atoms: C_14  and  C_17
REMARK                            x       y       z     vdW  Elec       q    Type
REMARK                         _______ _______ _______ _____ _____    ______ ____
ROOT
ATOM      3  O   UNL     1      -4.741  -0.740  23.839  0.00  0.00    -0.270 OA
ATOM      5  N   UNL     1      -2.568   0.033  24.267  0.00  0.00    -0.278 N 
ATOM      6  N   UNL     1       0.699   1.864  24.220  0.00  0.00    -0.336 N 
ATOM      7  N   UNL     1       1.427   0.111  23.043  0.00  0.00    -0.240 NA
ATOM      8  C   UNL     1      -1.958  -1.296  23.999  0.00  0.00    +0.191 C 
ATOM      9  C   UNL     1      -0.703  -1.254  23.103  0.00  0.00    +0.091 C 
ATOM     10  C   UNL     1      -1.690   1.146  24.731  0.00  0.00    +0.164 C 
ATOM     11  C   UNL     1      -0.345   0.990  24.145  0.00  0.00    +0.059 A 
ATOM     12  C   UNL     1       0.128  -0.076  23.423  0.00  0.00    +0.066 A 
ATOM     14  C   UNL     1      -3.968   0.141  24.212  0.00  0.00    +0.248 C 
ATOM     15  C   UNL     1       1.743   1.290  23.540  0.00  0.00    +0.199 A 
ATOM     16  C   UNL     1       0.721   3.145  24.884  0.00  0.00    +0.150 C 
ENDROOT
BRANCH  14  17
ATOM      1  F   UNL     1      -6.313   4.962  25.827  0.00  0.00    -0.205 F 
ATOM     17  C   UNL     1      -4.583   1.406  24.636  0.00  0.00    +0.037 A 
ATOM     18  C   UNL     1      -4.126   2.615  24.110  0.00  0.00    +0.016 A 
ATOM     19  C   UNL     1      -5.625   1.400  25.564  0.00  0.00    +0.016 A 
ATOM     21  C   UNL     1      -4.710   3.816  24.512  0.00  0.00    +0.039 A 
ATOM     22  C   UNL     1      -6.209   2.600  25.966  0.00  0.00    +0.039 A 
ATOM     23  C   UNL     1      -5.751   3.809  25.440  0.00  0.00    +0.123 A 
ENDBRANCH  14  17
BRANCH   8  13
ATOM      4  O   UNL     1      -0.605  -1.791  25.932  0.00  0.00    -0.249 OA
ATOM     13  C   UNL     1      -1.673  -1.898  25.346  0.00  0.00    +0.328 C 
BRANCH  13   2
ATOM      2  O   UNL     1      -2.777  -2.565  25.789  0.00  0.00    -0.467 OA
ATOM     20  C   UNL     1      -3.448  -3.362  24.809  0.00  0.00    +0.280 C 
ENDBRANCH  13   2
ENDBRANCH   8  13
TORSDOF 3
ENDMDL
MODEL 5
REMARK VINA RESULT:      -3.2      2.721      5.665
REMARK  Name = 26745538
REMARK  5 active torsions:
REMARK  status: ('A' for Active; 'I' for Inactive)
REMARK    1  A    between atoms: O_2  and  C_13
REMARK    2  A    between atoms: O_2  and  C_20
REMARK    3  A    between atoms: N_6  and  C_16
REMARK    4  A    between atoms: C_8  and  C_13
REMARK    5  A    between atoms: C_14  and  C_17
REMARK                            x       y       z     vdW  Elec       q    Type
REMARK                         _______ _______ _______ _____ _____    ______ ____
ROOT
ATOM      3  O   UNL     1       0.377  -0.292  24.238  0.00  0.00    -0.270 OA
ATOM      5  N   UNL     1      -0.991   1.428  25.062  0.00  0.00    -0.278 N 
ATOM      6  N   UNL     1      -3.515   4.164  25.476  0.00  0.00    -0.336 N 
ATOM      7  N   UNL     1      -1.775   5.531  25.174  0.00  0.00    -0.240 NA
ATOM      8  C   UNL     1       0.169   2.288  25.414  0.00  0.00    +0.191 C 
ATOM      9  C   UNL     1       0.025   3.763  24.983  0.00  0.00    +0.091 C 
ATOM     10  C   UNL     1      -2.363   1.893  25.413  0.00  0.00    +0.164 C 
ATOM     11  C   UNL     1      -2.416   3.366  25.350  0.00  0.00    +0.059 A 
ATOM     12  C   UNL     1      -1.363   4.228  25.171  0.00  0.00    +0.066 A 
ATOM     14  C   UNL     1      -0.731   0.147  24.545  0.00  0.00    +0.248 C 
ATOM     15  C   UNL     1      -3.078   5.459  25.362  0.00  0.00    +0.199 A 
ATOM     16  C   UNL     1      -4.879   3.745  25.691  0.00  0.00    +0.150 C 
ENDROOT
BRANCH  14  17
ATOM      1  F   UNL     1      -5.054  -3.332  23.807  0.00  0.00    -0.205 F 
ATOM     17  C   UNL     1      -1.865  -0.766  24.352  0.00  0.00    +0.037 A 
ATOM     18  C   UNL     1      -3.081  -0.277  23.873  0.00  0.00    +0.016 A 
ATOM     19  C   UNL     1      -1.728  -2.123  24.646  0.00  0.00    +0.016 A 
ATOM     21  C   UNL     1      -4.158  -1.143  23.689  0.00  0.00    +0.039 A 
ATOM     22  C   UNL     1      -2.805  -2.990  24.462  0.00  0.00    +0.039 A 
ATOM     23  C   UNL     1      -4.020  -2.499  23.984  0.00  0.00    +0.123 A 
ENDBRANCH  14  17
BRANCH   8  13
ATOM      4  O   UNL     1      -0.329   1.420  27.607  0.00  0.00    -0.249 OA
ATOM     13  C   UNL     1       0.353   2.147  26.899  0.00  0.00    +0.328 C 
BRANCH  13   2
ATOM      2  O   UNL     1       1.380   2.944  27.308  0.00  0.00    -0.467 OA
ATOM     20  C   UNL     1       1.843   2.713  28.643  0.00  0.00    +0.280 C 
ENDBRANCH  13   2
ENDBRANCH   8  13
TORSDOF 3
ENDMDL
MODEL 6
REMARK VINA RESULT:      -2.4      3.453      6.228
REMARK  Name = 26745538
REMARK  5 active torsions:
REMARK  status: ('A' for Active; 'I' for Inactive)
REMARK    1  A    between atoms: O_2  and  C_13
REMARK    2  A    between atoms: O_2  and  C_20
REMARK    3  A    between atoms: N_6  and  C_16
REMARK    4  A    between atoms: C_8  and  C_13
REMARK    5  A    between atoms: C_14  and  C_17
REMARK                            x       y       z     vdW  Elec       q    Type
REMARK                         _______ _______ _______ _____ _____    ______ ____
ROOT
ATOM      3  O   UNL     1      -5.553   0.978  26.077  0.00  0.00    -0.270 OA
ATOM      5  N   UNL     1      -3.555   1.806  25.168  0.00  0.00    -0.278 N 
ATOM      6  N   UNL     1       0.029   2.592  24.416  0.00  0.00    -0.336 N 
ATOM      7  N   UNL     1      -0.351   4.457  25.585  0.00  0.00    -0.240 NA
ATOM      8  C   UNL     1      -3.929   3.220  25.433  0.00  0.00    +0.191 C 
ATOM      9  C   UNL     1      -2.806   4.071  26.062  0.00  0.00    +0.091 C 
ATOM     10  C   UNL     1      -2.282   1.523  24.445  0.00  0.00    +0.164 C 
ATOM     11  C   UNL     1      -1.288   2.562  24.771  0.00  0.00    +0.059 A 
ATOM     12  C   UNL     1      -1.496   3.717  25.482  0.00  0.00    +0.066 A 
ATOM     14  C   UNL     1      -4.490   0.805  25.484  0.00  0.00    +0.248 C 
ATOM     15  C   UNL     1       0.550   3.752  24.930  0.00  0.00    +0.199 A 
ATOM     16  C   UNL     1       0.749   1.607  23.647  0.00  0.00    +0.150 C 
ENDROOT
BRANCH  14  17
ATOM      1  F   UNL     1      -3.362  -4.451  23.921  0.00  0.00    -0.205 F 
ATOM     17  C   UNL     1      -4.194  -0.574  25.073  0.00  0.00    +0.037 A 
ATOM     18  C   UNL     1      -3.470  -1.414  25.921  0.00  0.00    +0.016 A 
ATOM     19  C   UNL     1      -4.636  -1.046  23.837  0.00  0.00    +0.016 A 
ATOM     21  C   UNL     1      -3.188  -2.723  25.531  0.00  0.00    +0.039 A 
ATOM     22  C   UNL     1      -4.355  -2.355  23.447  0.00  0.00    +0.039 A 
ATOM     23  C   UNL     1      -3.631  -3.194  24.295  0.00  0.00    +0.123 A 
ENDBRANCH  14  17
BRANCH   8  13
ATOM      4  O   UNL     1      -4.077   3.319  23.029  0.00  0.00    -0.249 OA
ATOM     13  C   UNL     1      -4.393   3.778  24.118  0.00  0.00    +0.328 C 
BRANCH  13   2
ATOM      2  O   UNL     1      -5.203   4.852  24.339  0.00  0.00    -0.467 OA
ATOM     20  C   UNL     1      -6.074   4.743  25.469  0.00  0.00    +0.280 C 
ENDBRANCH  13   2
ENDBRANCH   8  13
TORSDOF 3
ENDMDL
MODEL 7
REMARK VINA RESULT:      -2.4      3.219      5.787
REMARK  Name = 26745538
REMARK  5 active torsions:
REMARK  status: ('A' for Active; 'I' for Inactive)
REMARK    1  A    between atoms: O_2  and  C_13
REMARK    2  A    between atoms: O_2  and  C_20
REMARK    3  A    between atoms: N_6  and  C_16
REMARK    4  A    between atoms: C_8  and  C_13
REMARK    5  A    between atoms: C_14  and  C_17
REMARK                            x       y       z     vdW  Elec       q    Type
REMARK                         _______ _______ _______ _____ _____    ______ ____
ROOT
ATOM      3  O   UNL     1      -0.774  -1.847  25.175  0.00  0.00    -0.270 OA
ATOM      5  N   UNL     1      -2.253  -0.110  24.628  0.00  0.00    -0.278 N 
ATOM      6  N   UNL     1      -4.098   3.143  24.415  0.00  0.00    -0.336 N 
ATOM      7  N   UNL     1      -5.570   2.159  25.776  0.00  0.00    -0.240 NA
ATOM      8  C   UNL     1      -3.448  -0.893  25.039  0.00  0.00    +0.191 C 
ATOM      9  C   UNL     1      -4.457  -0.111  25.906  0.00  0.00    +0.091 C 
ATOM     10  C   UNL     1      -2.450   1.240  24.026  0.00  0.00    +0.164 C 
ATOM     11  C   UNL     1      -3.652   1.868  24.606  0.00  0.00    +0.059 A 
ATOM     12  C   UNL     1      -4.574   1.285  25.439  0.00  0.00    +0.066 A 
ATOM     14  C   UNL     1      -0.998  -0.738  24.692  0.00  0.00    +0.248 C 
ATOM     15  C   UNL     1      -5.255   3.270  25.140  0.00  0.00    +0.199 A 
ATOM     16  C   UNL     1      -3.486   4.170  23.607  0.00  0.00    +0.150 C 
ENDROOT
BRANCH  14  17
ATOM      1  F   UNL     1       3.421   1.963  22.565  0.00  0.00    -0.205 F 
ATOM     17  C   UNL     1       0.162  -0.030  24.134  0.00  0.00    +0.037 A 
ATOM     18  C   UNL     1       0.413   1.294  24.499  0.00  0.00    +0.016 A 
ATOM     19  C   UNL     1       1.013  -0.679  23.238  0.00  0.00    +0.016 A 
ATOM     21  C   UNL     1       1.513   1.967  23.969  0.00  0.00    +0.039 A 
ATOM     22  C   UNL     1       2.114  -0.006  22.709  0.00  0.00    +0.039 A 
ATOM     23  C   UNL     1       2.363   1.317  23.074  0.00  0.00    +0.123 A 
ENDBRANCH  14  17
BRANCH   8  13
ATOM      4  O   UNL     1      -4.189  -0.731  22.751  0.00  0.00    -0.249 OA
ATOM     13  C   UNL     1      -4.067  -1.399  23.767  0.00  0.00    +0.328 C 
BRANCH  13   2
ATOM      2  O   UNL     1      -4.457  -2.695  23.935  0.00  0.00    -0.467 OA
ATOM     20  C   UNL     1      -3.512  -3.541  24.598  0.00  0.00    +0.280 C 
ENDBRANCH  13   2
ENDBRANCH   8  13
TORSDOF 3
ENDMDL
MODEL 8
REMARK VINA RESULT:      -1.3      3.378      6.572
REMARK  Name = 26745538
REMARK  5 active torsions:
REMARK  status: ('A' for Active; 'I' for Inactive)
REMARK    1  A    between atoms: O_2  and  C_13
REMARK    2  A    between atoms: O_2  and  C_20
REMARK    3  A    between atoms: N_6  and  C_16
REMARK    4  A    between atoms: C_8  and  C_13
REMARK    5  A    between atoms: C_14  and  C_17
REMARK                            x       y       z     vdW  Elec       q    Type
REMARK                         _______ _______ _______ _____ _____    ______ ____
ROOT
ATOM      3  O   UNL     1      -0.753  -1.345  24.220  0.00  0.00    -0.270 OA
ATOM      5  N   UNL     1      -1.329   0.929  24.271  0.00  0.00    -0.278 N 
ATOM      6  N   UNL     1      -1.521   4.601  24.985  0.00  0.00    -0.336 N 
ATOM      7  N   UNL     1      -3.168   4.031  26.383  0.00  0.00    -0.240 NA
ATOM      8  C   UNL     1      -2.712   0.649  24.737  0.00  0.00    +0.191 C 
ATOM      9  C   UNL     1      -3.190   1.548  25.897  0.00  0.00    +0.091 C 
ATOM     10  C   UNL     1      -0.943   2.338  23.970  0.00  0.00    +0.164 C 
ATOM     11  C   UNL     1      -1.685   3.253  24.858  0.00  0.00    +0.059 A 
ATOM     12  C   UNL     1      -2.702   2.930  25.721  0.00  0.00    +0.066 A 
ATOM     14  C   UNL     1      -0.490  -0.164  23.995  0.00  0.00    +0.248 C 
ATOM     15  C   UNL     1      -2.437   5.023  25.915  0.00  0.00    +0.199 A 
ATOM     16  C   UNL     1      -0.578   5.436  24.283  0.00  0.00    +0.150 C 
ENDROOT
BRANCH  14  17
ATOM      1  F   UNL     1       4.491   0.849  21.649  0.00  0.00    -0.205 F 
ATOM     17  C   UNL     1       0.817   0.102  23.380  0.00  0.00    +0.037 A 
ATOM     18  C   UNL     1       1.190  -0.571  22.215  0.00  0.00    +0.016 A 
ATOM     19  C   UNL     1       1.687   1.026  23.959  0.00  0.00    +0.016 A 
ATOM     21  C   UNL     1       2.430  -0.319  21.631  0.00  0.00    +0.039 A 
ATOM     22  C   UNL     1       2.927   1.279  23.374  0.00  0.00    +0.039 A 
ATOM     23  C   UNL     1       3.299   0.605  22.210  0.00  0.00    +0.123 A 
ENDBRANCH  14  17
BRANCH   8  13
ATOM      4  O   UNL     1      -3.948   1.841  23.045  0.00  0.00    -0.249 OA
ATOM     13  C   UNL     1      -3.590   0.775  23.524  0.00  0.00    +0.328 C 
BRANCH  13   2
ATOM      2  O   UNL     1      -3.909  -0.468  23.062  0.00  0.00    -0.467 OA
ATOM     20  C   UNL     1      -4.198  -1.442  24.069  0.00  0.00    +0.280 C 
ENDBRANCH  13   2
ENDBRANCH   8  13
TORSDOF 3
ENDMDL
MODEL 9
REMARK VINA RESULT:      -0.5      3.108      5.293
REMARK  Name = 26745538
REMARK  5 active torsions:
REMARK  status: ('A' for Active; 'I' for Inactive)
REMARK    1  A    between atoms: O_2  and  C_13
REMARK    2  A    between atoms: O_2  and  C_20
REMARK    3  A    between atoms: N_6  and  C_16
REMARK    4  A    between atoms: C_8  and  C_13
REMARK    5  A    between atoms: C_14  and  C_17
REMARK                            x       y       z     vdW  Elec       q    Type
REMARK                         _______ _______ _______ _____ _____    ______ ____
ROOT
ATOM      3  O   UNL     1      -2.710   0.941  26.330  0.00  0.00    -0.270 OA
ATOM      5  N   UNL     1      -1.143   0.884  24.585  0.00  0.00    -0.278 N 
ATOM      6  N   UNL     1       1.621  -0.031  22.228  0.00  0.00    -0.336 N 
ATOM      7  N   UNL     1       2.843   1.397  23.436  0.00  0.00    -0.240 NA
ATOM      8  C   UNL     1      -0.523   2.172  24.993  0.00  0.00    +0.191 C 
ATOM      9  C   UNL     1       1.020   2.160  25.017  0.00  0.00    +0.091 C 
ATOM     10  C   UNL     1      -0.654   0.212  23.346  0.00  0.00    +0.164 C 
ATOM     11  C   UNL     1       0.781   0.499  23.163  0.00  0.00    +0.059 A 
ATOM     12  C   UNL     1       1.552   1.374  23.886  0.00  0.00    +0.066 A 
ATOM     14  C   UNL     1      -2.261   0.430  25.305  0.00  0.00    +0.248 C 
ATOM     15  C   UNL     1       2.851   0.540  22.434  0.00  0.00    +0.199 A 
ATOM     16  C   UNL     1       1.296  -1.001  21.211  0.00  0.00    +0.150 C 
ENDROOT
BRANCH  14  17
ATOM      1  F   UNL     1      -4.983  -4.076  23.400  0.00  0.00    -0.205 F 
ATOM     17  C   UNL     1      -2.975  -0.752  24.805  0.00  0.00    +0.037 A 
ATOM     18  C   UNL     1      -4.058  -0.599  23.939  0.00  0.00    +0.016 A 
ATOM     19  C   UNL     1      -2.572  -2.029  25.197  0.00  0.00    +0.016 A 
ATOM     21  C   UNL     1      -4.737  -1.721  23.464  0.00  0.00    +0.039 A 
ATOM     22  C   UNL     1      -3.250  -3.152  24.723  0.00  0.00    +0.039 A 
ATOM     23  C   UNL     1      -4.333  -2.997  23.856  0.00  0.00    +0.123 A 
ENDBRANCH  14  17
BRANCH   8  13
ATOM      4  O   UNL     1      -1.818   2.960  23.119  0.00  0.00    -0.249 OA
ATOM     13  C   UNL     1      -1.068   3.208  24.052  0.00  0.00    +0.328 C 
BRANCH  13   2
ATOM      2  O   UNL     1      -0.596   4.438  24.406  0.00  0.00    -0.467 OA
ATOM     20  C   UNL     1      -1.502   5.251  25.158  0.00  0.00    +0.280 C 
ENDBRANCH  13   2
ENDBRANCH   8  13
TORSDOF 3
ENDMDL
