MODEL 1
REMARK VINA RESULT:      -5.4      0.000      0.000
REMARK  Name = 75536200
REMARK  6 active torsions:
REMARK  status: ('A' for Active; 'I' for Inactive)
REMARK    1  A    between atoms: N_2  and  C_16
REMARK    2  A    between atoms: C_5  and  C_7
REMARK    3  A    between atoms: C_6  and  C_9
REMARK    4  A    between atoms: C_6  and  C_12
REMARK    5  A    between atoms: C_6  and  C_13
REMARK    6  A    between atoms: C_6  and  C_14
REMARK                            x       y       z     vdW  Elec       q    Type
REMARK                         _______ _______ _______ _____ _____    ______ ____
ROOT
ATOM      3  N   UNL     1      -2.232   1.512  24.849  0.00  0.00    -0.344 N 
ATOM      4  N   UNL     1      -3.221   1.719  22.871  0.00  0.00    -0.239 NA
ATOM      7  C   UNL     1      -2.772   0.871  23.769  0.00  0.00    +0.127 A 
ATOM      9  C   UNL     1      -2.343   2.855  24.626  0.00  0.00    +0.041 A 
ATOM     15  C   UNL     1      -2.956   2.959  23.400  0.00  0.00    +0.134 A 
ATOM     17  H   UNL     1      -1.827   1.065  25.661  0.00  0.00    +0.167 HD
ENDROOT
BRANCH   7   5
ATOM      1  O   UNL     1      -4.329  -2.550  23.934  0.00  0.00    -0.377 OA
ATOM      2  N   UNL     1      -1.825  -1.318  24.572  0.00  0.00    -0.292 NA
ATOM      5  C   UNL     1      -2.812  -0.648  23.688  0.00  0.00    +0.149 C 
ATOM      8  C   UNL     1      -4.237  -1.129  24.027  0.00  0.00    +0.186 C 
ATOM     10  C   UNL     1      -1.998  -2.780  24.514  0.00  0.00    +0.113 C 
ATOM     11  C   UNL     1      -3.432  -3.168  24.852  0.00  0.00    +0.175 C 
ATOM     16  C   UNL     1      -0.442  -0.984  24.210  0.00  0.00    +0.105 C 
ENDBRANCH   7   5
BRANCH   9   6
ATOM      6  C   UNL     1      -1.865   3.863  25.585  0.00  0.00    +0.004 C 
ATOM     12  C   UNL     1      -0.730   3.302  26.508  0.00  0.00    +0.017 C 
ATOM     13  C   UNL     1      -1.259   5.176  24.963  0.00  0.00    +0.017 C 
ATOM     14  C   UNL     1      -3.010   4.364  26.530  0.00  0.00    +0.017 C 
ENDBRANCH   9   6
TORSDOF 2
ENDMDL
MODEL 2
REMARK VINA RESULT:      -5.1      2.433      5.640
REMARK  Name = 75536200
REMARK  6 active torsions:
REMARK  status: ('A' for Active; 'I' for Inactive)
REMARK    1  A    between atoms: N_2  and  C_16
REMARK    2  A    between atoms: C_5  and  C_7
REMARK    3  A    between atoms: C_6  and  C_9
REMARK    4  A    between atoms: C_6  and  C_12
REMARK    5  A    between atoms: C_6  and  C_13
REMARK    6  A    between atoms: C_6  and  C_14
REMARK                            x       y       z     vdW  Elec       q    Type
REMARK                         _______ _______ _______ _____ _____    ______ ____
ROOT
ATOM      3  N   UNL     1      -2.337   0.235  25.074  0.00  0.00    -0.344 N 
ATOM      4  N   UNL     1      -4.019   1.476  24.323  0.00  0.00    -0.239 NA
ATOM      7  C   UNL     1      -2.833   1.495  24.890  0.00  0.00    +0.127 A 
ATOM      9  C   UNL     1      -3.266  -0.645  24.595  0.00  0.00    +0.041 A 
ATOM     15  C   UNL     1      -4.295   0.143  24.137  0.00  0.00    +0.134 A 
ATOM     17  H   UNL     1      -1.444   0.006  25.490  0.00  0.00    +0.167 HD
ENDROOT
BRANCH   7   5
ATOM      1  O   UNL     1      -2.326   5.090  25.879  0.00  0.00    -0.377 OA
ATOM      2  N   UNL     1      -0.939   3.075  24.392  0.00  0.00    -0.292 NA
ATOM      5  C   UNL     1      -2.047   2.727  25.316  0.00  0.00    +0.149 C 
ATOM      8  C   UNL     1      -3.018   3.917  25.450  0.00  0.00    +0.186 C 
ATOM     10  C   UNL     1      -0.297   4.332  24.815  0.00  0.00    +0.113 C 
ATOM     11  C   UNL     1      -1.324   5.451  24.932  0.00  0.00    +0.175 C 
ATOM     16  C   UNL     1       0.076   2.017  24.322  0.00  0.00    +0.105 C 
ENDBRANCH   7   5
BRANCH   9   6
ATOM      6  C   UNL     1      -3.071  -2.103  24.627  0.00  0.00    +0.004 C 
ATOM     12  C   UNL     1      -1.641  -2.514  24.132  0.00  0.00    +0.017 C 
ATOM     13  C   UNL     1      -3.217  -2.789  26.036  0.00  0.00    +0.017 C 
ATOM     14  C   UNL     1      -4.099  -2.852  23.712  0.00  0.00    +0.017 C 
ENDBRANCH   9   6
TORSDOF 2
ENDMDL
MODEL 3
REMARK VINA RESULT:      -5.1      2.294      5.753
REMARK  Name = 75536200
REMARK  6 active torsions:
REMARK  status: ('A' for Active; 'I' for Inactive)
REMARK    1  A    between atoms: N_2  and  C_16
REMARK    2  A    between atoms: C_5  and  C_7
REMARK    3  A    between atoms: C_6  and  C_9
REMARK    4  A    between atoms: C_6  and  C_12
REMARK    5  A    between atoms: C_6  and  C_13
REMARK    6  A    between atoms: C_6  and  C_14
REMARK                            x       y       z     vdW  Elec       q    Type
REMARK                         _______ _______ _______ _____ _____    ______ ____
ROOT
ATOM      3  N   UNL     1      -2.572   0.374  24.486  0.00  0.00    -0.344 N 
ATOM      4  N   UNL     1      -4.569   1.345  24.499  0.00  0.00    -0.239 NA
ATOM      7  C   UNL     1      -3.272   1.546  24.426  0.00  0.00    +0.127 A 
ATOM      9  C   UNL     1      -3.479  -0.640  24.607  0.00  0.00    +0.041 A 
ATOM     15  C   UNL     1      -4.705  -0.017  24.613  0.00  0.00    +0.134 A 
ATOM     17  H   UNL     1      -1.565   0.284  24.448  0.00  0.00    +0.167 HD
ENDROOT
BRANCH   7   5
ATOM      1  O   UNL     1      -0.374   3.869  23.828  0.00  0.00    -0.377 OA
ATOM      2  N   UNL     1      -2.708   3.760  25.481  0.00  0.00    -0.292 NA
ATOM      5  C   UNL     1      -2.565   2.887  24.289  0.00  0.00    +0.149 C 
ATOM      8  C   UNL     1      -1.072   2.636  23.994  0.00  0.00    +0.186 C 
ATOM     10  C   UNL     1      -1.912   4.988  25.313  0.00  0.00    +0.113 C 
ATOM     11  C   UNL     1      -0.457   4.652  25.016  0.00  0.00    +0.175 C 
ATOM     16  C   UNL     1      -4.107   4.125  25.734  0.00  0.00    +0.105 C 
ENDBRANCH   7   5
BRANCH   9   6
ATOM      6  C   UNL     1      -3.084  -2.054  24.699  0.00  0.00    +0.004 C 
ATOM     12  C   UNL     1      -4.005  -2.978  23.830  0.00  0.00    +0.017 C 
ATOM     13  C   UNL     1      -1.621  -2.395  24.229  0.00  0.00    +0.017 C 
ATOM     14  C   UNL     1      -3.162  -2.590  26.169  0.00  0.00    +0.017 C 
ENDBRANCH   9   6
TORSDOF 2
ENDMDL
MODEL 4
REMARK VINA RESULT:      -4.9      2.495      5.869
REMARK  Name = 75536200
REMARK  6 active torsions:
REMARK  status: ('A' for Active; 'I' for Inactive)
REMARK    1  A    between atoms: N_2  and  C_16
REMARK    2  A    between atoms: C_5  and  C_7
REMARK    3  A    between atoms: C_6  and  C_9
REMARK    4  A    between atoms: C_6  and  C_12
REMARK    5  A    between atoms: C_6  and  C_13
REMARK    6  A    between atoms: C_6  and  C_14
REMARK                            x       y       z     vdW  Elec       q    Type
REMARK                         _______ _______ _______ _____ _____    ______ ____
ROOT
ATOM      3  N   UNL     1      -2.475   0.519  24.395  0.00  0.00    -0.344 N 
ATOM      4  N   UNL     1      -0.268   0.655  24.186  0.00  0.00    -0.239 NA
ATOM      7  C   UNL     1      -1.392   1.336  24.224  0.00  0.00    +0.127 A 
ATOM      9  C   UNL     1      -2.013  -0.764  24.471  0.00  0.00    +0.041 A 
ATOM     15  C   UNL     1      -0.649  -0.656  24.340  0.00  0.00    +0.134 A 
ATOM     17  H   UNL     1      -3.440   0.820  24.454  0.00  0.00    +0.167 HD
ENDROOT
BRANCH   7   5
ATOM      1  O   UNL     1      -0.502   4.950  24.768  0.00  0.00    -0.377 OA
ATOM      2  N   UNL     1      -2.865   3.347  24.567  0.00  0.00    -0.292 NA
ATOM      5  C   UNL     1      -1.549   2.844  24.099  0.00  0.00    +0.149 C 
ATOM      8  C   UNL     1      -0.412   3.530  24.882  0.00  0.00    +0.186 C 
ATOM     10  C   UNL     1      -2.898   4.819  24.512  0.00  0.00    +0.113 C 
ATOM     11  C   UNL     1      -1.739   5.415  25.300  0.00  0.00    +0.175 C 
ATOM     16  C   UNL     1      -3.976   2.812  23.771  0.00  0.00    +0.105 C 
ENDBRANCH   7   5
BRANCH   9   6
ATOM      6  C   UNL     1      -2.904  -1.920  24.657  0.00  0.00    +0.004 C 
ATOM     12  C   UNL     1      -3.351  -2.081  26.151  0.00  0.00    +0.017 C 
ATOM     13  C   UNL     1      -4.248  -1.896  23.840  0.00  0.00    +0.017 C 
ATOM     14  C   UNL     1      -2.213  -3.265  24.244  0.00  0.00    +0.017 C 
ENDBRANCH   9   6
TORSDOF 2
ENDMDL
MODEL 5
REMARK VINA RESULT:      -4.5      1.546      2.606
REMARK  Name = 75536200
REMARK  6 active torsions:
REMARK  status: ('A' for Active; 'I' for Inactive)
REMARK    1  A    between atoms: N_2  and  C_16
REMARK    2  A    between atoms: C_5  and  C_7
REMARK    3  A    between atoms: C_6  and  C_9
REMARK    4  A    between atoms: C_6  and  C_12
REMARK    5  A    between atoms: C_6  and  C_13
REMARK    6  A    between atoms: C_6  and  C_14
REMARK                            x       y       z     vdW  Elec       q    Type
REMARK                         _______ _______ _______ _____ _____    ______ ____
ROOT
ATOM      3  N   UNL     1      -2.411   1.791  25.289  0.00  0.00    -0.344 N 
ATOM      4  N   UNL     1      -0.259   1.244  25.335  0.00  0.00    -0.239 NA
ATOM      7  C   UNL     1      -1.489   0.782  25.333  0.00  0.00    +0.127 A 
ATOM      9  C   UNL     1      -1.724   2.972  25.263  0.00  0.00    +0.041 A 
ATOM     15  C   UNL     1      -0.398   2.610  25.292  0.00  0.00    +0.134 A 
ATOM     17  H   UNL     1      -3.416   1.675  25.279  0.00  0.00    +0.167 HD
ENDROOT
BRANCH   7   5
ATOM      1  O   UNL     1      -1.132  -2.927  24.817  0.00  0.00    -0.377 OA
ATOM      2  N   UNL     1      -3.193  -0.946  24.665  0.00  0.00    -0.292 NA
ATOM      5  C   UNL     1      -1.915  -0.678  25.372  0.00  0.00    +0.149 C 
ATOM      8  C   UNL     1      -0.788  -1.543  24.773  0.00  0.00    +0.186 C 
ATOM     10  C   UNL     1      -3.479  -2.391  24.658  0.00  0.00    +0.113 C 
ATOM     11  C   UNL     1      -2.315  -3.170  24.061  0.00  0.00    +0.175 C 
ATOM     16  C   UNL     1      -4.322  -0.234  25.276  0.00  0.00    +0.105 C 
ENDBRANCH   7   5
BRANCH   9   6
ATOM      6  C   UNL     1      -2.395   4.281  25.213  0.00  0.00    +0.004 C 
ATOM     12  C   UNL     1      -3.440   4.360  24.048  0.00  0.00    +0.017 C 
ATOM     13  C   UNL     1      -3.200   4.694  26.500  0.00  0.00    +0.017 C 
ATOM     14  C   UNL     1      -1.378   5.452  24.989  0.00  0.00    +0.017 C 
ENDBRANCH   9   6
TORSDOF 2
ENDMDL
MODEL 6
REMARK VINA RESULT:      -4.2      1.220      1.579
REMARK  Name = 75536200
REMARK  6 active torsions:
REMARK  status: ('A' for Active; 'I' for Inactive)
REMARK    1  A    between atoms: N_2  and  C_16
REMARK    2  A    between atoms: C_5  and  C_7
REMARK    3  A    between atoms: C_6  and  C_9
REMARK    4  A    between atoms: C_6  and  C_12
REMARK    5  A    between atoms: C_6  and  C_13
REMARK    6  A    between atoms: C_6  and  C_14
REMARK                            x       y       z     vdW  Elec       q    Type
REMARK                         _______ _______ _______ _____ _____    ______ ____
ROOT
ATOM      3  N   UNL     1      -3.697   1.366  24.756  0.00  0.00    -0.344 N 
ATOM      4  N   UNL     1      -2.735   1.589  22.766  0.00  0.00    -0.239 NA
ATOM      7  C   UNL     1      -3.090   0.738  23.704  0.00  0.00    +0.127 A 
ATOM      9  C   UNL     1      -3.730   2.702  24.472  0.00  0.00    +0.041 A 
ATOM     15  C   UNL     1      -3.131   2.815  23.240  0.00  0.00    +0.134 A 
ATOM     17  H   UNL     1      -4.053   0.915  25.588  0.00  0.00    +0.167 HD
ENDROOT
BRANCH   7   5
ATOM      1  O   UNL     1      -4.103  -2.879  23.911  0.00  0.00    -0.377 OA
ATOM      2  N   UNL     1      -1.882  -1.243  24.676  0.00  0.00    -0.292 NA
ATOM      5  C   UNL     1      -2.887  -0.770  23.691  0.00  0.00    +0.149 C 
ATOM      8  C   UNL     1      -4.242  -1.459  23.944  0.00  0.00    +0.186 C 
ATOM     10  C   UNL     1      -1.820  -2.715  24.675  0.00  0.00    +0.113 C 
ATOM     11  C   UNL     1      -3.198  -3.315  24.921  0.00  0.00    +0.175 C 
ATOM     16  C   UNL     1      -0.544  -0.706  24.404  0.00  0.00    +0.105 C 
ENDBRANCH   7   5
BRANCH   9   6
ATOM      6  C   UNL     1      -4.316   3.695  25.386  0.00  0.00    +0.004 C 
ATOM     12  C   UNL     1      -3.268   4.228  26.423  0.00  0.00    +0.017 C 
ATOM     13  C   UNL     1      -4.905   4.990  24.714  0.00  0.00    +0.017 C 
ATOM     14  C   UNL     1      -5.508   3.100  26.212  0.00  0.00    +0.017 C 
ENDBRANCH   9   6
TORSDOF 2
ENDMDL
MODEL 7
REMARK VINA RESULT:      -4.0      2.775      3.992
REMARK  Name = 75536200
REMARK  6 active torsions:
REMARK  status: ('A' for Active; 'I' for Inactive)
REMARK    1  A    between atoms: N_2  and  C_16
REMARK    2  A    between atoms: C_5  and  C_7
REMARK    3  A    between atoms: C_6  and  C_9
REMARK    4  A    between atoms: C_6  and  C_12
REMARK    5  A    between atoms: C_6  and  C_13
REMARK    6  A    between atoms: C_6  and  C_14
REMARK                            x       y       z     vdW  Elec       q    Type
REMARK                         _______ _______ _______ _____ _____    ______ ____
ROOT
ATOM      3  N   UNL     1      -2.982   1.863  25.169  0.00  0.00    -0.344 N 
ATOM      4  N   UNL     1      -1.583   3.420  25.911  0.00  0.00    -0.239 NA
ATOM      7  C   UNL     1      -1.680   2.225  25.372  0.00  0.00    +0.127 A 
ATOM      9  C   UNL     1      -3.766   2.892  25.606  0.00  0.00    +0.041 A 
ATOM     15  C   UNL     1      -2.881   3.841  26.060  0.00  0.00    +0.134 A 
ATOM     17  H   UNL     1      -3.298   0.990  24.766  0.00  0.00    +0.167 HD
ENDROOT
BRANCH   7   5
ATOM      1  O   UNL     1       1.436   1.165  23.548  0.00  0.00    -0.377 OA
ATOM      2  N   UNL     1      -0.974  -0.036  24.520  0.00  0.00    -0.292 NA
ATOM      5  C   UNL     1      -0.532   1.300  24.993  0.00  0.00    +0.149 C 
ATOM      8  C   UNL     1       0.327   1.987  23.912  0.00  0.00    +0.186 C 
ATOM     10  C   UNL     1       0.185  -0.830  24.076  0.00  0.00    +0.113 C 
ATOM     11  C   UNL     1       0.982  -0.078  23.019  0.00  0.00    +0.175 C 
ATOM     16  C   UNL     1      -1.696  -0.780  25.560  0.00  0.00    +0.105 C 
ENDBRANCH   7   5
BRANCH   9   6
ATOM      6  C   UNL     1      -5.236   2.855  25.542  0.00  0.00    +0.004 C 
ATOM     12  C   UNL     1      -5.749   2.026  24.314  0.00  0.00    +0.017 C 
ATOM     13  C   UNL     1      -5.966   2.220  26.784  0.00  0.00    +0.017 C 
ATOM     14  C   UNL     1      -5.854   4.289  25.411  0.00  0.00    +0.017 C 
ENDBRANCH   9   6
TORSDOF 2
ENDMDL
MODEL 8
REMARK VINA RESULT:      -3.7      2.374      5.727
REMARK  Name = 75536200
REMARK  6 active torsions:
REMARK  status: ('A' for Active; 'I' for Inactive)
REMARK    1  A    between atoms: N_2  and  C_16
REMARK    2  A    between atoms: C_5  and  C_7
REMARK    3  A    between atoms: C_6  and  C_9
REMARK    4  A    between atoms: C_6  and  C_12
REMARK    5  A    between atoms: C_6  and  C_13
REMARK    6  A    between atoms: C_6  and  C_14
REMARK                            x       y       z     vdW  Elec       q    Type
REMARK                         _______ _______ _______ _____ _____    ______ ____
ROOT
ATOM      3  N   UNL     1      -2.400   0.389  25.140  0.00  0.00    -0.344 N 
ATOM      4  N   UNL     1      -0.257   0.632  24.609  0.00  0.00    -0.239 NA
ATOM      7  C   UNL     1      -1.327   1.233  25.082  0.00  0.00    +0.127 A 
ATOM      9  C   UNL     1      -1.991  -0.828  24.674  0.00  0.00    +0.041 A 
ATOM     15  C   UNL     1      -0.665  -0.654  24.352  0.00  0.00    +0.134 A 
ATOM     17  H   UNL     1      -3.326   0.631  25.470  0.00  0.00    +0.167 HD
ENDROOT
BRANCH   7   5
ATOM      1  O   UNL     1      -3.014   4.301  26.459  0.00  0.00    -0.377 OA
ATOM      2  N   UNL     1      -1.044   3.661  24.483  0.00  0.00    -0.292 NA
ATOM      5  C   UNL     1      -1.433   2.683  25.531  0.00  0.00    +0.149 C 
ATOM      8  C   UNL     1      -2.876   2.957  26.000  0.00  0.00    +0.186 C 
ATOM     10  C   UNL     1      -1.274   5.037  24.958  0.00  0.00    +0.113 C 
ATOM     11  C   UNL     1      -2.717   5.218  25.410  0.00  0.00    +0.175 C 
ATOM     16  C   UNL     1       0.362   3.518  24.087  0.00  0.00    +0.105 C 
ENDBRANCH   7   5
BRANCH   9   6
ATOM      6  C   UNL     1      -2.888  -1.991  24.591  0.00  0.00    +0.004 C 
ATOM     12  C   UNL     1      -3.341  -2.484  26.008  0.00  0.00    +0.017 C 
ATOM     13  C   UNL     1      -4.230  -1.774  23.798  0.00  0.00    +0.017 C 
ATOM     14  C   UNL     1      -2.203  -3.211  23.884  0.00  0.00    +0.017 C 
ENDBRANCH   9   6
TORSDOF 2
ENDMDL
MODEL 9
REMARK VINA RESULT:      -3.7      2.168      2.946
REMARK  Name = 75536200
REMARK  6 active torsions:
REMARK  status: ('A' for Active; 'I' for Inactive)
REMARK    1  A    between atoms: N_2  and  C_16
REMARK    2  A    between atoms: C_5  and  C_7
REMARK    3  A    between atoms: C_6  and  C_9
REMARK    4  A    between atoms: C_6  and  C_12
REMARK    5  A    between atoms: C_6  and  C_13
REMARK    6  A    between atoms: C_6  and  C_14
REMARK                            x       y       z     vdW  Elec       q    Type
REMARK                         _______ _______ _______ _____ _____    ______ ____
ROOT
ATOM      3  N   UNL     1      -3.306   1.553  25.169  0.00  0.00    -0.344 N 
ATOM      4  N   UNL     1      -5.106   0.272  25.393  0.00  0.00    -0.239 NA
ATOM      7  C   UNL     1      -3.793   0.286  25.327  0.00  0.00    +0.127 A 
ATOM      9  C   UNL     1      -4.376   2.402  25.132  0.00  0.00    +0.041 A 
ATOM     15  C   UNL     1      -5.476   1.589  25.271  0.00  0.00    +0.134 A 
ATOM     17  H   UNL     1      -2.330   1.807  25.095  0.00  0.00    +0.167 HD
ENDROOT
BRANCH   7   5
ATOM      1  O   UNL     1      -0.537  -1.525  25.850  0.00  0.00    -0.377 OA
ATOM      2  N   UNL     1      -2.849  -1.743  24.176  0.00  0.00    -0.292 NA
ATOM      5  C   UNL     1      -2.864  -0.917  25.409  0.00  0.00    +0.149 C 
ATOM      8  C   UNL     1      -1.439  -0.425  25.734  0.00  0.00    +0.186 C 
ATOM     10  C   UNL     1      -1.852  -2.821  24.295  0.00  0.00    +0.113 C 
ATOM     11  C   UNL     1      -0.478  -2.252  24.626  0.00  0.00    +0.175 C 
ATOM     16  C   UNL     1      -4.162  -2.333  23.890  0.00  0.00    +0.105 C 
ENDBRANCH   7   5
BRANCH   9   6
ATOM      6  C   UNL     1      -4.232   3.857  24.971  0.00  0.00    +0.004 C 
ATOM     12  C   UNL     1      -3.973   4.260  23.479  0.00  0.00    +0.017 C 
ATOM     13  C   UNL     1      -5.468   4.727  25.409  0.00  0.00    +0.017 C 
ATOM     14  C   UNL     1      -3.033   4.423  25.807  0.00  0.00    +0.017 C 
ENDBRANCH   9   6
TORSDOF 2
ENDMDL
MODEL 10
REMARK VINA RESULT:      -3.4      2.559      4.471
REMARK  Name = 75536200
REMARK  6 active torsions:
REMARK  status: ('A' for Active; 'I' for Inactive)
REMARK    1  A    between atoms: N_2  and  C_16
REMARK    2  A    between atoms: C_5  and  C_7
REMARK    3  A    between atoms: C_6  and  C_9
REMARK    4  A    between atoms: C_6  and  C_12
REMARK    5  A    between atoms: C_6  and  C_13
REMARK    6  A    between atoms: C_6  and  C_14
REMARK                            x       y       z     vdW  Elec       q    Type
REMARK                         _______ _______ _______ _____ _____    ______ ____
ROOT
ATOM      3  N   UNL     1       0.301  -0.392  23.708  0.00  0.00    -0.344 N 
ATOM      4  N   UNL     1      -0.345   1.487  24.701  0.00  0.00    -0.239 NA
ATOM      7  C   UNL     1      -0.682   0.250  24.409  0.00  0.00    +0.127 A 
ATOM      9  C   UNL     1       1.329   0.492  23.541  0.00  0.00    +0.041 A 
ATOM     15  C   UNL     1       0.908   1.644  24.162  0.00  0.00    +0.134 A 
ATOM     17  H   UNL     1       0.263  -1.347  23.377  0.00  0.00    +0.167 HD
ENDROOT
BRANCH   7   5
ATOM      1  O   UNL     1      -2.991  -2.670  24.949  0.00  0.00    -0.377 OA
ATOM      2  N   UNL     1      -3.152   0.020  23.984  0.00  0.00    -0.292 NA
ATOM      5  C   UNL     1      -1.983  -0.450  24.771  0.00  0.00    +0.149 C 
ATOM      8  C   UNL     1      -1.800  -1.970  24.591  0.00  0.00    +0.186 C 
ATOM     10  C   UNL     1      -4.346  -0.776  24.319  0.00  0.00    +0.113 C 
ATOM     11  C   UNL     1      -4.078  -2.262  24.123  0.00  0.00    +0.175 C 
ATOM     16  C   UNL     1      -3.440   1.440  24.216  0.00  0.00    +0.105 C 
ENDBRANCH   7   5
BRANCH   9   6
ATOM      6  C   UNL     1       2.568   0.145  22.827  0.00  0.00    +0.004 C 
ATOM     12  C   UNL     1       2.288  -0.301  21.350  0.00  0.00    +0.017 C 
ATOM     13  C   UNL     1       3.638   1.292  22.701  0.00  0.00    +0.017 C 
ATOM     14  C   UNL     1       3.333  -1.036  23.519  0.00  0.00    +0.017 C 
ENDBRANCH   9   6
TORSDOF 2
ENDMDL
