MODEL 1
REMARK VINA RESULT:      -5.3      0.000      0.000
REMARK  Name = 75367732
REMARK  6 active torsions:
REMARK  status: ('A' for Active; 'I' for Inactive)
REMARK    1  A    between atoms: O_5  and  C_9
REMARK    2  A    between atoms: O_5  and  C_17
REMARK    3  A    between atoms: O_6  and  C_20
REMARK    4  A    between atoms: O_6  and  C_21
REMARK    5  A    between atoms: N_7  and  C_11
REMARK    6  A    between atoms: C_11  and  C_14
REMARK                            x       y       z     vdW  Elec       q    Type
REMARK                         _______ _______ _______ _____ _____    ______ ____
ROOT
ATOM     14  C   UNL     1       0.023   0.561  23.611  0.00  0.00    -0.033 A 
ATOM     15  C   UNL     1       0.917   1.497  24.131  0.00  0.00    +0.008 A 
ATOM     16  C   UNL     1       0.466  -0.389  22.690  0.00  0.00    +0.008 A 
ATOM     18  C   UNL     1       2.252   1.485  23.730  0.00  0.00    +0.046 A 
ATOM     19  C   UNL     1       1.802  -0.402  22.289  0.00  0.00    +0.046 A 
ATOM     20  C   UNL     1       2.695   0.535  22.809  0.00  0.00    +0.130 A 
ENDROOT
BRANCH  20   6
ATOM      6  O   UNL     1       3.999   0.523  22.418  0.00  0.00    -0.406 OA
BRANCH   6  21
ATOM      1  F   UNL     1       4.539  -1.185  23.839  0.00  0.00    -0.133 F 
ATOM      2  F   UNL     1       6.105  -0.261  22.626  0.00  0.00    -0.133 F 
ATOM      3  F   UNL     1       5.254   0.855  24.301  0.00  0.00    -0.133 F 
ATOM     21  C   UNL     1       4.965  -0.018  23.312  0.00  0.00    +0.575 C 
ENDBRANCH   6  21
ENDBRANCH  20   6
BRANCH  14  11
ATOM     11  C   UNL     1      -1.419   0.572  24.044  0.00  0.00    +0.119 C 
BRANCH  11   7
ATOM      4  O   UNL     1      -2.046   4.854  25.398  0.00  0.00    -0.376 OA
ATOM      7  N   UNL     1      -1.778   1.825  24.710  0.00  0.00    -0.293 NA
ATOM      8  C   UNL     1      -3.228   1.881  24.929  0.00  0.00    +0.118 C 
ATOM      9  C   UNL     1      -3.852   3.249  25.250  0.00  0.00    +0.157 C 
ATOM     10  C   UNL     1      -1.228   2.984  24.006  0.00  0.00    +0.113 C 
ATOM     12  C   UNL     1      -3.004   4.128  26.161  0.00  0.00    +0.192 C 
ATOM     13  C   UNL     1      -0.911   4.098  25.005  0.00  0.00    +0.175 C 
BRANCH   9   5
ATOM      5  O   UNL     1      -5.105   3.024  25.897  0.00  0.00    -0.376 OA
ATOM     17  C   UNL     1      -5.817   1.960  25.285  0.00  0.00    +0.194 C 
ENDBRANCH   9   5
ENDBRANCH  11   7
ENDBRANCH  14  11
TORSDOF 5
ENDMDL
MODEL 2
REMARK VINA RESULT:      -5.1      1.578      3.084
REMARK  Name = 75367732
REMARK  6 active torsions:
REMARK  status: ('A' for Active; 'I' for Inactive)
REMARK    1  A    between atoms: O_5  and  C_9
REMARK    2  A    between atoms: O_5  and  C_17
REMARK    3  A    between atoms: O_6  and  C_20
REMARK    4  A    between atoms: O_6  and  C_21
REMARK    5  A    between atoms: N_7  and  C_11
REMARK    6  A    between atoms: C_11  and  C_14
REMARK                            x       y       z     vdW  Elec       q    Type
REMARK                         _______ _______ _______ _____ _____    ______ ____
ROOT
ATOM     14  C   UNL     1      -1.907   0.307  24.072  0.00  0.00    -0.033 A 
ATOM     15  C   UNL     1      -0.983  -0.677  24.422  0.00  0.00    +0.008 A 
ATOM     16  C   UNL     1      -1.468   1.510  23.519  0.00  0.00    +0.008 A 
ATOM     18  C   UNL     1       0.379  -0.459  24.222  0.00  0.00    +0.046 A 
ATOM     19  C   UNL     1      -0.105   1.729  23.318  0.00  0.00    +0.046 A 
ATOM     20  C   UNL     1       0.818   0.745  23.669  0.00  0.00    +0.130 A 
ENDROOT
BRANCH  20   6
ATOM      6  O   UNL     1       2.149   0.958  23.473  0.00  0.00    -0.406 OA
BRANCH   6  21
ATOM      1  F   UNL     1       1.984  -0.172  21.492  0.00  0.00    -0.133 F 
ATOM      2  F   UNL     1       3.827   0.902  21.966  0.00  0.00    -0.133 F 
ATOM      3  F   UNL     1       3.356  -0.938  23.047  0.00  0.00    -0.133 F 
ATOM     21  C   UNL     1       2.820   0.172  22.495  0.00  0.00    +0.575 C 
ENDBRANCH   6  21
ENDBRANCH  20   6
BRANCH  14  11
ATOM     11  C   UNL     1      -3.378   0.072  24.287  0.00  0.00    +0.119 C 
BRANCH  11   7
ATOM      4  O   UNL     1      -6.194   3.305  25.763  0.00  0.00    -0.376 OA
ATOM      7  N   UNL     1      -4.083   1.306  24.637  0.00  0.00    -0.293 NA
ATOM      8  C   UNL     1      -3.178   2.220  25.343  0.00  0.00    +0.118 C 
ATOM      9  C   UNL     1      -3.802   3.382  26.130  0.00  0.00    +0.157 C 
ATOM     10  C   UNL     1      -5.332   1.027  25.347  0.00  0.00    +0.113 C 
ATOM     12  C   UNL     1      -5.006   4.025  25.452  0.00  0.00    +0.192 C 
ATOM     13  C   UNL     1      -6.367   2.106  25.023  0.00  0.00    +0.175 C 
BRANCH   9   5
ATOM      5  O   UNL     1      -2.804   4.389  26.303  0.00  0.00    -0.376 OA
ATOM     17  C   UNL     1      -2.013   4.536  25.135  0.00  0.00    +0.194 C 
ENDBRANCH   9   5
ENDBRANCH  11   7
ENDBRANCH  14  11
TORSDOF 5
ENDMDL
MODEL 3
REMARK VINA RESULT:      -5.0      0.903      2.499
REMARK  Name = 75367732
REMARK  6 active torsions:
REMARK  status: ('A' for Active; 'I' for Inactive)
REMARK    1  A    between atoms: O_5  and  C_9
REMARK    2  A    between atoms: O_5  and  C_17
REMARK    3  A    between atoms: O_6  and  C_20
REMARK    4  A    between atoms: O_6  and  C_21
REMARK    5  A    between atoms: N_7  and  C_11
REMARK    6  A    between atoms: C_11  and  C_14
REMARK                            x       y       z     vdW  Elec       q    Type
REMARK                         _______ _______ _______ _____ _____    ______ ____
ROOT
ATOM     14  C   UNL     1      -0.450   0.309  24.288  0.00  0.00    -0.033 A 
ATOM     15  C   UNL     1       0.032  -0.654  23.402  0.00  0.00    +0.008 A 
ATOM     16  C   UNL     1       0.308   1.450  24.557  0.00  0.00    +0.008 A 
ATOM     18  C   UNL     1       1.271  -0.480  22.787  0.00  0.00    +0.046 A 
ATOM     19  C   UNL     1       1.547   1.625  23.942  0.00  0.00    +0.046 A 
ATOM     20  C   UNL     1       2.028   0.661  23.056  0.00  0.00    +0.130 A 
ENDROOT
BRANCH  20   6
ATOM      6  O   UNL     1       3.238   0.832  22.455  0.00  0.00    -0.406 OA
BRANCH   6  21
ATOM      1  F   UNL     1       4.099  -1.040  23.445  0.00  0.00    -0.133 F 
ATOM      2  F   UNL     1       5.366   0.155  22.126  0.00  0.00    -0.133 F 
ATOM      3  F   UNL     1       4.830   0.942  24.094  0.00  0.00    -0.133 F 
ATOM     21  C   UNL     1       4.377   0.219  23.047  0.00  0.00    +0.575 C 
ENDBRANCH   6  21
ENDBRANCH  20   6
BRANCH  14  11
ATOM     11  C   UNL     1      -1.787   0.121  24.953  0.00  0.00    +0.119 C 
BRANCH  11   7
ATOM      4  O   UNL     1      -5.139   3.171  24.783  0.00  0.00    -0.376 OA
ATOM      7  N   UNL     1      -2.657   1.284  24.767  0.00  0.00    -0.293 NA
ATOM      8  C   UNL     1      -2.031   2.478  25.345  0.00  0.00    +0.118 C 
ATOM      9  C   UNL     1      -2.924   3.702  25.604  0.00  0.00    +0.157 C 
ATOM     10  C   UNL     1      -4.013   1.021  25.248  0.00  0.00    +0.113 C 
ATOM     12  C   UNL     1      -3.975   3.951  24.530  0.00  0.00    +0.192 C 
ATOM     13  C   UNL     1      -5.024   1.805  24.411  0.00  0.00    +0.175 C 
BRANCH   9   5
ATOM      5  O   UNL     1      -2.087   4.856  25.678  0.00  0.00    -0.376 OA
ATOM     17  C   UNL     1      -0.893   4.675  24.933  0.00  0.00    +0.194 C 
ENDBRANCH   9   5
ENDBRANCH  11   7
ENDBRANCH  14  11
TORSDOF 5
ENDMDL
MODEL 4
REMARK VINA RESULT:      -4.8      4.683      7.422
REMARK  Name = 75367732
REMARK  6 active torsions:
REMARK  status: ('A' for Active; 'I' for Inactive)
REMARK    1  A    between atoms: O_5  and  C_9
REMARK    2  A    between atoms: O_5  and  C_17
REMARK    3  A    between atoms: O_6  and  C_20
REMARK    4  A    between atoms: O_6  and  C_21
REMARK    5  A    between atoms: N_7  and  C_11
REMARK    6  A    between atoms: C_11  and  C_14
REMARK                            x       y       z     vdW  Elec       q    Type
REMARK                         _______ _______ _______ _____ _____    ______ ____
ROOT
ATOM     14  C   UNL     1      -1.577   3.211  24.581  0.00  0.00    -0.033 A 
ATOM     15  C   UNL     1      -2.523   2.743  23.669  0.00  0.00    +0.008 A 
ATOM     16  C   UNL     1      -1.986   3.679  25.831  0.00  0.00    +0.008 A 
ATOM     18  C   UNL     1      -3.876   2.746  24.004  0.00  0.00    +0.046 A 
ATOM     19  C   UNL     1      -3.340   3.682  26.166  0.00  0.00    +0.046 A 
ATOM     20  C   UNL     1      -4.285   3.215  25.253  0.00  0.00    +0.130 A 
ENDROOT
BRANCH  20   6
ATOM      6  O   UNL     1      -5.606   3.217  25.580  0.00  0.00    -0.406 OA
BRANCH   6  21
ATOM      1  F   UNL     1      -7.120   1.722  24.741  0.00  0.00    -0.133 F 
ATOM      2  F   UNL     1      -5.328   0.983  25.751  0.00  0.00    -0.133 F 
ATOM      3  F   UNL     1      -6.912   1.914  26.933  0.00  0.00    -0.133 F 
ATOM     21  C   UNL     1      -6.259   1.964  25.752  0.00  0.00    +0.575 C 
ENDBRANCH   6  21
ENDBRANCH  20   6
BRANCH  14  11
ATOM     11  C   UNL     1      -0.116   3.208  24.221  0.00  0.00    +0.119 C 
BRANCH  11   7
ATOM      4  O   UNL     1       2.090  -0.552  22.971  0.00  0.00    -0.376 OA
ATOM      7  N   UNL     1       0.320   1.903  23.720  0.00  0.00    -0.293 NA
ATOM      8  C   UNL     1      -0.511   0.840  24.295  0.00  0.00    +0.118 C 
ATOM      9  C   UNL     1       0.013  -0.603  24.213  0.00  0.00    +0.157 C 
ATOM     10  C   UNL     1       1.759   1.712  23.906  0.00  0.00    +0.113 C 
ATOM     12  C   UNL     1       0.722  -0.940  22.908  0.00  0.00    +0.192 C 
ATOM     13  C   UNL     1       2.317   0.837  22.782  0.00  0.00    +0.175 C 
BRANCH   9   5
ATOM      5  O   UNL     1      -1.099  -1.488  24.352  0.00  0.00    -0.376 OA
ATOM     17  C   UNL     1      -2.221  -0.822  24.910  0.00  0.00    +0.194 C 
ENDBRANCH   9   5
ENDBRANCH  11   7
ENDBRANCH  14  11
TORSDOF 5
ENDMDL
MODEL 5
REMARK VINA RESULT:      -4.8     16.145     17.409
REMARK  Name = 75367732
REMARK  6 active torsions:
REMARK  status: ('A' for Active; 'I' for Inactive)
REMARK    1  A    between atoms: O_5  and  C_9
REMARK    2  A    between atoms: O_5  and  C_17
REMARK    3  A    between atoms: O_6  and  C_20
REMARK    4  A    between atoms: O_6  and  C_21
REMARK    5  A    between atoms: N_7  and  C_11
REMARK    6  A    between atoms: C_11  and  C_14
REMARK                            x       y       z     vdW  Elec       q    Type
REMARK                         _______ _______ _______ _____ _____    ______ ____
ROOT
ATOM     14  C   UNL     1      -7.651 -10.659  12.735  0.00  0.00    -0.033 A 
ATOM     15  C   UNL     1      -7.600 -10.743  11.344  0.00  0.00    +0.008 A 
ATOM     16  C   UNL     1      -6.479 -10.466  13.466  0.00  0.00    +0.008 A 
ATOM     18  C   UNL     1      -6.377 -10.637  10.683  0.00  0.00    +0.046 A 
ATOM     19  C   UNL     1      -5.255 -10.359  12.805  0.00  0.00    +0.046 A 
ATOM     20  C   UNL     1      -5.204 -10.444  11.414  0.00  0.00    +0.130 A 
ENDROOT
BRANCH  20   6
ATOM      6  O   UNL     1      -4.009 -10.339  10.769  0.00  0.00    -0.406 OA
BRANCH   6  21
ATOM      1  F   UNL     1      -4.034  -9.190   8.793  0.00  0.00    -0.133 F 
ATOM      2  F   UNL     1      -4.440  -8.127  10.658  0.00  0.00    -0.133 F 
ATOM      3  F   UNL     1      -2.405  -8.799  10.234  0.00  0.00    -0.133 F 
ATOM     21  C   UNL     1      -3.710  -9.119  10.101  0.00  0.00    +0.575 C 
ENDBRANCH   6  21
ENDBRANCH  20   6
BRANCH  14  11
ATOM     11  C   UNL     1      -8.972 -10.774  13.449  0.00  0.00    +0.119 C 
BRANCH  11   7
ATOM      4  O   UNL     1      -9.998  -7.833  16.746  0.00  0.00    -0.376 OA
ATOM      7  N   UNL     1      -9.031  -9.908  14.628  0.00  0.00    -0.293 NA
ATOM      8  C   UNL     1      -8.792 -10.694  15.843  0.00  0.00    +0.118 C 
ATOM      9  C   UNL     1      -9.191 -10.072  17.191  0.00  0.00    +0.157 C 
ATOM     10  C   UNL     1     -10.264  -9.120  14.652  0.00  0.00    +0.113 C 
ATOM     12  C   UNL     1      -8.917  -8.577  17.297  0.00  0.00    +0.192 C 
ATOM     13  C   UNL     1     -10.007  -7.771  15.327  0.00  0.00    +0.175 C 
BRANCH   9   5
ATOM      5  O   UNL     1      -8.452 -10.730  18.221  0.00  0.00    -0.376 OA
ATOM     17  C   UNL     1      -7.068 -10.781  17.909  0.00  0.00    +0.194 C 
ENDBRANCH   9   5
ENDBRANCH  11   7
ENDBRANCH  14  11
TORSDOF 5
ENDMDL
MODEL 6
REMARK VINA RESULT:      -4.8      4.091      6.664
REMARK  Name = 75367732
REMARK  6 active torsions:
REMARK  status: ('A' for Active; 'I' for Inactive)
REMARK    1  A    between atoms: O_5  and  C_9
REMARK    2  A    between atoms: O_5  and  C_17
REMARK    3  A    between atoms: O_6  and  C_20
REMARK    4  A    between atoms: O_6  and  C_21
REMARK    5  A    between atoms: N_7  and  C_11
REMARK    6  A    between atoms: C_11  and  C_14
REMARK                            x       y       z     vdW  Elec       q    Type
REMARK                         _______ _______ _______ _____ _____    ______ ____
ROOT
ATOM     14  C   UNL     1      -4.433   1.500  24.719  0.00  0.00    -0.033 A 
ATOM     15  C   UNL     1      -4.685   2.481  25.678  0.00  0.00    +0.008 A 
ATOM     16  C   UNL     1      -3.582   1.773  23.648  0.00  0.00    +0.008 A 
ATOM     18  C   UNL     1      -4.089   3.736  25.565  0.00  0.00    +0.046 A 
ATOM     19  C   UNL     1      -2.985   3.029  23.535  0.00  0.00    +0.046 A 
ATOM     20  C   UNL     1      -3.238   4.010  24.494  0.00  0.00    +0.130 A 
ENDROOT
BRANCH  20   6
ATOM      6  O   UNL     1      -2.654   5.235  24.384  0.00  0.00    -0.406 OA
BRANCH   6  21
ATOM      1  F   UNL     1      -0.420   5.259  23.900  0.00  0.00    -0.133 F 
ATOM      2  F   UNL     1      -1.210   6.646  25.392  0.00  0.00    -0.133 F 
ATOM      3  F   UNL     1      -1.076   4.520  25.877  0.00  0.00    -0.133 F 
ATOM     21  C   UNL     1      -1.332   5.399  24.885  0.00  0.00    +0.575 C 
ENDBRANCH   6  21
ENDBRANCH  20   6
BRANCH  14  11
ATOM     11  C   UNL     1      -5.077   0.144  24.840  0.00  0.00    +0.119 C 
BRANCH  11   7
ATOM      4  O   UNL     1      -2.473  -3.484  24.054  0.00  0.00    -0.376 OA
ATOM      7  N   UNL     1      -4.086  -0.933  24.836  0.00  0.00    -0.293 NA
ATOM      8  C   UNL     1      -2.732  -0.371  24.889  0.00  0.00    +0.118 C 
ATOM      9  C   UNL     1      -1.559  -1.288  24.505  0.00  0.00    +0.157 C 
ATOM     10  C   UNL     1      -4.310  -1.864  23.730  0.00  0.00    +0.113 C 
ATOM     12  C   UNL     1      -1.705  -2.727  24.983  0.00  0.00    +0.192 C 
ATOM     13  C   UNL     1      -3.875  -3.272  24.138  0.00  0.00    +0.175 C 
BRANCH   9   5
ATOM      5  O   UNL     1      -0.368  -0.751  25.081  0.00  0.00    -0.376 OA
ATOM     17  C   UNL     1      -0.381   0.668  25.062  0.00  0.00    +0.194 C 
ENDBRANCH   9   5
ENDBRANCH  11   7
ENDBRANCH  14  11
TORSDOF 5
ENDMDL
MODEL 7
REMARK VINA RESULT:      -4.8      4.362      5.020
REMARK  Name = 75367732
REMARK  6 active torsions:
REMARK  status: ('A' for Active; 'I' for Inactive)
REMARK    1  A    between atoms: O_5  and  C_9
REMARK    2  A    between atoms: O_5  and  C_17
REMARK    3  A    between atoms: O_6  and  C_20
REMARK    4  A    between atoms: O_6  and  C_21
REMARK    5  A    between atoms: N_7  and  C_11
REMARK    6  A    between atoms: C_11  and  C_14
REMARK                            x       y       z     vdW  Elec       q    Type
REMARK                         _______ _______ _______ _____ _____    ______ ____
ROOT
ATOM     14  C   UNL     1      -0.299   0.824  25.005  0.00  0.00    -0.033 A 
ATOM     15  C   UNL     1      -0.124   0.219  23.761  0.00  0.00    +0.008 A 
ATOM     16  C   UNL     1      -1.070   0.196  25.984  0.00  0.00    +0.008 A 
ATOM     18  C   UNL     1      -0.720  -1.013  23.494  0.00  0.00    +0.046 A 
ATOM     19  C   UNL     1      -1.667  -1.037  25.717  0.00  0.00    +0.046 A 
ATOM     20  C   UNL     1      -1.491  -1.641  24.472  0.00  0.00    +0.130 A 
ENDROOT
BRANCH  20   6
ATOM      6  O   UNL     1      -2.073  -2.844  24.211  0.00  0.00    -0.406 OA
BRANCH   6  21
ATOM      1  F   UNL     1      -3.928  -4.142  23.894  0.00  0.00    -0.133 F 
ATOM      2  F   UNL     1      -3.788  -2.889  25.678  0.00  0.00    -0.133 F 
ATOM      3  F   UNL     1      -4.122  -1.946  23.735  0.00  0.00    -0.133 F 
ATOM     21  C   UNL     1      -3.483  -2.957  24.362  0.00  0.00    +0.575 C 
ENDBRANCH   6  21
ENDBRANCH  20   6
BRANCH  14  11
ATOM     11  C   UNL     1       0.344   2.154  25.295  0.00  0.00    +0.119 C 
BRANCH  11   7
ATOM      4  O   UNL     1      -2.252   5.848  24.873  0.00  0.00    -0.376 OA
ATOM      7  N   UNL     1      -0.645   3.228  25.398  0.00  0.00    -0.293 NA
ATOM      8  C   UNL     1      -2.000   2.666  25.393  0.00  0.00    +0.118 C 
ATOM      9  C   UNL     1      -3.170   3.620  25.102  0.00  0.00    +0.157 C 
ATOM     10  C   UNL     1      -0.417   4.264  24.390  0.00  0.00    +0.113 C 
ATOM     12  C   UNL     1      -3.022   5.003  25.722  0.00  0.00    +0.192 C 
ATOM     13  C   UNL     1      -0.851   5.625  24.936  0.00  0.00    +0.175 C 
BRANCH   9   5
ATOM      5  O   UNL     1      -4.363   3.030  25.620  0.00  0.00    -0.376 OA
ATOM     17  C   UNL     1      -4.578   1.738  25.076  0.00  0.00    +0.194 C 
ENDBRANCH   9   5
ENDBRANCH  11   7
ENDBRANCH  14  11
TORSDOF 5
ENDMDL
MODEL 8
REMARK VINA RESULT:      -4.7      4.560      6.077
REMARK  Name = 75367732
REMARK  6 active torsions:
REMARK  status: ('A' for Active; 'I' for Inactive)
REMARK    1  A    between atoms: O_5  and  C_9
REMARK    2  A    between atoms: O_5  and  C_17
REMARK    3  A    between atoms: O_6  and  C_20
REMARK    4  A    between atoms: O_6  and  C_21
REMARK    5  A    between atoms: N_7  and  C_11
REMARK    6  A    between atoms: C_11  and  C_14
REMARK                            x       y       z     vdW  Elec       q    Type
REMARK                         _______ _______ _______ _____ _____    ______ ____
ROOT
ATOM     14  C   UNL     1      -0.385   0.854  24.716  0.00  0.00    -0.033 A 
ATOM     15  C   UNL     1      -0.490   1.666  23.587  0.00  0.00    +0.008 A 
ATOM     16  C   UNL     1      -0.377   1.426  25.988  0.00  0.00    +0.008 A 
ATOM     18  C   UNL     1      -0.585   3.050  23.729  0.00  0.00    +0.046 A 
ATOM     19  C   UNL     1      -0.473   2.811  26.131  0.00  0.00    +0.046 A 
ATOM     20  C   UNL     1      -0.577   3.622  25.001  0.00  0.00    +0.130 A 
ENDROOT
BRANCH  20   6
ATOM      6  O   UNL     1      -0.671   4.973  25.140  0.00  0.00    -0.406 OA
BRANCH   6  21
ATOM      1  F   UNL     1      -1.893   6.895  25.342  0.00  0.00    -0.133 F 
ATOM      2  F   UNL     1      -2.673   5.249  24.135  0.00  0.00    -0.133 F 
ATOM      3  F   UNL     1      -2.635   5.052  26.311  0.00  0.00    -0.133 F 
ATOM     21  C   UNL     1      -1.968   5.551  25.248  0.00  0.00    +0.575 C 
ENDBRANCH   6  21
ENDBRANCH  20   6
BRANCH  14  11
ATOM     11  C   UNL     1      -0.282  -0.640  24.563  0.00  0.00    +0.119 C 
BRANCH  11   7
ATOM      4  O   UNL     1      -3.972  -3.250  24.194  0.00  0.00    -0.376 OA
ATOM      7  N   UNL     1      -1.582  -1.250  24.277  0.00  0.00    -0.293 NA
ATOM      8  C   UNL     1      -2.662  -0.328  24.642  0.00  0.00    +0.118 C 
ATOM      9  C   UNL     1      -4.079  -0.906  24.789  0.00  0.00    +0.157 C 
ATOM     10  C   UNL     1      -1.694  -2.580  24.877  0.00  0.00    +0.113 C 
ATOM     12  C   UNL     1      -4.431  -1.974  23.761  0.00  0.00    +0.192 C 
ATOM     13  C   UNL     1      -2.582  -3.470  24.007  0.00  0.00    +0.175 C 
BRANCH   9   5
ATOM      5  O   UNL     1      -5.013   0.166  24.648  0.00  0.00    -0.376 OA
ATOM     17  C   UNL     1      -4.372   1.426  24.767  0.00  0.00    +0.194 C 
ENDBRANCH   9   5
ENDBRANCH  11   7
ENDBRANCH  14  11
TORSDOF 5
ENDMDL
MODEL 9
REMARK VINA RESULT:      -4.5     14.990     16.145
REMARK  Name = 75367732
REMARK  6 active torsions:
REMARK  status: ('A' for Active; 'I' for Inactive)
REMARK    1  A    between atoms: O_5  and  C_9
REMARK    2  A    between atoms: O_5  and  C_17
REMARK    3  A    between atoms: O_6  and  C_20
REMARK    4  A    between atoms: O_6  and  C_21
REMARK    5  A    between atoms: N_7  and  C_11
REMARK    6  A    between atoms: C_11  and  C_14
REMARK                            x       y       z     vdW  Elec       q    Type
REMARK                         _______ _______ _______ _____ _____    ______ ____
ROOT
ATOM     14  C   UNL     1      -5.201 -10.342  13.417  0.00  0.00    -0.033 A 
ATOM     15  C   UNL     1      -5.041  -9.989  12.077  0.00  0.00    +0.008 A 
ATOM     16  C   UNL     1      -4.095 -10.736  14.171  0.00  0.00    +0.008 A 
ATOM     18  C   UNL     1      -3.778 -10.032  11.490  0.00  0.00    +0.046 A 
ATOM     19  C   UNL     1      -2.830 -10.778  13.584  0.00  0.00    +0.046 A 
ATOM     20  C   UNL     1      -2.672 -10.426  12.244  0.00  0.00    +0.130 A 
ENDROOT
BRANCH  20   6
ATOM      6  O   UNL     1      -1.437 -10.467  11.671  0.00  0.00    -0.406 OA
BRANCH   6  21
ATOM      1  F   UNL     1      -1.608  -8.541  10.450  0.00  0.00    -0.133 F 
ATOM      2  F   UNL     1      -0.651  -8.486  12.414  0.00  0.00    -0.133 F 
ATOM      3  F   UNL     1       0.388  -9.444  10.747  0.00  0.00    -0.133 F 
ATOM     21  C   UNL     1      -0.825  -9.236  11.302  0.00  0.00    +0.575 C 
ENDBRANCH   6  21
ENDBRANCH  20   6
BRANCH  14  11
ATOM     11  C   UNL     1      -6.566 -10.296  14.052  0.00  0.00    +0.119 C 
BRANCH  11   7
ATOM      4  O   UNL     1      -5.652 -10.123  18.490  0.00  0.00    -0.376 OA
ATOM      7  N   UNL     1      -6.496 -10.447  15.506  0.00  0.00    -0.293 NA
ATOM      8  C   UNL     1      -7.823 -10.243  16.097  0.00  0.00    +0.118 C 
ATOM      9  C   UNL     1      -7.901  -9.973  17.608  0.00  0.00    +0.157 C 
ATOM     10  C   UNL     1      -5.444  -9.609  16.082  0.00  0.00    +0.113 C 
ATOM     12  C   UNL     1      -6.915 -10.779  18.442  0.00  0.00    +0.192 C 
ATOM     13  C   UNL     1      -4.860 -10.286  17.323  0.00  0.00    +0.175 C 
BRANCH   9   5
ATOM      5  O   UNL     1      -9.220 -10.297  18.050  0.00  0.00    -0.376 OA
ATOM     17  C   UNL     1     -10.133 -10.335  16.964  0.00  0.00    +0.194 C 
ENDBRANCH   9   5
ENDBRANCH  11   7
ENDBRANCH  14  11
TORSDOF 5
ENDMDL
MODEL 10
REMARK VINA RESULT:      -4.5     15.595     16.571
REMARK  Name = 75367732
REMARK  6 active torsions:
REMARK  status: ('A' for Active; 'I' for Inactive)
REMARK    1  A    between atoms: O_5  and  C_9
REMARK    2  A    between atoms: O_5  and  C_17
REMARK    3  A    between atoms: O_6  and  C_20
REMARK    4  A    between atoms: O_6  and  C_21
REMARK    5  A    between atoms: N_7  and  C_11
REMARK    6  A    between atoms: C_11  and  C_14
REMARK                            x       y       z     vdW  Elec       q    Type
REMARK                         _______ _______ _______ _____ _____    ______ ____
ROOT
ATOM     14  C   UNL     1      -4.686 -10.487  15.208  0.00  0.00    -0.033 A 
ATOM     15  C   UNL     1      -3.355 -10.417  14.796  0.00  0.00    +0.008 A 
ATOM     16  C   UNL     1      -5.701 -10.647  14.265  0.00  0.00    +0.008 A 
ATOM     18  C   UNL     1      -3.039 -10.503  13.441  0.00  0.00    +0.046 A 
ATOM     19  C   UNL     1      -5.385 -10.734  12.908  0.00  0.00    +0.046 A 
ATOM     20  C   UNL     1      -4.054 -10.663  12.497  0.00  0.00    +0.130 A 
ENDROOT
BRANCH  20   6
ATOM      6  O   UNL     1      -3.746 -10.749  11.174  0.00  0.00    -0.406 OA
BRANCH   6  21
ATOM      1  F   UNL     1      -2.193  -9.182  10.571  0.00  0.00    -0.133 F 
ATOM      2  F   UNL     1      -3.757  -9.744   9.152  0.00  0.00    -0.133 F 
ATOM      3  F   UNL     1      -4.283  -8.542  10.900  0.00  0.00    -0.133 F 
ATOM     21  C   UNL     1      -3.489  -9.543  10.462  0.00  0.00    +0.575 C 
ENDBRANCH   6  21
ENDBRANCH  20   6
BRANCH  14  11
ATOM     11  C   UNL     1      -5.028 -10.393  16.671  0.00  0.00    +0.119 C 
BRANCH  11   7
ATOM      4  O   UNL     1      -9.275 -10.171  18.246  0.00  0.00    -0.376 OA
ATOM      7  N   UNL     1      -6.474 -10.407  16.895  0.00  0.00    -0.293 NA
ATOM      8  C   UNL     1      -7.149  -9.594  15.879  0.00  0.00    +0.118 C 
ATOM      9  C   UNL     1      -8.599  -9.161  16.153  0.00  0.00    +0.157 C 
ATOM     10  C   UNL     1      -6.806 -10.048  18.274  0.00  0.00    +0.113 C 
ATOM     12  C   UNL     1      -9.452 -10.221  16.835  0.00  0.00    +0.192 C 
ATOM     13  C   UNL     1      -8.078 -10.778  18.711  0.00  0.00    +0.175 C 
BRANCH   9   5
ATOM      5  O   UNL     1      -9.210  -8.839  14.903  0.00  0.00    -0.376 OA
ATOM     17  C   UNL     1     -10.599  -8.592  15.058  0.00  0.00    +0.194 C 
ENDBRANCH   9   5
ENDBRANCH  11   7
ENDBRANCH  14  11
TORSDOF 5
ENDMDL
