MODEL 1
REMARK VINA RESULT:      20.9      0.000      0.000
REMARK  Name = 11882876
REMARK  5 active torsions:
REMARK  status: ('A' for Active; 'I' for Inactive)
REMARK    1  A    between atoms: O_6  and  C_27
REMARK    2  A    between atoms: O_6  and  C_34
REMARK    3  A    between atoms: N_8  and  C_11
REMARK    4  A    between atoms: C_19  and  C_24
REMARK    5  A    between atoms: C_22  and  C_25
REMARK                            x       y       z     vdW  Elec       q    Type
REMARK                         _______ _______ _______ _____ _____    ______ ____
ROOT
ATOM      3  O   UNL     1       1.725  -0.824  20.539  0.00  0.00    -0.273 OA
ATOM      4  O   UNL     1      -0.350  -1.019  25.320  0.00  0.00    -0.270 OA
ATOM      7  N   UNL     1       1.301  -0.533  23.762  0.00  0.00    -0.286 N 
ATOM      9  N   UNL     1      -0.272  -0.021  21.309  0.00  0.00    -0.283 N 
ATOM     10  C   UNL     1       1.749   0.317  22.665  0.00  0.00    +0.164 C 
ATOM     11  C   UNL     1       4.044  -0.826  22.803  0.00  0.00    +0.077 C 
ATOM     12  C   UNL     1       3.270   0.468  22.552  0.00  0.00    +0.054 C 
ATOM     13  C   UNL     1       3.599  -1.431  24.131  0.00  0.00    +0.041 C 
ATOM     14  C   UNL     1       2.105  -1.708  24.113  0.00  0.00    +0.111 C 
ATOM     15  C   UNL     1       1.086  -0.251  21.422  0.00  0.00    +0.238 C 
ATOM     16  C   UNL     1       0.034  -0.396  24.328  0.00  0.00    +0.249 C 
ATOM     17  C   UNL     1      -0.951   0.500  23.664  0.00  0.00    +0.059 A 
ATOM     18  C   UNL     1      -1.134   0.555  22.270  0.00  0.00    +0.046 A 
ATOM     20  C   UNL     1      -1.864   1.152  24.511  0.00  0.00    +0.023 A 
ATOM     21  C   UNL     1      -2.267   1.211  21.760  0.00  0.00    +0.024 A 
ATOM     22  C   UNL     1      -2.956   1.839  23.984  0.00  0.00    -0.014 A 
ATOM     23  C   UNL     1      -3.165   1.858  22.610  0.00  0.00    +0.010 A 
ATOM     36  H   UNL     1      -0.675  -0.195  20.391  0.00  0.00    +0.155 HD
ENDROOT
BRANCH  22  25
ATOM      1 CL   UNL     1      -7.060   1.498  27.081  0.00  0.00    -0.084 Cl
ATOM     25  C   UNL     1      -3.883   2.512  24.868  0.00  0.00    +0.025 A 
ATOM     27  C   UNL     1      -3.771   3.881  25.118  0.00  0.00    +0.128 A 
ATOM     28  C   UNL     1      -4.901   1.776  25.476  0.00  0.00    +0.032 A 
ATOM     31  C   UNL     1      -4.673   4.512  25.974  0.00  0.00    +0.047 A 
ATOM     32  C   UNL     1      -5.805   2.407  26.332  0.00  0.00    +0.042 A 
ATOM     33  C   UNL     1      -5.691   3.774  26.580  0.00  0.00    +0.023 A 
BRANCH  27   6
ATOM      6  O   UNL     1      -2.786   4.625  24.539  0.00  0.00    -0.495 OA
ATOM     34  C   UNL     1      -1.611   4.858  25.313  0.00  0.00    +0.277 C 
ENDBRANCH  27   6
ENDBRANCH  22  25
BRANCH  11   8
ATOM      5  O   UNL     1       5.432   0.827  24.619  0.00  0.00    -0.270 OA
ATOM      8  N   UNL     1       5.467  -0.579  22.802  0.00  0.00    -0.308 N 
ATOM     19  C   UNL     1       6.077   0.255  23.738  0.00  0.00    +0.251 C 
ATOM     35  H   UNL     1       6.023  -1.085  22.122  0.00  0.00    +0.149 HD
BRANCH  19  24
ATOM      2  S   UNL     1       8.369  -0.806  22.755  0.00  0.00    -0.092 S 
ATOM     24  C   UNL     1       7.537   0.380  23.628  0.00  0.00    +0.074 A 
ATOM     26  C   UNL     1       8.321   1.349  24.150  0.00  0.00    +0.021 A 
ATOM     29  C   UNL     1       9.689   1.119  23.824  0.00  0.00    +0.008 A 
ATOM     30  C   UNL     1       9.856  -0.019  23.068  0.00  0.00    +0.046 A 
ENDBRANCH  19  24
ENDBRANCH  11   8
TORSDOF 4
ENDMDL
MODEL 2
REMARK VINA RESULT:      23.7      1.679      2.183
REMARK  Name = 11882876
REMARK  5 active torsions:
REMARK  status: ('A' for Active; 'I' for Inactive)
REMARK    1  A    between atoms: O_6  and  C_27
REMARK    2  A    between atoms: O_6  and  C_34
REMARK    3  A    between atoms: N_8  and  C_11
REMARK    4  A    between atoms: C_19  and  C_24
REMARK    5  A    between atoms: C_22  and  C_25
REMARK                            x       y       z     vdW  Elec       q    Type
REMARK                         _______ _______ _______ _____ _____    ______ ____
ROOT
ATOM      3  O   UNL     1       2.383  -0.239  20.841  0.00  0.00    -0.273 OA
ATOM      4  O   UNL     1      -0.365  -1.560  25.072  0.00  0.00    -0.270 OA
ATOM      7  N   UNL     1       1.447  -0.651  23.940  0.00  0.00    -0.286 N 
ATOM      9  N   UNL     1       0.222   0.251  21.403  0.00  0.00    -0.283 N 
ATOM     10  C   UNL     1       1.969   0.436  23.120  0.00  0.00    +0.164 C 
ATOM     11  C   UNL     1       4.319  -0.553  23.421  0.00  0.00    +0.077 C 
ATOM     12  C   UNL     1       3.466   0.710  23.297  0.00  0.00    +0.054 C 
ATOM     13  C   UNL     1       3.741  -1.448  24.512  0.00  0.00    +0.041 C 
ATOM     14  C   UNL     1       2.302  -1.816  24.188  0.00  0.00    +0.111 C 
ATOM     15  C   UNL     1       1.563   0.094  21.697  0.00  0.00    +0.238 C 
ATOM     16  C   UNL     1       0.101  -0.720  24.300  0.00  0.00    +0.249 C 
ATOM     17  C   UNL     1      -0.856   0.225  23.664  0.00  0.00    +0.059 A 
ATOM     18  C   UNL     1      -0.830   0.556  22.297  0.00  0.00    +0.046 A 
ATOM     20  C   UNL     1      -1.948   0.624  24.454  0.00  0.00    +0.023 A 
ATOM     21  C   UNL     1      -1.932   1.224  21.739  0.00  0.00    +0.024 A 
ATOM     22  C   UNL     1      -3.010   1.331  23.894  0.00  0.00    -0.014 A 
ATOM     23  C   UNL     1      -3.009   1.619  22.534  0.00  0.00    +0.010 A 
ATOM     36  H   UNL     1      -0.017   0.244  20.413  0.00  0.00    +0.155 HD
ENDROOT
BRANCH  22  25
ATOM      1 CL   UNL     1      -6.024   5.160  25.569  0.00  0.00    -0.084 Cl
ATOM     25  C   UNL     1      -4.124   1.741  24.721  0.00  0.00    +0.025 A 
ATOM     27  C   UNL     1      -4.829   0.811  25.487  0.00  0.00    +0.128 A 
ATOM     28  C   UNL     1      -4.496   3.086  24.747  0.00  0.00    +0.032 A 
ATOM     31  C   UNL     1      -5.901   1.225  26.277  0.00  0.00    +0.047 A 
ATOM     32  C   UNL     1      -5.568   3.501  25.537  0.00  0.00    +0.042 A 
ATOM     33  C   UNL     1      -6.270   2.570  26.302  0.00  0.00    +0.023 A 
BRANCH  27   6
ATOM      6  O   UNL     1      -4.490  -0.510  25.481  0.00  0.00    -0.495 OA
ATOM     34  C   UNL     1      -4.659  -1.215  24.254  0.00  0.00    +0.277 C 
ENDBRANCH  27   6
ENDBRANCH  22  25
BRANCH  11   8
ATOM      5  O   UNL     1       6.475  -0.733  21.611  0.00  0.00    -0.270 OA
ATOM      8  N   UNL     1       5.693  -0.216  23.709  0.00  0.00    -0.308 N 
ATOM     19  C   UNL     1       6.703  -0.334  22.755  0.00  0.00    +0.251 C 
ATOM     35  H   UNL     1       5.892   0.169  24.626  0.00  0.00    +0.149 HD
BRANCH  19  24
ATOM      2  S   UNL     1       8.181   1.501  24.095  0.00  0.00    -0.092 S 
ATOM     24  C   UNL     1       8.045   0.079  23.188  0.00  0.00    +0.074 A 
ATOM     26  C   UNL     1       9.216  -0.551  22.948  0.00  0.00    +0.021 A 
ATOM     29  C   UNL     1      10.300   0.163  23.535  0.00  0.00    +0.008 A 
ATOM     30  C   UNL     1       9.878   1.298  24.190  0.00  0.00    +0.046 A 
ENDBRANCH  19  24
ENDBRANCH  11   8
TORSDOF 4
ENDMDL
