MODEL 1
REMARK VINA RESULT:       5.1      0.000      0.000
REMARK  Name = 75368506
REMARK  2 active torsions:
REMARK  status: ('A' for Active; 'I' for Inactive)
REMARK    1  A    between atoms: N_4  and  C_10
REMARK    2  A    between atoms: N_7  and  C_20
REMARK                            x       y       z     vdW  Elec       q    Type
REMARK                         _______ _______ _______ _____ _____    ______ ____
ROOT
ATOM      2  O   UNL     1      -5.043  -0.135  25.034  0.00  0.00    -0.252 OA
ATOM      3  O   UNL     1       1.438  -2.399  24.234  0.00  0.00    -0.252 OA
ATOM      4  N   UNL     1      -3.900   1.819  24.374  0.00  0.00    -0.280 N 
ATOM      5  N   UNL     1      -2.765  -0.120  24.456  0.00  0.00    -0.278 N 
ATOM      6  N   UNL     1      -0.052  -0.684  24.658  0.00  0.00    -0.282 N 
ATOM      7  N   UNL     1       1.970  -0.255  23.524  0.00  0.00    -0.269 N 
ATOM      8  C   UNL     1      -1.818   0.837  23.907  0.00  0.00    +0.112 C 
ATOM      9  C   UNL     1      -2.527   2.180  24.066  0.00  0.00    +0.133 C 
ATOM     11  C   UNL     1      -0.484   0.729  24.636  0.00  0.00    +0.133 C 
ATOM     12  C   UNL     1      -2.375  -1.508  24.631  0.00  0.00    +0.128 C 
ATOM     13  C   UNL     1      -4.031   0.446  24.664  0.00  0.00    +0.305 C 
ATOM     14  C   UNL     1      -1.010  -1.589  25.313  0.00  0.00    +0.128 C 
ATOM     19  C   UNL     1       1.157  -1.200  24.147  0.00  0.00    +0.307 C 
ATOM     26  H   UNL     1       1.524   0.547  23.092  0.00  0.00    +0.156 HD
ENDROOT
BRANCH   4  10
ATOM      1  O   UNL     1      -6.145   4.956  25.987  0.00  0.00    -0.380 OA
ATOM     10  C   UNL     1      -4.941   2.809  24.495  0.00  0.00    +0.082 C 
ATOM     15  C   UNL     1      -5.792   2.566  25.742  0.00  0.00    +0.050 C 
ATOM     16  C   UNL     1      -4.353   4.220  24.521  0.00  0.00    +0.050 C 
ATOM     17  C   UNL     1      -6.802   3.690  25.930  0.00  0.00    +0.161 C 
ATOM     18  C   UNL     1      -5.443   5.253  24.780  0.00  0.00    +0.161 C 
ENDBRANCH   4  10
BRANCH   7  20
ATOM     20  C   UNL     1       3.385  -0.259  23.441  0.00  0.00    +0.035 A 
ATOM     21  C   UNL     1       4.106  -1.369  23.881  0.00  0.00    +0.023 A 
ATOM     22  C   UNL     1       4.056   0.848  22.921  0.00  0.00    +0.023 A 
ATOM     23  C   UNL     1       5.498  -1.372  23.801  0.00  0.00    +0.002 A 
ATOM     24  C   UNL     1       5.448   0.845  22.842  0.00  0.00    +0.002 A 
ATOM     25  C   UNL     1       6.169  -0.266  23.281  0.00  0.00    +0.000 A 
ENDBRANCH   7  20
TORSDOF 2
ENDMDL
MODEL 2
REMARK VINA RESULT:       5.8      1.810      2.169
REMARK  Name = 75368506
REMARK  2 active torsions:
REMARK  status: ('A' for Active; 'I' for Inactive)
REMARK    1  A    between atoms: N_4  and  C_10
REMARK    2  A    between atoms: N_7  and  C_20
REMARK                            x       y       z     vdW  Elec       q    Type
REMARK                         _______ _______ _______ _____ _____    ______ ____
ROOT
ATOM      2  O   UNL     1      -4.209   2.180  22.800  0.00  0.00    -0.252 OA
ATOM      3  O   UNL     1       2.084  -0.259  21.317  0.00  0.00    -0.252 OA
ATOM      4  N   UNL     1      -3.000   2.664  24.766  0.00  0.00    -0.280 N 
ATOM      5  N   UNL     1      -1.912   1.742  23.029  0.00  0.00    -0.278 N 
ATOM      6  N   UNL     1       0.468   0.319  22.864  0.00  0.00    -0.282 N 
ATOM      7  N   UNL     1       2.756   0.562  23.380  0.00  0.00    -0.269 N 
ATOM      8  C   UNL     1      -0.874   2.018  24.008  0.00  0.00    +0.112 C 
ATOM      9  C   UNL     1      -1.652   2.433  25.255  0.00  0.00    +0.133 C 
ATOM     11  C   UNL     1       0.014   0.791  24.188  0.00  0.00    +0.133 C 
ATOM     12  C   UNL     1      -1.563   1.156  21.746  0.00  0.00    +0.128 C 
ATOM     13  C   UNL     1      -3.171   2.196  23.448  0.00  0.00    +0.305 C 
ATOM     14  C   UNL     1      -0.629  -0.037  21.950  0.00  0.00    +0.128 C 
ATOM     19  C   UNL     1       1.805   0.167  22.440  0.00  0.00    +0.307 C 
ATOM     26  H   UNL     1       2.500   1.287  24.042  0.00  0.00    +0.156 HD
ENDROOT
BRANCH   4  10
ATOM      1  O   UNL     1      -6.795   3.950  25.963  0.00  0.00    -0.380 OA
ATOM     10  C   UNL     1      -4.042   3.183  25.617  0.00  0.00    +0.082 C 
ATOM     15  C   UNL     1      -4.605   4.493  25.063  0.00  0.00    +0.050 C 
ATOM     16  C   UNL     1      -5.162   2.159  25.798  0.00  0.00    +0.050 C 
ATOM     17  C   UNL     1      -5.790   4.962  25.896  0.00  0.00    +0.161 C 
ATOM     18  C   UNL     1      -6.318   2.758  26.589  0.00  0.00    +0.161 C 
ENDBRANCH   4  10
BRANCH   7  20
ATOM     20  C   UNL     1       4.064   0.042  23.550  0.00  0.00    +0.035 A 
ATOM     21  C   UNL     1       4.244  -1.313  23.829  0.00  0.00    +0.023 A 
ATOM     22  C   UNL     1       5.169   0.885  23.440  0.00  0.00    +0.023 A 
ATOM     23  C   UNL     1       5.531  -1.824  23.997  0.00  0.00    +0.002 A 
ATOM     24  C   UNL     1       6.455   0.374  23.609  0.00  0.00    +0.002 A 
ATOM     25  C   UNL     1       6.636  -0.981  23.887  0.00  0.00    +0.000 A 
ENDBRANCH   7  20
TORSDOF 2
ENDMDL
