MODEL 1
REMARK VINA RESULT:      -5.7      0.000      0.000
REMARK  Name = 56775549
REMARK  8 active torsions:
REMARK  status: ('A' for Active; 'I' for Inactive)
REMARK    1  A    between atoms: O_3  and  C_20
REMARK    2  A    between atoms: O_3  and  C_21
REMARK    3  A    between atoms: N_4  and  C_7
REMARK    4  A    between atoms: N_4  and  C_8
REMARK    5  A    between atoms: N_5  and  C_17
REMARK    6  A    between atoms: C_7  and  C_11
REMARK    7  A    between atoms: C_11  and  C_16
REMARK    8  A    between atoms: C_19  and  C_20
REMARK                            x       y       z     vdW  Elec       q    Type
REMARK                         _______ _______ _______ _____ _____    ______ ____
ROOT
ATOM      1  O   UNL     1      -3.432  -2.928  24.948  0.00  0.00    -0.376 OA
ATOM      7  C   UNL     1      -2.577  -0.972  24.973  0.00  0.00    +0.072 C 
ATOM      9  C   UNL     1      -2.338  -2.291  24.248  0.00  0.00    +0.184 C 
ATOM     10  C   UNL     1      -3.651  -1.736  25.738  0.00  0.00    +0.184 C 
ENDROOT
BRANCH   7   4
ATOM      4  N   UNL     1      -3.230  -0.038  24.049  0.00  0.00    -0.304 NA
ATOM     22  H   UNL     1      -4.013  -0.424  23.524  0.00  0.00    +0.123 HD
BRANCH   4   8
ATOM      5  N   UNL     1      -5.305   3.560  24.950  0.00  0.00    -0.305 NA
ATOM      8  C   UNL     1      -3.649   1.153  24.785  0.00  0.00    +0.057 C 
ATOM     12  C   UNL     1      -5.151   1.093  25.077  0.00  0.00    +0.034 C 
ATOM     13  C   UNL     1      -3.321   2.426  24.000  0.00  0.00    +0.034 C 
ATOM     14  C   UNL     1      -5.628   2.378  25.761  0.00  0.00    +0.085 C 
ATOM     15  C   UNL     1      -3.858   3.667  24.717  0.00  0.00    +0.085 C 
ATOM     17  C   UNL     1      -5.810   4.774  25.590  0.00  0.00    +0.104 C 
ENDBRANCH   4   8
ENDBRANCH   7   4
BRANCH   7  11
ATOM     11  C   UNL     1      -1.448  -0.347  25.733  0.00  0.00    +0.085 C 
BRANCH  11  16
ATOM      2  O   UNL     1       0.947   1.501  23.757  0.00  0.00    -0.357 OA
ATOM      6  N   UNL     1      -0.083   1.424  24.687  0.00  0.00    -0.083 NA
ATOM     16  C   UNL     1      -0.358   0.121  24.790  0.00  0.00    +0.086 A 
ATOM     18  C   UNL     1       0.457  -0.664  23.957  0.00  0.00    +0.073 A 
ATOM     19  C   UNL     1       1.259   0.251  23.330  0.00  0.00    +0.163 A 
BRANCH  19  20
ATOM     20  C   UNL     1       2.336   0.148  22.337  0.00  0.00    +0.236 C 
BRANCH  20   3
ATOM      3  O   UNL     1       3.409   1.031  22.674  0.00  0.00    -0.375 OA
ATOM     21  C   UNL     1       4.554   0.309  23.094  0.00  0.00    +0.194 C 
ENDBRANCH  20   3
ENDBRANCH  19  20
ENDBRANCH  11  16
ENDBRANCH   7  11
TORSDOF 6
ENDMDL
MODEL 2
REMARK VINA RESULT:      -4.6      1.333      2.028
REMARK  Name = 56775549
REMARK  8 active torsions:
REMARK  status: ('A' for Active; 'I' for Inactive)
REMARK    1  A    between atoms: O_3  and  C_20
REMARK    2  A    between atoms: O_3  and  C_21
REMARK    3  A    between atoms: N_4  and  C_7
REMARK    4  A    between atoms: N_4  and  C_8
REMARK    5  A    between atoms: N_5  and  C_17
REMARK    6  A    between atoms: C_7  and  C_11
REMARK    7  A    between atoms: C_11  and  C_16
REMARK    8  A    between atoms: C_19  and  C_20
REMARK                            x       y       z     vdW  Elec       q    Type
REMARK                         _______ _______ _______ _____ _____    ______ ____
ROOT
ATOM      1  O   UNL     1      -1.401  -2.633  25.073  0.00  0.00    -0.376 OA
ATOM      7  C   UNL     1      -1.199  -0.594  24.474  0.00  0.00    +0.072 C 
ATOM      9  C   UNL     1      -2.286  -1.662  24.470  0.00  0.00    +0.184 C 
ATOM     10  C   UNL     1      -0.299  -1.698  25.019  0.00  0.00    +0.184 C 
ENDROOT
BRANCH   7   4
ATOM      4  N   UNL     1      -1.480   0.361  25.551  0.00  0.00    -0.304 NA
ATOM     22  H   UNL     1      -0.661   0.820  25.947  0.00  0.00    +0.123 HD
BRANCH   4   8
ATOM      5  N   UNL     1      -4.601   3.245  25.644  0.00  0.00    -0.305 NA
ATOM      8  C   UNL     1      -2.440   1.355  25.075  0.00  0.00    +0.057 C 
ATOM     12  C   UNL     1      -2.189   2.702  25.757  0.00  0.00    +0.034 C 
ATOM     13  C   UNL     1      -3.877   0.897  25.339  0.00  0.00    +0.034 C 
ATOM     14  C   UNL     1      -3.246   3.731  25.346  0.00  0.00    +0.085 C 
ATOM     15  C   UNL     1      -4.881   1.984  24.943  0.00  0.00    +0.085 C 
ATOM     17  C   UNL     1      -5.597   4.256  25.293  0.00  0.00    +0.104 C 
ENDBRANCH   4   8
ENDBRANCH   7   4
BRANCH   7  11
ATOM     11  C   UNL     1      -0.832   0.073  23.184  0.00  0.00    +0.085 C 
BRANCH  11  16
ATOM      2  O   UNL     1       2.405   1.593  23.696  0.00  0.00    -0.357 OA
ATOM      6  N   UNL     1       1.037   1.505  23.925  0.00  0.00    -0.083 NA
ATOM     16  C   UNL     1       0.630   0.472  23.182  0.00  0.00    +0.086 A 
ATOM     18  C   UNL     1       1.685  -0.124  22.471  0.00  0.00    +0.073 A 
ATOM     19  C   UNL     1       2.779   0.618  22.829  0.00  0.00    +0.163 A 
BRANCH  19  20
ATOM     20  C   UNL     1       4.202   0.565  22.474  0.00  0.00    +0.236 C 
BRANCH  20   3
ATOM      3  O   UNL     1       5.011   0.764  23.637  0.00  0.00    -0.375 OA
ATOM     21  C   UNL     1       5.419  -0.474  24.195  0.00  0.00    +0.194 C 
ENDBRANCH  20   3
ENDBRANCH  19  20
ENDBRANCH  11  16
ENDBRANCH   7  11
TORSDOF 6
ENDMDL
MODEL 3
REMARK VINA RESULT:      -4.5      2.386      4.564
REMARK  Name = 56775549
REMARK  8 active torsions:
REMARK  status: ('A' for Active; 'I' for Inactive)
REMARK    1  A    between atoms: O_3  and  C_20
REMARK    2  A    between atoms: O_3  and  C_21
REMARK    3  A    between atoms: N_4  and  C_7
REMARK    4  A    between atoms: N_4  and  C_8
REMARK    5  A    between atoms: N_5  and  C_17
REMARK    6  A    between atoms: C_7  and  C_11
REMARK    7  A    between atoms: C_11  and  C_16
REMARK    8  A    between atoms: C_19  and  C_20
REMARK                            x       y       z     vdW  Elec       q    Type
REMARK                         _______ _______ _______ _____ _____    ______ ____
ROOT
ATOM      1  O   UNL     1      -0.615   5.091  24.952  0.00  0.00    -0.376 OA
ATOM      7  C   UNL     1      -0.659   3.074  24.254  0.00  0.00    +0.072 C 
ATOM      9  C   UNL     1      -0.973   3.822  25.544  0.00  0.00    +0.184 C 
ATOM     10  C   UNL     1      -0.209   4.433  23.730  0.00  0.00    +0.184 C 
ENDROOT
BRANCH   7   4
ATOM      4  N   UNL     1      -1.921   2.711  23.600  0.00  0.00    -0.304 NA
ATOM     22  H   UNL     1      -1.860   1.936  22.940  0.00  0.00    +0.123 HD
BRANCH   4   8
ATOM      5  N   UNL     1      -5.743   2.150  25.371  0.00  0.00    -0.305 NA
ATOM      8  C   UNL     1      -2.928   2.431  24.620  0.00  0.00    +0.057 C 
ATOM     12  C   UNL     1      -3.763   1.212  24.220  0.00  0.00    +0.034 C 
ATOM     13  C   UNL     1      -3.842   3.641  24.833  0.00  0.00    +0.034 C 
ATOM     14  C   UNL     1      -4.889   0.963  25.228  0.00  0.00    +0.085 C 
ATOM     15  C   UNL     1      -4.967   3.314  25.820  0.00  0.00    +0.085 C 
ATOM     17  C   UNL     1      -6.842   1.881  26.298  0.00  0.00    +0.104 C 
ENDBRANCH   4   8
ENDBRANCH   7   4
BRANCH   7  11
ATOM     11  C   UNL     1       0.325   1.947  24.290  0.00  0.00    +0.085 C 
BRANCH  11  16
ATOM      2  O   UNL     1      -1.357  -0.800  25.926  0.00  0.00    -0.357 OA
ATOM      6  N   UNL     1      -0.791   0.469  25.922  0.00  0.00    -0.083 NA
ATOM     16  C   UNL     1      -0.357   0.649  24.671  0.00  0.00    +0.086 A 
ATOM     18  C   UNL     1      -0.619  -0.461  23.850  0.00  0.00    +0.073 A 
ATOM     19  C   UNL     1      -1.248  -1.344  24.687  0.00  0.00    +0.163 A 
BRANCH  19  20
ATOM     20  C   UNL     1      -1.799  -2.693  24.512  0.00  0.00    +0.236 C 
BRANCH  20   3
ATOM      3  O   UNL     1      -3.160  -2.735  24.953  0.00  0.00    -0.375 OA
ATOM     21  C   UNL     1      -4.049  -2.391  23.904  0.00  0.00    +0.194 C 
ENDBRANCH  20   3
ENDBRANCH  19  20
ENDBRANCH  11  16
ENDBRANCH   7  11
TORSDOF 6
ENDMDL
MODEL 4
REMARK VINA RESULT:      -4.3      1.852      2.676
REMARK  Name = 56775549
REMARK  8 active torsions:
REMARK  status: ('A' for Active; 'I' for Inactive)
REMARK    1  A    between atoms: O_3  and  C_20
REMARK    2  A    between atoms: O_3  and  C_21
REMARK    3  A    between atoms: N_4  and  C_7
REMARK    4  A    between atoms: N_4  and  C_8
REMARK    5  A    between atoms: N_5  and  C_17
REMARK    6  A    between atoms: C_7  and  C_11
REMARK    7  A    between atoms: C_11  and  C_16
REMARK    8  A    between atoms: C_19  and  C_20
REMARK                            x       y       z     vdW  Elec       q    Type
REMARK                         _______ _______ _______ _____ _____    ______ ____
ROOT
ATOM      1  O   UNL     1      -3.883  -2.931  25.406  0.00  0.00    -0.376 OA
ATOM      7  C   UNL     1      -2.502  -1.650  24.401  0.00  0.00    +0.072 C 
ATOM      9  C   UNL     1      -3.152  -3.008  24.161  0.00  0.00    +0.184 C 
ATOM     10  C   UNL     1      -3.231  -1.684  25.740  0.00  0.00    +0.184 C 
ENDROOT
BRANCH   7   4
ATOM      4  N   UNL     1      -3.150  -0.658  23.536  0.00  0.00    -0.304 NA
ATOM     22  H   UNL     1      -3.961  -0.997  23.019  0.00  0.00    +0.123 HD
BRANCH   4   8
ATOM      5  N   UNL     1      -5.231   2.842  24.754  0.00  0.00    -0.305 NA
ATOM      8  C   UNL     1      -3.509   0.513  24.332  0.00  0.00    +0.057 C 
ATOM     12  C   UNL     1      -4.945   0.385  24.846  0.00  0.00    +0.034 C 
ATOM     13  C   UNL     1      -3.361   1.798  23.513  0.00  0.00    +0.034 C 
ATOM     14  C   UNL     1      -5.374   1.648  25.599  0.00  0.00    +0.085 C 
ATOM     15  C   UNL     1      -3.842   3.016  24.308  0.00  0.00    +0.085 C 
ATOM     17  C   UNL     1      -5.691   4.033  25.469  0.00  0.00    +0.104 C 
ENDBRANCH   4   8
ENDBRANCH   7   4
BRANCH   7  11
ATOM     11  C   UNL     1      -1.008  -1.548  24.388  0.00  0.00    +0.085 C 
BRANCH  11  16
ATOM      2  O   UNL     1       0.315   1.799  24.068  0.00  0.00    -0.357 OA
ATOM      6  N   UNL     1       0.058   0.525  23.575  0.00  0.00    -0.083 NA
ATOM     16  C   UNL     1      -0.566  -0.110  24.571  0.00  0.00    +0.086 A 
ATOM     18  C   UNL     1      -0.728   0.704  25.705  0.00  0.00    +0.073 A 
ATOM     19  C   UNL     1      -0.157   1.893  25.336  0.00  0.00    +0.163 A 
BRANCH  19  20
ATOM     20  C   UNL     1       0.032   3.182  26.013  0.00  0.00    +0.236 C 
BRANCH  20   3
ATOM      3  O   UNL     1      -1.112   4.018  25.818  0.00  0.00    -0.375 OA
ATOM     21  C   UNL     1      -0.863   5.005  24.832  0.00  0.00    +0.194 C 
ENDBRANCH  20   3
ENDBRANCH  19  20
ENDBRANCH  11  16
ENDBRANCH   7  11
TORSDOF 6
ENDMDL
MODEL 5
REMARK VINA RESULT:      -4.2      2.460      6.087
REMARK  Name = 56775549
REMARK  8 active torsions:
REMARK  status: ('A' for Active; 'I' for Inactive)
REMARK    1  A    between atoms: O_3  and  C_20
REMARK    2  A    between atoms: O_3  and  C_21
REMARK    3  A    between atoms: N_4  and  C_7
REMARK    4  A    between atoms: N_4  and  C_8
REMARK    5  A    between atoms: N_5  and  C_17
REMARK    6  A    between atoms: C_7  and  C_11
REMARK    7  A    between atoms: C_11  and  C_16
REMARK    8  A    between atoms: C_19  and  C_20
REMARK                            x       y       z     vdW  Elec       q    Type
REMARK                         _______ _______ _______ _____ _____    ______ ____
ROOT
ATOM      1  O   UNL     1       1.135   0.647  23.052  0.00  0.00    -0.376 OA
ATOM      7  C   UNL     1      -0.191   1.842  24.223  0.00  0.00    +0.072 C 
ATOM      9  C   UNL     1      -0.244   1.060  22.916  0.00  0.00    +0.184 C 
ATOM     10  C   UNL     1       1.281   1.445  24.249  0.00  0.00    +0.184 C 
ENDROOT
BRANCH   7   4
ATOM      4  N   UNL     1      -0.902   1.081  25.256  0.00  0.00    -0.304 NA
ATOM     22  H   UNL     1      -1.525   1.631  25.847  0.00  0.00    +0.123 HD
BRANCH   4   8
ATOM      5  N   UNL     1      -3.289  -2.415  24.888  0.00  0.00    -0.305 NA
ATOM      8  C   UNL     1      -1.634  -0.016  24.628  0.00  0.00    +0.057 C 
ATOM     12  C   UNL     1      -3.116   0.050  25.006  0.00  0.00    +0.034 C 
ATOM     13  C   UNL     1      -1.051  -1.370  25.042  0.00  0.00    +0.034 C 
ATOM     14  C   UNL     1      -3.881  -1.148  24.438  0.00  0.00    +0.085 C 
ATOM     15  C   UNL     1      -1.884  -2.523  24.474  0.00  0.00    +0.085 C 
ATOM     17  C   UNL     1      -4.060  -3.550  24.380  0.00  0.00    +0.104 C 
ENDBRANCH   4   8
ENDBRANCH   7   4
BRANCH   7  11
ATOM     11  C   UNL     1      -0.552   3.295  24.215  0.00  0.00    +0.085 C 
BRANCH  11  16
ATOM      2  O   UNL     1      -3.253   3.930  26.529  0.00  0.00    -0.357 OA
ATOM      6  N   UNL     1      -1.907   3.770  26.223  0.00  0.00    -0.083 NA
ATOM     16  C   UNL     1      -1.879   3.523  24.911  0.00  0.00    +0.086 A 
ATOM     18  C   UNL     1      -3.163   3.514  24.341  0.00  0.00    +0.073 A 
ATOM     19  C   UNL     1      -3.991   3.774  25.401  0.00  0.00    +0.163 A 
BRANCH  19  20
ATOM     20  C   UNL     1      -5.445   3.912  25.544  0.00  0.00    +0.236 C 
BRANCH  20   3
ATOM      3  O   UNL     1      -5.992   2.756  26.185  0.00  0.00    -0.375 OA
ATOM     21  C   UNL     1      -6.268   1.731  25.246  0.00  0.00    +0.194 C 
ENDBRANCH  20   3
ENDBRANCH  19  20
ENDBRANCH  11  16
ENDBRANCH   7  11
TORSDOF 6
ENDMDL
MODEL 6
REMARK VINA RESULT:      -3.9      2.423      5.435
REMARK  Name = 56775549
REMARK  8 active torsions:
REMARK  status: ('A' for Active; 'I' for Inactive)
REMARK    1  A    between atoms: O_3  and  C_20
REMARK    2  A    between atoms: O_3  and  C_21
REMARK    3  A    between atoms: N_4  and  C_7
REMARK    4  A    between atoms: N_4  and  C_8
REMARK    5  A    between atoms: N_5  and  C_17
REMARK    6  A    between atoms: C_7  and  C_11
REMARK    7  A    between atoms: C_11  and  C_16
REMARK    8  A    between atoms: C_19  and  C_20
REMARK                            x       y       z     vdW  Elec       q    Type
REMARK                         _______ _______ _______ _____ _____    ______ ____
ROOT
ATOM      1  O   UNL     1      -3.329  -3.105  25.266  0.00  0.00    -0.376 OA
ATOM      7  C   UNL     1      -2.943  -1.097  24.652  0.00  0.00    +0.072 C 
ATOM      9  C   UNL     1      -3.839  -1.811  25.658  0.00  0.00    +0.184 C 
ATOM     10  C   UNL     1      -2.524  -2.500  24.227  0.00  0.00    +0.184 C 
ENDROOT
BRANCH   7   4
ATOM      4  N   UNL     1      -1.830  -0.470  25.373  0.00  0.00    -0.304 NA
ATOM     22  H   UNL     1      -1.337  -1.080  26.024  0.00  0.00    +0.123 HD
BRANCH   4   8
ATOM      5  N   UNL     1       1.849   0.804  23.668  0.00  0.00    -0.305 NA
ATOM      8  C   UNL     1      -0.895   0.105  24.409  0.00  0.00    +0.057 C 
ATOM     12  C   UNL     1       0.126  -0.947  23.968  0.00  0.00    +0.034 C 
ATOM     13  C   UNL     1      -0.171   1.316  25.004  0.00  0.00    +0.034 C 
ATOM     14  C   UNL     1       1.174  -0.337  23.034  0.00  0.00    +0.085 C 
ATOM     15  C   UNL     1       0.888   1.853  24.037  0.00  0.00    +0.085 C 
ATOM     17  C   UNL     1       2.881   1.345  22.784  0.00  0.00    +0.104 C 
ENDBRANCH   4   8
ENDBRANCH   7   4
BRANCH   7  11
ATOM     11  C   UNL     1      -3.569  -0.187  23.641  0.00  0.00    +0.085 C 
BRANCH  11  16
ATOM      2  O   UNL     1      -4.563   2.764  25.475  0.00  0.00    -0.357 OA
ATOM      6  N   UNL     1      -4.646   1.406  25.190  0.00  0.00    -0.083 NA
ATOM     16  C   UNL     1      -3.758   1.204  24.213  0.00  0.00    +0.086 A 
ATOM     18  C   UNL     1      -3.092   2.384  23.844  0.00  0.00    +0.073 A 
ATOM     19  C   UNL     1      -3.635   3.335  24.667  0.00  0.00    +0.163 A 
BRANCH  19  20
ATOM     20  C   UNL     1      -3.418   4.777  24.835  0.00  0.00    +0.236 C 
BRANCH  20   3
ATOM      3  O   UNL     1      -2.282   5.014  25.673  0.00  0.00    -0.375 OA
ATOM     21  C   UNL     1      -1.080   5.000  24.923  0.00  0.00    +0.194 C 
ENDBRANCH  20   3
ENDBRANCH  19  20
ENDBRANCH  11  16
ENDBRANCH   7  11
TORSDOF 6
ENDMDL
MODEL 7
REMARK VINA RESULT:      -3.9      2.554      6.114
REMARK  Name = 56775549
REMARK  8 active torsions:
REMARK  status: ('A' for Active; 'I' for Inactive)
REMARK    1  A    between atoms: O_3  and  C_20
REMARK    2  A    between atoms: O_3  and  C_21
REMARK    3  A    between atoms: N_4  and  C_7
REMARK    4  A    between atoms: N_4  and  C_8
REMARK    5  A    between atoms: N_5  and  C_17
REMARK    6  A    between atoms: C_7  and  C_11
REMARK    7  A    between atoms: C_11  and  C_16
REMARK    8  A    between atoms: C_19  and  C_20
REMARK                            x       y       z     vdW  Elec       q    Type
REMARK                         _______ _______ _______ _____ _____    ______ ____
ROOT
ATOM      1  O   UNL     1      -2.118   5.218  25.812  0.00  0.00    -0.376 OA
ATOM      7  C   UNL     1      -2.519   3.294  24.978  0.00  0.00    +0.072 C 
ATOM      9  C   UNL     1      -1.675   4.514  24.629  0.00  0.00    +0.184 C 
ATOM     10  C   UNL     1      -3.013   4.134  26.151  0.00  0.00    +0.184 C 
ENDROOT
BRANCH   7   4
ATOM      4  N   UNL     1      -1.636   2.241  25.490  0.00  0.00    -0.304 NA
ATOM     22  H   UNL     1      -2.109   1.469  25.960  0.00  0.00    +0.123 HD
BRANCH   4   8
ATOM      5  N   UNL     1       1.622   0.364  23.509  0.00  0.00    -0.305 NA
ATOM      8  C   UNL     1      -0.804   1.738  24.400  0.00  0.00    +0.057 C 
ATOM     12  C   UNL     1      -0.633   0.222  24.519  0.00  0.00    +0.034 C 
ATOM     13  C   UNL     1       0.568   2.419  24.400  0.00  0.00    +0.034 C 
ATOM     14  C   UNL     1       0.317  -0.310  23.442  0.00  0.00    +0.085 C 
ATOM     15  C   UNL     1       1.481   1.815  23.328  0.00  0.00    +0.085 C 
ATOM     17  C   UNL     1       2.535  -0.189  22.508  0.00  0.00    +0.104 C 
ENDBRANCH   4   8
ENDBRANCH   7   4
BRANCH   7  11
ATOM     11  C   UNL     1      -3.512   2.789  23.977  0.00  0.00    +0.085 C 
BRANCH  11  16
ATOM      2  O   UNL     1      -4.589  -0.375  25.350  0.00  0.00    -0.357 OA
ATOM      6  N   UNL     1      -4.390   0.998  25.432  0.00  0.00    -0.083 NA
ATOM     16  C   UNL     1      -3.863   1.341  24.253  0.00  0.00    +0.086 A 
ATOM     18  C   UNL     1      -3.710   0.239  23.396  0.00  0.00    +0.073 A 
ATOM     19  C   UNL     1      -4.181  -0.815  24.133  0.00  0.00    +0.163 A 
BRANCH  19  20
ATOM     20  C   UNL     1      -4.322  -2.254  23.874  0.00  0.00    +0.236 C 
BRANCH  20   3
ATOM      3  O   UNL     1      -3.512  -3.004  24.785  0.00  0.00    -0.375 OA
ATOM     21  C   UNL     1      -2.138  -2.898  24.456  0.00  0.00    +0.194 C 
ENDBRANCH  20   3
ENDBRANCH  19  20
ENDBRANCH  11  16
ENDBRANCH   7  11
TORSDOF 6
ENDMDL
MODEL 8
REMARK VINA RESULT:      -3.6      1.677      4.563
REMARK  Name = 56775549
REMARK  8 active torsions:
REMARK  status: ('A' for Active; 'I' for Inactive)
REMARK    1  A    between atoms: O_3  and  C_20
REMARK    2  A    between atoms: O_3  and  C_21
REMARK    3  A    between atoms: N_4  and  C_7
REMARK    4  A    between atoms: N_4  and  C_8
REMARK    5  A    between atoms: N_5  and  C_17
REMARK    6  A    between atoms: C_7  and  C_11
REMARK    7  A    between atoms: C_11  and  C_16
REMARK    8  A    between atoms: C_19  and  C_20
REMARK                            x       y       z     vdW  Elec       q    Type
REMARK                         _______ _______ _______ _____ _____    ______ ____
ROOT
ATOM      1  O   UNL     1       1.491   0.705  22.797  0.00  0.00    -0.376 OA
ATOM      7  C   UNL     1       0.053   1.329  24.246  0.00  0.00    +0.072 C 
ATOM      9  C   UNL     1       1.543   1.522  23.989  0.00  0.00    +0.184 C 
ATOM     10  C   UNL     1       0.097   0.404  23.034  0.00  0.00    +0.184 C 
ENDROOT
BRANCH   7   4
ATOM      4  N   UNL     1      -0.653   2.559  23.874  0.00  0.00    -0.304 NA
ATOM     22  H   UNL     1      -0.802   2.689  22.874  0.00  0.00    +0.123 HD
BRANCH   4   8
ATOM      5  N   UNL     1      -4.544   3.870  24.975  0.00  0.00    -0.305 NA
ATOM      8  C   UNL     1      -1.927   2.618  24.588  0.00  0.00    +0.057 C 
ATOM     12  C   UNL     1      -3.089   2.398  23.617  0.00  0.00    +0.034 C 
ATOM     13  C   UNL     1      -2.092   3.962  25.303  0.00  0.00    +0.034 C 
ATOM     14  C   UNL     1      -4.436   2.554  24.329  0.00  0.00    +0.085 C 
ATOM     15  C   UNL     1      -3.471   4.069  25.959  0.00  0.00    +0.085 C 
ATOM     17  C   UNL     1      -5.853   4.025  25.607  0.00  0.00    +0.104 C 
ENDBRANCH   4   8
ENDBRANCH   7   4
BRANCH   7  11
ATOM     11  C   UNL     1      -0.390   0.777  25.565  0.00  0.00    +0.085 C 
BRANCH  11  16
ATOM      2  O   UNL     1      -1.229  -2.710  25.129  0.00  0.00    -0.357 OA
ATOM      6  N   UNL     1      -0.315  -1.673  25.271  0.00  0.00    -0.083 NA
ATOM     16  C   UNL     1      -1.060  -0.570  25.388  0.00  0.00    +0.086 A 
ATOM     18  C   UNL     1      -2.437  -0.847  25.326  0.00  0.00    +0.073 A 
ATOM     19  C   UNL     1      -2.489  -2.205  25.162  0.00  0.00    +0.163 A 
BRANCH  19  20
ATOM     20  C   UNL     1      -3.586  -3.171  25.024  0.00  0.00    +0.236 C 
BRANCH  20   3
ATOM      3  O   UNL     1      -4.337  -2.902  23.837  0.00  0.00    -0.375 OA
ATOM     21  C   UNL     1      -4.524  -1.510  23.653  0.00  0.00    +0.194 C 
ENDBRANCH  20   3
ENDBRANCH  19  20
ENDBRANCH  11  16
ENDBRANCH   7  11
TORSDOF 6
ENDMDL
MODEL 9
REMARK VINA RESULT:      -3.4      2.714      4.296
REMARK  Name = 56775549
REMARK  8 active torsions:
REMARK  status: ('A' for Active; 'I' for Inactive)
REMARK    1  A    between atoms: O_3  and  C_20
REMARK    2  A    between atoms: O_3  and  C_21
REMARK    3  A    between atoms: N_4  and  C_7
REMARK    4  A    between atoms: N_4  and  C_8
REMARK    5  A    between atoms: N_5  and  C_17
REMARK    6  A    between atoms: C_7  and  C_11
REMARK    7  A    between atoms: C_11  and  C_16
REMARK    8  A    between atoms: C_19  and  C_20
REMARK                            x       y       z     vdW  Elec       q    Type
REMARK                         _______ _______ _______ _____ _____    ______ ____
ROOT
ATOM      1  O   UNL     1      -0.746   3.454  26.336  0.00  0.00    -0.376 OA
ATOM      7  C   UNL     1      -0.800   1.746  25.056  0.00  0.00    +0.072 C 
ATOM      9  C   UNL     1       0.248   2.532  25.836  0.00  0.00    +0.184 C 
ATOM     10  C   UNL     1      -1.774   2.812  25.546  0.00  0.00    +0.184 C 
ENDROOT
BRANCH   7   4
ATOM      4  N   UNL     1      -1.074   0.493  25.766  0.00  0.00    -0.304 NA
ATOM     22  H   UNL     1      -1.554   0.597  26.660  0.00  0.00    +0.123 HD
BRANCH   4   8
ATOM      5  N   UNL     1      -3.690  -2.635  24.566  0.00  0.00    -0.305 NA
ATOM      8  C   UNL     1      -1.824  -0.403  24.889  0.00  0.00    +0.057 C 
ATOM     12  C   UNL     1      -3.327  -0.255  25.139  0.00  0.00    +0.034 C 
ATOM     13  C   UNL     1      -1.402  -1.859  25.103  0.00  0.00    +0.034 C 
ATOM     14  C   UNL     1      -4.125  -1.257  24.300  0.00  0.00    +0.085 C 
ATOM     15  C   UNL     1      -2.262  -2.810  24.266  0.00  0.00    +0.085 C 
ATOM     17  C   UNL     1      -4.494  -3.584  23.796  0.00  0.00    +0.104 C 
ENDBRANCH   4   8
ENDBRANCH   7   4
BRANCH   7  11
ATOM     11  C   UNL     1      -0.614   1.554  23.583  0.00  0.00    +0.085 C 
BRANCH  11  16
ATOM      2  O   UNL     1       2.263  -0.481  22.783  0.00  0.00    -0.357 OA
ATOM      6  N   UNL     1       0.902  -0.308  23.008  0.00  0.00    -0.083 NA
ATOM     16  C   UNL     1       0.761   0.992  23.282  0.00  0.00    +0.086 A 
ATOM     18  C   UNL     1       1.984   1.682  23.245  0.00  0.00    +0.073 A 
ATOM     19  C   UNL     1       2.896   0.710  22.928  0.00  0.00    +0.163 A 
BRANCH  19  20
ATOM     20  C   UNL     1       4.350   0.709  22.724  0.00  0.00    +0.236 C 
BRANCH  20   3
ATOM      3  O   UNL     1       5.028   0.648  23.982  0.00  0.00    -0.375 OA
ATOM     21  C   UNL     1       5.588  -0.636  24.200  0.00  0.00    +0.194 C 
ENDBRANCH  20   3
ENDBRANCH  19  20
ENDBRANCH  11  16
ENDBRANCH   7  11
TORSDOF 6
ENDMDL
MODEL 10
REMARK VINA RESULT:      -2.9      2.671      6.204
REMARK  Name = 56775549
REMARK  8 active torsions:
REMARK  status: ('A' for Active; 'I' for Inactive)
REMARK    1  A    between atoms: O_3  and  C_20
REMARK    2  A    between atoms: O_3  and  C_21
REMARK    3  A    between atoms: N_4  and  C_7
REMARK    4  A    between atoms: N_4  and  C_8
REMARK    5  A    between atoms: N_5  and  C_17
REMARK    6  A    between atoms: C_7  and  C_11
REMARK    7  A    between atoms: C_11  and  C_16
REMARK    8  A    between atoms: C_19  and  C_20
REMARK                            x       y       z     vdW  Elec       q    Type
REMARK                         _______ _______ _______ _____ _____    ______ ____
ROOT
ATOM      1  O   UNL     1       0.766   2.946  26.276  0.00  0.00    -0.376 OA
ATOM      7  C   UNL     1      -0.481   1.653  25.122  0.00  0.00    +0.072 C 
ATOM      9  C   UNL     1       1.001   1.995  25.213  0.00  0.00    +0.184 C 
ATOM     10  C   UNL     1      -0.662   2.738  26.177  0.00  0.00    +0.184 C 
ENDROOT
BRANCH   7   4
ATOM      4  N   UNL     1      -0.703   0.345  25.749  0.00  0.00    -0.304 NA
ATOM     22  H   UNL     1      -1.048   0.376  26.707  0.00  0.00    +0.123 HD
BRANCH   4   8
ATOM      5  N   UNL     1      -3.447  -2.697  24.618  0.00  0.00    -0.305 NA
ATOM      8  C   UNL     1      -1.602  -0.444  24.910  0.00  0.00    +0.057 C 
ATOM     12  C   UNL     1      -3.021  -0.418  25.484  0.00  0.00    +0.034 C 
ATOM     13  C   UNL     1      -1.113  -1.890  24.793  0.00  0.00    +0.034 C 
ATOM     14  C   UNL     1      -3.957  -1.320  24.674  0.00  0.00    +0.085 C 
ATOM     15  C   UNL     1      -2.111  -2.746  24.007  0.00  0.00    +0.085 C 
ATOM     17  C   UNL     1      -4.375  -3.558  23.885  0.00  0.00    +0.104 C 
ENDBRANCH   4   8
ENDBRANCH   7   4
BRANCH   7  11
ATOM     11  C   UNL     1      -1.179   1.795  23.805  0.00  0.00    +0.085 C 
BRANCH  11  16
ATOM      2  O   UNL     1      -4.496   3.180  23.439  0.00  0.00    -0.357 OA
ATOM      6  N   UNL     1      -3.340   2.602  22.927  0.00  0.00    -0.083 NA
ATOM     16  C   UNL     1      -2.548   2.419  23.987  0.00  0.00    +0.086 A 
ATOM     18  C   UNL     1      -3.143   2.857  25.181  0.00  0.00    +0.073 A 
ATOM     19  C   UNL     1      -4.366   3.327  24.782  0.00  0.00    +0.163 A 
BRANCH  19  20
ATOM     20  C   UNL     1      -5.504   3.927  25.489  0.00  0.00    +0.236 C 
BRANCH  20   3
ATOM      3  O   UNL     1      -6.027   3.012  26.456  0.00  0.00    -0.375 OA
ATOM     21  C   UNL     1      -6.266   1.739  25.880  0.00  0.00    +0.194 C 
ENDBRANCH  20   3
ENDBRANCH  19  20
ENDBRANCH  11  16
ENDBRANCH   7  11
TORSDOF 6
ENDMDL
