MODEL 1
REMARK VINA RESULT:      11.4      0.000      0.000
REMARK  Name = 44716827
REMARK  12 active torsions:
REMARK  status: ('A' for Active; 'I' for Inactive)
REMARK    1  A    between atoms: S_1  and  N_8
REMARK    2  A    between atoms: S_1  and  C_26
REMARK    3  A    between atoms: N_8  and  C_16
REMARK    4  A    between atoms: N_9  and  C_23
REMARK    5  A    between atoms: N_10  and  C_34
REMARK    6  A    between atoms: N_13  and  C_40
REMARK    7  A    between atoms: C_17  and  C_21
REMARK    8  A    between atoms: C_22  and  C_24
REMARK    9  A    between atoms: C_23  and  C_25
REMARK   10  A    between atoms: C_23  and  C_29
REMARK   11  A    between atoms: C_25  and  C_27
REMARK   12  A    between atoms: C_31  and  C_38
REMARK                            x       y       z     vdW  Elec       q    Type
REMARK                         _______ _______ _______ _____ _____    ______ ____
ROOT
ATOM      3  O   UNL     1       2.003   3.893  26.437  0.00  0.00    -0.268 OA
ATOM      7  N   UNL     1      -0.044   2.780  26.169  0.00  0.00    -0.285 N 
ATOM     16  C   UNL     1      -2.587   2.545  24.773  0.00  0.00    +0.080 C 
ATOM     17  C   UNL     1      -1.050   1.835  26.684  0.00  0.00    +0.164 C 
ATOM     18  C   UNL     1      -2.476   2.190  26.257  0.00  0.00    +0.052 C 
ATOM     19  C   UNL     1      -1.564   3.611  24.398  0.00  0.00    +0.039 C 
ATOM     20  C   UNL     1      -0.155   3.155  24.755  0.00  0.00    +0.110 C 
ATOM     22  C   UNL     1       1.081   3.214  26.885  0.00  0.00    +0.265 C 
ENDROOT
BRANCH  22  24
ATOM     10  N   UNL     1       2.323   2.430  28.930  0.00  0.00    -0.262 N 
ATOM     12  N   UNL     1       2.153   2.148  30.232  0.00  0.00    -0.176 NA
ATOM     24  C   UNL     1       1.185   2.842  28.302  0.00  0.00    +0.123 A 
ATOM     28  C   UNL     1       0.201   2.829  29.260  0.00  0.00    +0.057 A 
ATOM     31  C   UNL     1       0.855   2.394  30.429  0.00  0.00    +0.061 A 
ATOM     34  C   UNL     1       3.633   2.278  28.340  0.00  0.00    +0.173 C 
ATOM     38  C   UNL     1       0.267   2.199  31.764  0.00  0.00    +0.067 C 
ENDBRANCH  22  24
BRANCH  17  21
ATOM      2  O   UNL     1      -0.781  -0.526  26.928  0.00  0.00    -0.274 OA
ATOM      9  N   UNL     1      -0.099   0.488  24.946  0.00  0.00    -0.302 N 
ATOM     21  C   UNL     1      -0.644   0.467  26.218  0.00  0.00    +0.234 C 
ATOM     44  H   UNL     1      -0.084   1.362  24.428  0.00  0.00    +0.150 HD
BRANCH   9  23
ATOM     23  C   UNL     1       0.391  -0.696  24.276  0.00  0.00    +0.163 C 
BRANCH  23  29
ATOM      6  O   UNL     1      -1.647  -1.596  23.306  0.00  0.00    -0.274 OA
ATOM     15  N   UNL     1      -0.727  -2.668  25.117  0.00  0.00    -0.328 N 
ATOM     29  C   UNL     1      -0.776  -1.666  24.170  0.00  0.00    +0.231 C 
ATOM     46  H   UNL     1      -1.439  -3.389  25.148  0.00  0.00    +0.145 HD
ATOM     47  H   UNL     1       0.012  -2.726  25.811  0.00  0.00    +0.145 HD
ENDBRANCH  23  29
BRANCH  23  25
ATOM     25  C   UNL     1       0.955  -0.384  22.886  0.00  0.00    +0.069 C 
BRANCH  25  27
ATOM     14  N   UNL     1       3.898   1.829  22.803  0.00  0.00    -0.360 N 
ATOM     27  C   UNL     1       2.305   0.290  22.941  0.00  0.00    -0.020 A 
ATOM     32  C   UNL     1       3.537  -0.310  23.322  0.00  0.00    +0.003 A 
ATOM     33  C   UNL     1       2.559   1.605  22.627  0.00  0.00    +0.087 A 
ATOM     35  C   UNL     1       4.520   0.677  23.228  0.00  0.00    +0.047 A 
ATOM     37  C   UNL     1       3.911  -1.602  23.742  0.00  0.00    +0.010 A 
ATOM     39  C   UNL     1       5.865   0.435  23.531  0.00  0.00    +0.026 A 
ATOM     41  C   UNL     1       5.252  -1.859  24.049  0.00  0.00    +0.001 A 
ATOM     42  C   UNL     1       6.213  -0.854  23.945  0.00  0.00    +0.002 A 
ATOM     45  H   UNL     1       4.364   2.711  22.642  0.00  0.00    +0.165 HD
ENDBRANCH  25  27
ENDBRANCH  23  25
ENDBRANCH   9  23
ENDBRANCH  17  21
BRANCH  16   8
ATOM      8  N   UNL     1      -3.952   3.052  24.488  0.00  0.00    -0.185 NA
ATOM     43  H   UNL     1      -4.012   4.073  24.378  0.00  0.00    +0.148 HD
BRANCH   8   1
ATOM      1  S   UNL     1      -5.303   2.250  25.129  0.00  0.00    +0.077 S 
ATOM      4  O   UNL     1      -6.424   2.387  24.218  0.00  0.00    -0.152 OA
ATOM      5  O   UNL     1      -5.449   2.621  26.524  0.00  0.00    -0.152 OA
BRANCH   1  26
ATOM     11  N   UNL     1      -4.205  -0.046  26.184  0.00  0.00    -0.216 NA
ATOM     13  N   UNL     1      -4.335  -1.476  24.490  0.00  0.00    -0.338 N 
ATOM     26  C   UNL     1      -4.777   0.563  25.095  0.00  0.00    +0.211 A 
ATOM     30  C   UNL     1      -4.868  -0.304  24.032  0.00  0.00    +0.135 A 
ATOM     36  C   UNL     1      -3.951  -1.273  25.786  0.00  0.00    +0.201 A 
ATOM     40  C   UNL     1      -4.202  -2.703  23.744  0.00  0.00    +0.150 C 
ENDBRANCH   1  26
ENDBRANCH   8   1
ENDBRANCH  16   8
TORSDOF 9
ENDMDL
MODEL 2
REMARK VINA RESULT:      12.0      1.514      1.928
REMARK  Name = 44716827
REMARK  12 active torsions:
REMARK  status: ('A' for Active; 'I' for Inactive)
REMARK    1  A    between atoms: S_1  and  N_8
REMARK    2  A    between atoms: S_1  and  C_26
REMARK    3  A    between atoms: N_8  and  C_16
REMARK    4  A    between atoms: N_9  and  C_23
REMARK    5  A    between atoms: N_10  and  C_34
REMARK    6  A    between atoms: N_13  and  C_40
REMARK    7  A    between atoms: C_17  and  C_21
REMARK    8  A    between atoms: C_22  and  C_24
REMARK    9  A    between atoms: C_23  and  C_25
REMARK   10  A    between atoms: C_23  and  C_29
REMARK   11  A    between atoms: C_25  and  C_27
REMARK   12  A    between atoms: C_31  and  C_38
REMARK                            x       y       z     vdW  Elec       q    Type
REMARK                         _______ _______ _______ _____ _____    ______ ____
ROOT
ATOM      3  O   UNL     1       2.824   3.438  27.527  0.00  0.00    -0.268 OA
ATOM      7  N   UNL     1       0.676   2.848  26.792  0.00  0.00    -0.285 N 
ATOM     16  C   UNL     1      -1.492   3.212  24.885  0.00  0.00    +0.080 C 
ATOM     17  C   UNL     1      -0.613   2.181  27.048  0.00  0.00    +0.164 C 
ATOM     18  C   UNL     1      -1.788   2.863  26.345  0.00  0.00    +0.052 C 
ATOM     19  C   UNL     1      -0.188   3.995  24.773  0.00  0.00    +0.039 C 
ATOM     20  C   UNL     1       0.962   3.218  25.401  0.00  0.00    +0.110 C 
ATOM     22  C   UNL     1       1.692   3.009  27.745  0.00  0.00    +0.265 C 
ENDROOT
BRANCH  22  24
ATOM     10  N   UNL     1       2.164   1.828  29.917  0.00  0.00    -0.262 N 
ATOM     12  N   UNL     1       1.678   1.651  31.158  0.00  0.00    -0.176 NA
ATOM     24  C   UNL     1       1.401   2.644  29.137  0.00  0.00    +0.123 A 
ATOM     28  C   UNL     1       0.340   3.029  29.921  0.00  0.00    +0.057 A 
ATOM     31  C   UNL     1       0.564   2.388  31.154  0.00  0.00    +0.061 A 
ATOM     34  C   UNL     1       3.393   1.168  29.540  0.00  0.00    +0.173 C 
ATOM     38  C   UNL     1      -0.272   2.456  32.363  0.00  0.00    +0.067 C 
ENDBRANCH  22  24
BRANCH  17  21
ATOM      2  O   UNL     1      -0.548  -0.175  27.431  0.00  0.00    -0.274 OA
ATOM      9  N   UNL     1      -0.181   0.628  25.277  0.00  0.00    -0.302 N 
ATOM     21  C   UNL     1      -0.456   0.750  26.628  0.00  0.00    +0.234 C 
ATOM     44  H   UNL     1      -0.180   1.461  24.695  0.00  0.00    +0.150 HD
BRANCH   9  23
ATOM     23  C   UNL     1       0.036  -0.644  24.625  0.00  0.00    +0.163 C 
BRANCH  23  29
ATOM      6  O   UNL     1      -1.436  -2.540  25.005  0.00  0.00    -0.274 OA
ATOM     15  N   UNL     1      -2.342  -0.589  24.199  0.00  0.00    -0.328 N 
ATOM     29  C   UNL     1      -1.295  -1.380  24.624  0.00  0.00    +0.231 C 
ATOM     46  H   UNL     1      -3.288  -0.954  24.164  0.00  0.00    +0.145 HD
ATOM     47  H   UNL     1      -2.214   0.375  23.909  0.00  0.00    +0.145 HD
ENDBRANCH  23  29
BRANCH  23  25
ATOM     25  C   UNL     1       0.557  -0.481  23.193  0.00  0.00    +0.069 C 
BRANCH  25  27
ATOM     14  N   UNL     1       3.427   1.804  22.863  0.00  0.00    -0.360 N 
ATOM     27  C   UNL     1       1.890   0.226  23.133  0.00  0.00    -0.020 A 
ATOM     32  C   UNL     1       3.165  -0.344  23.405  0.00  0.00    +0.003 A 
ATOM     33  C   UNL     1       2.084   1.548  22.803  0.00  0.00    +0.087 A 
ATOM     35  C   UNL     1       4.112   0.667  23.228  0.00  0.00    +0.047 A 
ATOM     37  C   UNL     1       3.605  -1.626  23.786  0.00  0.00    +0.010 A 
ATOM     39  C   UNL     1       5.482   0.458  23.413  0.00  0.00    +0.026 A 
ATOM     41  C   UNL     1       4.973  -1.851  23.975  0.00  0.00    +0.001 A 
ATOM     42  C   UNL     1       5.897  -0.823  23.791  0.00  0.00    +0.002 A 
ATOM     45  H   UNL     1       3.855   2.698  22.665  0.00  0.00    +0.165 HD
ENDBRANCH  25  27
ENDBRANCH  23  25
ENDBRANCH   9  23
ENDBRANCH  17  21
BRANCH  16   8
ATOM      8  N   UNL     1      -2.603   4.030  24.338  0.00  0.00    -0.185 NA
ATOM     43  H   UNL     1      -2.920   4.788  24.958  0.00  0.00    +0.148 HD
BRANCH   8   1
ATOM      1  S   UNL     1      -3.757   3.315  23.320  0.00  0.00    +0.077 S 
ATOM      4  O   UNL     1      -3.096   2.403  22.405  0.00  0.00    -0.152 OA
ATOM      5  O   UNL     1      -4.634   4.351  22.808  0.00  0.00    -0.152 OA
BRANCH   1  26
ATOM     11  N   UNL     1      -4.737   0.982  24.408  0.00  0.00    -0.216 NA
ATOM     13  N   UNL     1      -6.009   1.713  26.074  0.00  0.00    -0.338 N 
ATOM     26  C   UNL     1      -4.704   2.352  24.459  0.00  0.00    +0.211 A 
ATOM     30  C   UNL     1      -5.486   2.829  25.485  0.00  0.00    +0.135 A 
ATOM     36  C   UNL     1      -5.531   0.628  25.393  0.00  0.00    +0.201 A 
ATOM     40  C   UNL     1      -6.902   1.684  27.207  0.00  0.00    +0.150 C 
ENDBRANCH   1  26
ENDBRANCH   8   1
ENDBRANCH  16   8
TORSDOF 9
ENDMDL
MODEL 3
REMARK VINA RESULT:      12.1      3.037      7.781
REMARK  Name = 44716827
REMARK  12 active torsions:
REMARK  status: ('A' for Active; 'I' for Inactive)
REMARK    1  A    between atoms: S_1  and  N_8
REMARK    2  A    between atoms: S_1  and  C_26
REMARK    3  A    between atoms: N_8  and  C_16
REMARK    4  A    between atoms: N_9  and  C_23
REMARK    5  A    between atoms: N_10  and  C_34
REMARK    6  A    between atoms: N_13  and  C_40
REMARK    7  A    between atoms: C_17  and  C_21
REMARK    8  A    between atoms: C_22  and  C_24
REMARK    9  A    between atoms: C_23  and  C_25
REMARK   10  A    between atoms: C_23  and  C_29
REMARK   11  A    between atoms: C_25  and  C_27
REMARK   12  A    between atoms: C_31  and  C_38
REMARK                            x       y       z     vdW  Elec       q    Type
REMARK                         _______ _______ _______ _____ _____    ______ ____
ROOT
ATOM      3  O   UNL     1      -0.915   1.878  27.421  0.00  0.00    -0.268 OA
ATOM      7  N   UNL     1      -0.642   1.287  25.168  0.00  0.00    -0.285 N 
ATOM     16  C   UNL     1       0.685  -0.357  23.166  0.00  0.00    +0.080 C 
ATOM     17  C   UNL     1      -0.865   1.587  23.742  0.00  0.00    +0.164 C 
ATOM     18  C   UNL     1       0.262   1.077  22.841  0.00  0.00    +0.052 C 
ATOM     19  C   UNL     1       0.991  -0.503  24.653  0.00  0.00    +0.039 C 
ATOM     20  C   UNL     1      -0.205  -0.075  25.493  0.00  0.00    +0.110 C 
ATOM     22  C   UNL     1      -0.964   2.152  26.223  0.00  0.00    +0.265 C 
ENDROOT
BRANCH  22  24
ATOM     10  N   UNL     1      -2.415   4.191  26.496  0.00  0.00    -0.262 N 
ATOM     12  N   UNL     1      -2.610   5.429  26.010  0.00  0.00    -0.176 NA
ATOM     24  C   UNL     1      -1.396   3.516  25.893  0.00  0.00    +0.123 A 
ATOM     28  C   UNL     1      -0.888   4.371  24.945  0.00  0.00    +0.057 A 
ATOM     31  C   UNL     1      -1.673   5.533  25.063  0.00  0.00    +0.061 A 
ATOM     34  C   UNL     1      -3.263   3.711  27.562  0.00  0.00    +0.173 C 
ATOM     38  C   UNL     1      -1.559   6.775  24.281  0.00  0.00    +0.067 C 
ENDBRANCH  22  24
BRANCH  17  21
ATOM      2  O   UNL     1      -2.718   1.211  22.283  0.00  0.00    -0.274 OA
ATOM      9  N   UNL     1      -2.732   0.236  24.397  0.00  0.00    -0.302 N 
ATOM     21  C   UNL     1      -2.195   0.998  23.374  0.00  0.00    +0.234 C 
ATOM     44  H   UNL     1      -2.185   0.084  25.239  0.00  0.00    +0.150 HD
BRANCH   9  23
ATOM     23  C   UNL     1      -4.016  -0.422  24.303  0.00  0.00    +0.163 C 
BRANCH  23  29
ATOM      6  O   UNL     1      -4.529  -2.550  23.248  0.00  0.00    -0.274 OA
ATOM     15  N   UNL     1      -2.513  -2.316  24.322  0.00  0.00    -0.328 N 
ATOM     29  C   UNL     1      -3.750  -1.867  23.906  0.00  0.00    +0.231 C 
ATOM     46  H   UNL     1      -2.204  -3.258  24.111  0.00  0.00    +0.145 HD
ATOM     47  H   UNL     1      -1.869  -1.732  24.847  0.00  0.00    +0.145 HD
ENDBRANCH  23  29
BRANCH  23  25
ATOM     25  C   UNL     1      -4.794  -0.365  25.621  0.00  0.00    +0.069 C 
BRANCH  25  27
ATOM     14  N   UNL     1      -6.649   2.607  26.758  0.00  0.00    -0.360 N 
ATOM     27  C   UNL     1      -5.414   0.988  25.875  0.00  0.00    -0.020 A 
ATOM     32  C   UNL     1      -5.158   2.187  25.153  0.00  0.00    +0.003 A 
ATOM     33  C   UNL     1      -6.336   1.278  26.855  0.00  0.00    +0.087 A 
ATOM     35  C   UNL     1      -5.945   3.187  25.728  0.00  0.00    +0.047 A 
ATOM     37  C   UNL     1      -4.329   2.518  24.064  0.00  0.00    +0.010 A 
ATOM     39  C   UNL     1      -5.945   4.507  25.264  0.00  0.00    +0.026 A 
ATOM     41  C   UNL     1      -4.317   3.835  23.590  0.00  0.00    +0.001 A 
ATOM     42  C   UNL     1      -5.114   4.813  24.182  0.00  0.00    +0.002 A 
ATOM     45  H   UNL     1      -7.305   3.092  27.355  0.00  0.00    +0.165 HD
ENDBRANCH  25  27
ENDBRANCH  23  25
ENDBRANCH   9  23
ENDBRANCH  17  21
BRANCH  16   8
ATOM      8  N   UNL     1       1.895  -0.703  22.381  0.00  0.00    -0.185 NA
ATOM     43  H   UNL     1       2.184  -1.688  22.454  0.00  0.00    +0.148 HD
BRANCH   8   1
ATOM      1  S   UNL     1       3.112   0.456  22.146  0.00  0.00    +0.077 S 
ATOM      4  O   UNL     1       2.739   1.690  22.810  0.00  0.00    -0.152 OA
ATOM      5  O   UNL     1       3.484   0.467  20.744  0.00  0.00    -0.152 OA
BRANCH   1  26
ATOM     11  N   UNL     1       4.336  -1.398  23.777  0.00  0.00    -0.216 NA
ATOM     13  N   UNL     1       6.423  -0.650  23.891  0.00  0.00    -0.338 N 
ATOM     26  C   UNL     1       4.467  -0.252  23.034  0.00  0.00    +0.211 A 
ATOM     30  C   UNL     1       5.754   0.231  23.090  0.00  0.00    +0.135 A 
ATOM     36  C   UNL     1       5.531  -1.610  24.279  0.00  0.00    +0.201 A 
ATOM     40  C   UNL     1       7.816  -0.581  24.260  0.00  0.00    +0.150 C 
ENDBRANCH   1  26
ENDBRANCH   8   1
ENDBRANCH  16   8
TORSDOF 9
ENDMDL
MODEL 4
REMARK VINA RESULT:      12.3      2.969      7.320
REMARK  Name = 44716827
REMARK  12 active torsions:
REMARK  status: ('A' for Active; 'I' for Inactive)
REMARK    1  A    between atoms: S_1  and  N_8
REMARK    2  A    between atoms: S_1  and  C_26
REMARK    3  A    between atoms: N_8  and  C_16
REMARK    4  A    between atoms: N_9  and  C_23
REMARK    5  A    between atoms: N_10  and  C_34
REMARK    6  A    between atoms: N_13  and  C_40
REMARK    7  A    between atoms: C_17  and  C_21
REMARK    8  A    between atoms: C_22  and  C_24
REMARK    9  A    between atoms: C_23  and  C_25
REMARK   10  A    between atoms: C_23  and  C_29
REMARK   11  A    between atoms: C_25  and  C_27
REMARK   12  A    between atoms: C_31  and  C_38
REMARK                            x       y       z     vdW  Elec       q    Type
REMARK                         _______ _______ _______ _____ _____    ______ ____
ROOT
ATOM      3  O   UNL     1      -2.606   4.670  26.866  0.00  0.00    -0.268 OA
ATOM      7  N   UNL     1      -1.850   3.224  25.182  0.00  0.00    -0.285 N 
ATOM     16  C   UNL     1       0.235   1.475  24.150  0.00  0.00    +0.080 C 
ATOM     17  C   UNL     1      -1.986   2.688  23.816  0.00  0.00    +0.164 C 
ATOM     18  C   UNL     1      -0.645   2.284  23.197  0.00  0.00    +0.052 C 
ATOM     19  C   UNL     1       0.383   2.194  25.487  0.00  0.00    +0.039 C 
ATOM     20  C   UNL     1      -0.983   2.476  26.100  0.00  0.00    +0.110 C 
ATOM     22  C   UNL     1      -2.601   4.290  25.696  0.00  0.00    +0.265 C 
ENDROOT
BRANCH  22  24
ATOM     10  N   UNL     1      -4.820   5.126  24.853  0.00  0.00    -0.262 N 
ATOM     12  N   UNL     1      -5.375   5.875  23.885  0.00  0.00    -0.176 NA
ATOM     24  C   UNL     1      -3.462   5.039  24.773  0.00  0.00    +0.123 A 
ATOM     28  C   UNL     1      -3.102   5.784  23.676  0.00  0.00    +0.057 A 
ATOM     31  C   UNL     1      -4.320   6.275  23.169  0.00  0.00    +0.061 A 
ATOM     34  C   UNL     1      -5.673   4.510  25.843  0.00  0.00    +0.173 C 
ATOM     38  C   UNL     1      -4.518   7.136  21.992  0.00  0.00    +0.067 C 
ENDBRANCH  22  24
BRANCH  17  21
ATOM      2  O   UNL     1      -3.058   0.727  22.973  0.00  0.00    -0.274 OA
ATOM      9  N   UNL     1      -3.661   1.527  25.075  0.00  0.00    -0.302 N 
ATOM     21  C   UNL     1      -2.943   1.535  23.891  0.00  0.00    +0.234 C 
ATOM     44  H   UNL     1      -3.445   2.217  25.789  0.00  0.00    +0.150 HD
BRANCH   9  23
ATOM     23  C   UNL     1      -4.664   0.533  25.385  0.00  0.00    +0.163 C 
BRANCH  23  29
ATOM      6  O   UNL     1      -6.277   1.552  26.890  0.00  0.00    -0.274 OA
ATOM     15  N   UNL     1      -6.657   1.673  24.629  0.00  0.00    -0.328 N 
ATOM     29  C   UNL     1      -5.940   1.282  25.740  0.00  0.00    +0.231 C 
ATOM     46  H   UNL     1      -7.523   2.194  24.725  0.00  0.00    +0.145 HD
ATOM     47  H   UNL     1      -6.355   1.463  23.683  0.00  0.00    +0.145 HD
ENDBRANCH  23  29
BRANCH  23  25
ATOM     25  C   UNL     1      -4.914  -0.423  24.213  0.00  0.00    +0.069 C 
BRANCH  25  27
ATOM     14  N   UNL     1      -3.096  -3.598  23.798  0.00  0.00    -0.360 N 
ATOM     27  C   UNL     1      -3.968  -1.599  24.206  0.00  0.00    -0.020 A 
ATOM     32  C   UNL     1      -2.703  -1.672  24.853  0.00  0.00    +0.003 A 
ATOM     33  C   UNL     1      -4.182  -2.798  23.567  0.00  0.00    +0.087 A 
ATOM     35  C   UNL     1      -2.177  -2.937  24.581  0.00  0.00    +0.047 A 
ATOM     37  C   UNL     1      -1.953  -0.782  25.645  0.00  0.00    +0.010 A 
ATOM     39  C   UNL     1      -0.933  -3.357  25.065  0.00  0.00    +0.026 A 
ATOM     41  C   UNL     1      -0.706  -1.188  26.136  0.00  0.00    +0.001 A 
ATOM     42  C   UNL     1      -0.206  -2.457  25.849  0.00  0.00    +0.002 A 
ATOM     45  H   UNL     1      -2.985  -4.540  23.448  0.00  0.00    +0.165 HD
ENDBRANCH  25  27
ENDBRANCH  23  25
ENDBRANCH   9  23
ENDBRANCH  17  21
BRANCH  16   8
ATOM      8  N   UNL     1       1.577   1.288  23.544  0.00  0.00    -0.185 NA
ATOM     43  H   UNL     1       2.008   2.152  23.189  0.00  0.00    +0.148 HD
BRANCH   8   1
ATOM      1  S   UNL     1       1.948  -0.161  22.742  0.00  0.00    +0.077 S 
ATOM      4  O   UNL     1       1.921   0.060  21.308  0.00  0.00    -0.152 OA
ATOM      5  O   UNL     1       1.165  -1.233  23.328  0.00  0.00    -0.152 OA
BRANCH   1  26
ATOM     11  N   UNL     1       4.023  -1.542  23.913  0.00  0.00    -0.216 NA
ATOM     13  N   UNL     1       5.767  -0.219  23.538  0.00  0.00    -0.338 N 
ATOM     26  C   UNL     1       3.628  -0.425  23.222  0.00  0.00    +0.211 A 
ATOM     30  C   UNL     1       4.692   0.411  22.979  0.00  0.00    +0.135 A 
ATOM     36  C   UNL     1       5.317  -1.387  24.087  0.00  0.00    +0.201 A 
ATOM     40  C   UNL     1       7.128   0.259  23.549  0.00  0.00    +0.150 C 
ENDBRANCH   1  26
ENDBRANCH   8   1
ENDBRANCH  16   8
TORSDOF 9
ENDMDL
MODEL 5
REMARK VINA RESULT:      12.3      3.019      8.185
REMARK  Name = 44716827
REMARK  12 active torsions:
REMARK  status: ('A' for Active; 'I' for Inactive)
REMARK    1  A    between atoms: S_1  and  N_8
REMARK    2  A    between atoms: S_1  and  C_26
REMARK    3  A    between atoms: N_8  and  C_16
REMARK    4  A    between atoms: N_9  and  C_23
REMARK    5  A    between atoms: N_10  and  C_34
REMARK    6  A    between atoms: N_13  and  C_40
REMARK    7  A    between atoms: C_17  and  C_21
REMARK    8  A    between atoms: C_22  and  C_24
REMARK    9  A    between atoms: C_23  and  C_25
REMARK   10  A    between atoms: C_23  and  C_29
REMARK   11  A    between atoms: C_25  and  C_27
REMARK   12  A    between atoms: C_31  and  C_38
REMARK                            x       y       z     vdW  Elec       q    Type
REMARK                         _______ _______ _______ _____ _____    ______ ____
ROOT
ATOM      3  O   UNL     1      -3.614   0.350  23.224  0.00  0.00    -0.268 OA
ATOM      7  N   UNL     1      -1.480   0.860  24.051  0.00  0.00    -0.285 N 
ATOM     16  C   UNL     1       1.236   1.774  23.542  0.00  0.00    +0.080 C 
ATOM     17  C   UNL     1      -0.490   0.781  25.140  0.00  0.00    +0.164 C 
ATOM     18  C   UNL     1       0.954   0.739  24.632  0.00  0.00    +0.052 C 
ATOM     19  C   UNL     1       0.203   1.674  22.425  0.00  0.00    +0.039 C 
ATOM     20  C   UNL     1      -1.207   1.826  22.981  0.00  0.00    +0.110 C 
ATOM     22  C   UNL     1      -2.716   0.198  24.051  0.00  0.00    +0.265 C 
ENDROOT
BRANCH  22  24
ATOM     10  N   UNL     1      -3.435  -2.045  24.938  0.00  0.00    -0.262 N 
ATOM     12  N   UNL     1      -3.599  -2.733  26.080  0.00  0.00    -0.176 NA
ATOM     24  C   UNL     1      -2.982  -0.772  25.119  0.00  0.00    +0.123 A 
ATOM     28  C   UNL     1      -2.840  -0.615  26.477  0.00  0.00    +0.057 A 
ATOM     31  C   UNL     1      -3.233  -1.854  27.017  0.00  0.00    +0.061 A 
ATOM     34  C   UNL     1      -3.738  -2.686  23.679  0.00  0.00    +0.173 C 
ATOM     38  C   UNL     1      -3.274  -2.239  28.438  0.00  0.00    +0.067 C 
ENDBRANCH  22  24
BRANCH  17  21
ATOM      2  O   UNL     1      -0.611   1.873  27.261  0.00  0.00    -0.274 OA
ATOM      9  N   UNL     1      -1.132   3.081  25.340  0.00  0.00    -0.302 N 
ATOM     21  C   UNL     1      -0.737   1.955  26.041  0.00  0.00    +0.234 C 
ATOM     44  H   UNL     1      -1.151   3.049  24.324  0.00  0.00    +0.150 HD
BRANCH   9  23
ATOM     23  C   UNL     1      -1.453   4.338  25.977  0.00  0.00    +0.163 C 
BRANCH  23  29
ATOM      6  O   UNL     1      -1.618   6.555  24.996  0.00  0.00    -0.274 OA
ATOM     15  N   UNL     1      -0.088   5.080  24.126  0.00  0.00    -0.328 N 
ATOM     29  C   UNL     1      -1.097   5.442  24.993  0.00  0.00    +0.231 C 
ATOM     46  H   UNL     1       0.255   5.730  23.427  0.00  0.00    +0.145 HD
ATOM     47  H   UNL     1       0.349   4.164  24.150  0.00  0.00    +0.145 HD
ENDBRANCH  23  29
BRANCH  23  25
ATOM     25  C   UNL     1      -2.932   4.427  26.369  0.00  0.00    +0.069 C 
BRANCH  25  27
ATOM     14  N   UNL     1      -4.764   3.090  23.468  0.00  0.00    -0.360 N 
ATOM     27  C   UNL     1      -3.842   3.744  25.378  0.00  0.00    -0.020 A 
ATOM     32  C   UNL     1      -4.924   2.871  25.682  0.00  0.00    +0.003 A 
ATOM     33  C   UNL     1      -3.770   3.860  24.009  0.00  0.00    +0.087 A 
ATOM     35  C   UNL     1      -5.484   2.475  24.466  0.00  0.00    +0.047 A 
ATOM     37  C   UNL     1      -5.480   2.378  26.878  0.00  0.00    +0.010 A 
ATOM     39  C   UNL     1      -6.579   1.608  24.388  0.00  0.00    +0.026 A 
ATOM     41  C   UNL     1      -6.575   1.509  26.816  0.00  0.00    +0.001 A 
ATOM     42  C   UNL     1      -7.115   1.130  25.587  0.00  0.00    +0.002 A 
ATOM     45  H   UNL     1      -4.945   2.990  22.479  0.00  0.00    +0.165 HD
ENDBRANCH  25  27
ENDBRANCH  23  25
ENDBRANCH   9  23
ENDBRANCH  17  21
BRANCH  16   8
ATOM      8  N   UNL     1       2.589   1.541  22.980  0.00  0.00    -0.185 NA
ATOM     43  H   UNL     1       3.031   2.375  22.571  0.00  0.00    +0.148 HD
BRANCH   8   1
ATOM      1  S   UNL     1       2.974   0.035  22.297  0.00  0.00    +0.077 S 
ATOM      4  O   UNL     1       3.156   0.186  20.866  0.00  0.00    -0.152 OA
ATOM      5  O   UNL     1       2.053  -0.960  22.813  0.00  0.00    -0.152 OA
BRANCH   1  26
ATOM     11  N   UNL     1       4.700  -1.110  24.113  0.00  0.00    -0.216 NA
ATOM     13  N   UNL     1       6.680  -0.349  23.456  0.00  0.00    -0.338 N 
ATOM     26  C   UNL     1       4.553  -0.299  23.016  0.00  0.00    +0.211 A 
ATOM     30  C   UNL     1       5.768   0.185  22.591  0.00  0.00    +0.135 A 
ATOM     36  C   UNL     1       5.992  -1.119  24.352  0.00  0.00    +0.201 A 
ATOM     40  C   UNL     1       8.107  -0.140  23.430  0.00  0.00    +0.150 C 
ENDBRANCH   1  26
ENDBRANCH   8   1
ENDBRANCH  16   8
TORSDOF 9
ENDMDL
MODEL 6
REMARK VINA RESULT:      12.6      2.459      7.993
REMARK  Name = 44716827
REMARK  12 active torsions:
REMARK  status: ('A' for Active; 'I' for Inactive)
REMARK    1  A    between atoms: S_1  and  N_8
REMARK    2  A    between atoms: S_1  and  C_26
REMARK    3  A    between atoms: N_8  and  C_16
REMARK    4  A    between atoms: N_9  and  C_23
REMARK    5  A    between atoms: N_10  and  C_34
REMARK    6  A    between atoms: N_13  and  C_40
REMARK    7  A    between atoms: C_17  and  C_21
REMARK    8  A    between atoms: C_22  and  C_24
REMARK    9  A    between atoms: C_23  and  C_25
REMARK   10  A    between atoms: C_23  and  C_29
REMARK   11  A    between atoms: C_25  and  C_27
REMARK   12  A    between atoms: C_31  and  C_38
REMARK                            x       y       z     vdW  Elec       q    Type
REMARK                         _______ _______ _______ _____ _____    ______ ____
ROOT
ATOM      3  O   UNL     1      -3.920   1.342  23.364  0.00  0.00    -0.268 OA
ATOM      7  N   UNL     1      -1.713   0.870  24.005  0.00  0.00    -0.285 N 
ATOM     16  C   UNL     1       1.122   1.500  23.824  0.00  0.00    +0.080 C 
ATOM     17  C   UNL     1      -0.742  -0.048  24.626  0.00  0.00    +0.164 C 
ATOM     18  C   UNL     1       0.655   0.055  24.010  0.00  0.00    +0.052 C 
ATOM     19  C   UNL     1       0.072   2.312  23.073  0.00  0.00    +0.039 C 
ATOM     20  C   UNL     1      -1.270   2.252  23.790  0.00  0.00    +0.110 C 
ATOM     22  C   UNL     1      -3.057   0.556  23.754  0.00  0.00    +0.265 C 
ENDROOT
BRANCH  22  24
ATOM     10  N   UNL     1      -3.819  -1.383  25.167  0.00  0.00    -0.262 N 
ATOM     12  N   UNL     1      -4.191  -2.672  25.089  0.00  0.00    -0.176 NA
ATOM     24  C   UNL     1      -3.496  -0.829  23.964  0.00  0.00    +0.123 A 
ATOM     28  C   UNL     1      -3.668  -1.825  23.034  0.00  0.00    +0.057 A 
ATOM     31  C   UNL     1      -4.097  -2.936  23.783  0.00  0.00    +0.061 A 
ATOM     34  C   UNL     1      -3.796  -0.731  26.456  0.00  0.00    +0.173 C 
ATOM     38  C   UNL     1      -4.430  -4.280  23.283  0.00  0.00    +0.067 C 
ENDBRANCH  22  24
BRANCH  17  21
ATOM      2  O   UNL     1      -0.936  -0.623  26.936  0.00  0.00    -0.274 OA
ATOM      9  N   UNL     1      -0.507   1.590  26.357  0.00  0.00    -0.302 N 
ATOM     21  C   UNL     1      -0.736   0.251  26.096  0.00  0.00    +0.234 C 
ATOM     44  H   UNL     1      -0.300   2.217  25.584  0.00  0.00    +0.150 HD
BRANCH   9  23
ATOM     23  C   UNL     1      -0.474   2.142  27.693  0.00  0.00    +0.163 C 
BRANCH  23  29
ATOM      6  O   UNL     1       1.734   3.014  27.176  0.00  0.00    -0.274 OA
ATOM     15  N   UNL     1       1.329   2.238  29.300  0.00  0.00    -0.328 N 
ATOM     29  C   UNL     1       0.974   2.502  27.993  0.00  0.00    +0.231 C 
ATOM     46  H   UNL     1       2.264   2.445  29.636  0.00  0.00    +0.145 HD
ATOM     47  H   UNL     1       0.683   1.835  29.971  0.00  0.00    +0.145 HD
ENDBRANCH  23  29
BRANCH  23  25
ATOM     25  C   UNL     1      -1.371   3.376  27.833  0.00  0.00    +0.069 C 
BRANCH  25  27
ATOM     14  N   UNL     1      -2.041   4.821  24.512  0.00  0.00    -0.360 N 
ATOM     27  C   UNL     1      -1.910   3.861  26.508  0.00  0.00    -0.020 A 
ATOM     32  C   UNL     1      -3.227   3.667  26.007  0.00  0.00    +0.003 A 
ATOM     33  C   UNL     1      -1.204   4.574  25.567  0.00  0.00    +0.087 A 
ATOM     35  C   UNL     1      -3.282   4.279  24.753  0.00  0.00    +0.047 A 
ATOM     37  C   UNL     1      -4.381   3.027  26.501  0.00  0.00    +0.010 A 
ATOM     39  C   UNL     1      -4.439   4.284  23.966  0.00  0.00    +0.026 A 
ATOM     41  C   UNL     1      -5.545   3.022  25.725  0.00  0.00    +0.001 A 
ATOM     42  C   UNL     1      -5.572   3.642  24.476  0.00  0.00    +0.002 A 
ATOM     45  H   UNL     1      -1.785   5.330  23.677  0.00  0.00    +0.165 HD
ENDBRANCH  25  27
ENDBRANCH  23  25
ENDBRANCH   9  23
ENDBRANCH  17  21
BRANCH  16   8
ATOM      8  N   UNL     1       2.393   1.512  23.057  0.00  0.00    -0.185 NA
ATOM     43  H   UNL     1       2.643   2.428  22.661  0.00  0.00    +0.148 HD
BRANCH   8   1
ATOM      1  S   UNL     1       2.878   0.128  22.203  0.00  0.00    +0.077 S 
ATOM      4  O   UNL     1       3.206   0.493  20.838  0.00  0.00    -0.152 OA
ATOM      5  O   UNL     1       1.930  -0.938  22.464  0.00  0.00    -0.152 OA
BRANCH   1  26
ATOM     11  N   UNL     1       4.451  -1.340  23.923  0.00  0.00    -0.216 NA
ATOM     13  N   UNL     1       6.438  -0.370  23.721  0.00  0.00    -0.338 N 
ATOM     26  C   UNL     1       4.380  -0.303  23.028  0.00  0.00    +0.211 A 
ATOM     30  C   UNL     1       5.601   0.315  22.887  0.00  0.00    +0.135 A 
ATOM     36  C   UNL     1       5.703  -1.355  24.322  0.00  0.00    +0.201 A 
ATOM     40  C   UNL     1       7.840  -0.105  23.931  0.00  0.00    +0.150 C 
ENDBRANCH   1  26
ENDBRANCH   8   1
ENDBRANCH  16   8
TORSDOF 9
ENDMDL
MODEL 7
REMARK VINA RESULT:      13.2      2.985      7.184
REMARK  Name = 44716827
REMARK  12 active torsions:
REMARK  status: ('A' for Active; 'I' for Inactive)
REMARK    1  A    between atoms: S_1  and  N_8
REMARK    2  A    between atoms: S_1  and  C_26
REMARK    3  A    between atoms: N_8  and  C_16
REMARK    4  A    between atoms: N_9  and  C_23
REMARK    5  A    between atoms: N_10  and  C_34
REMARK    6  A    between atoms: N_13  and  C_40
REMARK    7  A    between atoms: C_17  and  C_21
REMARK    8  A    between atoms: C_22  and  C_24
REMARK    9  A    between atoms: C_23  and  C_25
REMARK   10  A    between atoms: C_23  and  C_29
REMARK   11  A    between atoms: C_25  and  C_27
REMARK   12  A    between atoms: C_31  and  C_38
REMARK                            x       y       z     vdW  Elec       q    Type
REMARK                         _______ _______ _______ _____ _____    ______ ____
ROOT
ATOM      3  O   UNL     1      -1.763   3.873  26.914  0.00  0.00    -0.268 OA
ATOM      7  N   UNL     1      -1.545   2.327  25.163  0.00  0.00    -0.285 N 
ATOM     16  C   UNL     1      -0.196   0.004  24.045  0.00  0.00    +0.080 C 
ATOM     17  C   UNL     1      -1.845   1.933  23.775  0.00  0.00    +0.164 C 
ATOM     18  C   UNL     1      -0.726   1.111  23.132  0.00  0.00    +0.052 C 
ATOM     19  C   UNL     1       0.180   0.566  25.412  0.00  0.00    +0.039 C 
ATOM     20  C   UNL     1      -1.006   1.284  26.043  0.00  0.00    +0.110 C 
ATOM     22  C   UNL     1      -1.879   3.566  25.728  0.00  0.00    +0.265 C 
ENDROOT
BRANCH  22  24
ATOM     10  N   UNL     1      -1.731   5.713  24.422  0.00  0.00    -0.262 N 
ATOM     12  N   UNL     1      -2.445   6.517  23.616  0.00  0.00    -0.176 NA
ATOM     24  C   UNL     1      -2.412   4.610  24.844  0.00  0.00    +0.123 A 
ATOM     28  C   UNL     1      -3.659   4.698  24.274  0.00  0.00    +0.057 A 
ATOM     31  C   UNL     1      -3.621   5.891  23.529  0.00  0.00    +0.061 A 
ATOM     34  C   UNL     1      -0.371   6.072  24.753  0.00  0.00    +0.173 C 
ATOM     38  C   UNL     1      -4.700   6.472  22.713  0.00  0.00    +0.067 C 
ENDBRANCH  22  24
BRANCH  17  21
ATOM      2  O   UNL     1      -3.599   0.632  22.806  0.00  0.00    -0.274 OA
ATOM      9  N   UNL     1      -3.750   1.234  25.050  0.00  0.00    -0.302 N 
ATOM     21  C   UNL     1      -3.148   1.188  23.805  0.00  0.00    +0.234 C 
ATOM     44  H   UNL     1      -3.259   1.679  25.820  0.00  0.00    +0.150 HD
BRANCH   9  23
ATOM     23  C   UNL     1      -5.024   0.614  25.336  0.00  0.00    +0.163 C 
BRANCH  23  29
ATOM      6  O   UNL     1      -6.997   1.779  24.527  0.00  0.00    -0.274 OA
ATOM     15  N   UNL     1      -5.900   2.621  26.361  0.00  0.00    -0.328 N 
ATOM     29  C   UNL     1      -6.070   1.719  25.331  0.00  0.00    +0.231 C 
ATOM     46  H   UNL     1      -6.538   3.399  26.482  0.00  0.00    +0.145 HD
ATOM     47  H   UNL     1      -5.142   2.545  27.032  0.00  0.00    +0.145 HD
ENDBRANCH  23  29
BRANCH  23  25
ATOM     25  C   UNL     1      -5.385  -0.468  24.313  0.00  0.00    +0.069 C 
BRANCH  25  27
ATOM     14  N   UNL     1      -3.159  -3.271  23.447  0.00  0.00    -0.360 N 
ATOM     27  C   UNL     1      -4.321  -1.532  24.187  0.00  0.00    -0.020 A 
ATOM     32  C   UNL     1      -3.197  -1.711  25.041  0.00  0.00    +0.003 A 
ATOM     33  C   UNL     1      -4.270  -2.506  23.218  0.00  0.00    +0.087 A 
ATOM     35  C   UNL     1      -2.484  -2.808  24.553  0.00  0.00    +0.047 A 
ATOM     37  C   UNL     1      -2.715  -1.042  26.183  0.00  0.00    +0.010 A 
ATOM     39  C   UNL     1      -1.309  -3.273  25.156  0.00  0.00    +0.026 A 
ATOM     41  C   UNL     1      -1.541  -1.494  26.796  0.00  0.00    +0.001 A 
ATOM     42  C   UNL     1      -0.850  -2.594  26.288  0.00  0.00    +0.002 A 
ATOM     45  H   UNL     1      -2.875  -4.063  22.886  0.00  0.00    +0.165 HD
ENDBRANCH  25  27
ENDBRANCH  23  25
ENDBRANCH   9  23
ENDBRANCH  17  21
BRANCH  16   8
ATOM      8  N   UNL     1       1.001  -0.616  23.424  0.00  0.00    -0.185 NA
ATOM     43  H   UNL     1       1.400  -1.400  23.957  0.00  0.00    +0.148 HD
BRANCH   8   1
ATOM      1  S   UNL     1       2.069   0.336  22.511  0.00  0.00    +0.077 S 
ATOM      4  O   UNL     1       1.925   1.727  22.894  0.00  0.00    -0.152 OA
ATOM      5  O   UNL     1       1.962  -0.050  21.116  0.00  0.00    -0.152 OA
BRANCH   1  26
ATOM     11  N   UNL     1       3.796  -1.420  23.746  0.00  0.00    -0.216 NA
ATOM     13  N   UNL     1       5.758  -0.401  23.544  0.00  0.00    -0.338 N 
ATOM     26  C   UNL     1       3.643  -0.228  23.084  0.00  0.00    +0.211 A 
ATOM     30  C   UNL     1       4.847   0.422  22.947  0.00  0.00    +0.135 A 
ATOM     36  C   UNL     1       5.081  -1.494  24.008  0.00  0.00    +0.201 A 
ATOM     40  C   UNL     1       7.176  -0.163  23.663  0.00  0.00    +0.150 C 
ENDBRANCH   1  26
ENDBRANCH   8   1
ENDBRANCH  16   8
TORSDOF 9
ENDMDL
MODEL 8
REMARK VINA RESULT:      13.6      1.602      2.935
REMARK  Name = 44716827
REMARK  12 active torsions:
REMARK  status: ('A' for Active; 'I' for Inactive)
REMARK    1  A    between atoms: S_1  and  N_8
REMARK    2  A    between atoms: S_1  and  C_26
REMARK    3  A    between atoms: N_8  and  C_16
REMARK    4  A    between atoms: N_9  and  C_23
REMARK    5  A    between atoms: N_10  and  C_34
REMARK    6  A    between atoms: N_13  and  C_40
REMARK    7  A    between atoms: C_17  and  C_21
REMARK    8  A    between atoms: C_22  and  C_24
REMARK    9  A    between atoms: C_23  and  C_25
REMARK   10  A    between atoms: C_23  and  C_29
REMARK   11  A    between atoms: C_25  and  C_27
REMARK   12  A    between atoms: C_31  and  C_38
REMARK                            x       y       z     vdW  Elec       q    Type
REMARK                         _______ _______ _______ _____ _____    ______ ____
ROOT
ATOM      3  O   UNL     1       0.301   3.299  24.435  0.00  0.00    -0.268 OA
ATOM      7  N   UNL     1      -1.278   1.653  24.980  0.00  0.00    -0.285 N 
ATOM     16  C   UNL     1      -3.825   0.361  24.417  0.00  0.00    +0.080 C 
ATOM     17  C   UNL     1      -1.797   0.662  25.938  0.00  0.00    +0.164 C 
ATOM     18  C   UNL     1      -3.315   0.487  25.854  0.00  0.00    +0.052 C 
ATOM     19  C   UNL     1      -3.303   1.509  23.559  0.00  0.00    +0.039 C 
ATOM     20  C   UNL     1      -1.781   1.566  23.604  0.00  0.00    +0.110 C 
ATOM     22  C   UNL     1      -0.241   2.557  25.252  0.00  0.00    +0.265 C 
ENDROOT
BRANCH  22  24
ATOM     10  N   UNL     1      -0.496   2.961  27.723  0.00  0.00    -0.262 N 
ATOM     12  N   UNL     1       0.197   2.977  28.874  0.00  0.00    -0.176 NA
ATOM     24  C   UNL     1       0.255   2.646  26.631  0.00  0.00    +0.123 A 
ATOM     28  C   UNL     1       1.530   2.440  27.099  0.00  0.00    +0.057 A 
ATOM     31  C   UNL     1       1.434   2.657  28.486  0.00  0.00    +0.061 A 
ATOM     34  C   UNL     1      -1.908   3.267  27.746  0.00  0.00    +0.173 C 
ATOM     38  C   UNL     1       2.513   2.567  29.484  0.00  0.00    +0.067 C 
ENDBRANCH  22  24
BRANCH  17  21
ATOM      2  O   UNL     1      -0.788  -1.405  26.584  0.00  0.00    -0.274 OA
ATOM      9  N   UNL     1      -0.741  -0.779  24.342  0.00  0.00    -0.302 N 
ATOM     21  C   UNL     1      -1.065  -0.622  25.679  0.00  0.00    +0.234 C 
ATOM     44  H   UNL     1      -1.068  -0.091  23.670  0.00  0.00    +0.150 HD
BRANCH   9  23
ATOM     23  C   UNL     1      -0.014  -1.921  23.833  0.00  0.00    +0.163 C 
BRANCH  23  29
ATOM      6  O   UNL     1      -0.851  -3.907  22.712  0.00  0.00    -0.274 OA
ATOM     15  N   UNL     1      -2.189  -2.881  24.272  0.00  0.00    -0.328 N 
ATOM     29  C   UNL     1      -1.040  -3.000  23.518  0.00  0.00    +0.231 C 
ATOM     46  H   UNL     1      -2.949  -3.546  24.169  0.00  0.00    +0.145 HD
ATOM     47  H   UNL     1      -2.322  -2.138  24.950  0.00  0.00    +0.145 HD
ENDBRANCH  23  29
BRANCH  23  25
ATOM     25  C   UNL     1       0.803  -1.578  22.583  0.00  0.00    +0.069 C 
BRANCH  25  27
ATOM     14  N   UNL     1       2.774   1.505  23.000  0.00  0.00    -0.360 N 
ATOM     27  C   UNL     1       1.823  -0.493  22.831  0.00  0.00    -0.020 A 
ATOM     32  C   UNL     1       3.167  -0.676  23.258  0.00  0.00    +0.003 A 
ATOM     33  C   UNL     1       1.611   0.858  22.681  0.00  0.00    +0.087 A 
ATOM     35  C   UNL     1       3.741   0.594  23.357  0.00  0.00    +0.047 A 
ATOM     37  C   UNL     1       3.953  -1.801  23.573  0.00  0.00    +0.010 A 
ATOM     39  C   UNL     1       5.068   0.793  23.755  0.00  0.00    +0.026 A 
ATOM     41  C   UNL     1       5.281  -1.618  23.973  0.00  0.00    +0.001 A 
ATOM     42  C   UNL     1       5.829  -0.339  24.062  0.00  0.00    +0.002 A 
ATOM     45  H   UNL     1       2.905   2.507  22.976  0.00  0.00    +0.165 HD
ENDBRANCH  25  27
ENDBRANCH  23  25
ENDBRANCH   9  23
ENDBRANCH  17  21
BRANCH  16   8
ATOM      8  N   UNL     1      -5.308   0.384  24.417  0.00  0.00    -0.185 NA
ATOM     43  H   UNL     1      -5.742  -0.088  23.611  0.00  0.00    +0.148 HD
BRANCH   8   1
ATOM      1  S   UNL     1      -6.134   1.705  25.090  0.00  0.00    +0.077 S 
ATOM      4  O   UNL     1      -6.262   1.517  26.522  0.00  0.00    -0.152 OA
ATOM      5  O   UNL     1      -7.309   1.981  24.284  0.00  0.00    -0.152 OA
BRANCH   1  26
ATOM     11  N   UNL     1      -4.810   3.585  23.573  0.00  0.00    -0.216 NA
ATOM     13  N   UNL     1      -3.502   4.585  25.063  0.00  0.00    -0.338 N 
ATOM     26  C   UNL     1      -4.995   3.028  24.813  0.00  0.00    +0.211 A 
ATOM     30  C   UNL     1      -4.193   3.631  25.753  0.00  0.00    +0.135 A 
ATOM     36  C   UNL     1      -3.905   4.520  23.758  0.00  0.00    +0.201 A 
ATOM     40  C   UNL     1      -2.524   5.494  25.608  0.00  0.00    +0.150 C 
ENDBRANCH   1  26
ENDBRANCH   8   1
ENDBRANCH  16   8
TORSDOF 9
ENDMDL
MODEL 9
REMARK VINA RESULT:      13.6      2.275      6.753
REMARK  Name = 44716827
REMARK  12 active torsions:
REMARK  status: ('A' for Active; 'I' for Inactive)
REMARK    1  A    between atoms: S_1  and  N_8
REMARK    2  A    between atoms: S_1  and  C_26
REMARK    3  A    between atoms: N_8  and  C_16
REMARK    4  A    between atoms: N_9  and  C_23
REMARK    5  A    between atoms: N_10  and  C_34
REMARK    6  A    between atoms: N_13  and  C_40
REMARK    7  A    between atoms: C_17  and  C_21
REMARK    8  A    between atoms: C_22  and  C_24
REMARK    9  A    between atoms: C_23  and  C_25
REMARK   10  A    between atoms: C_23  and  C_29
REMARK   11  A    between atoms: C_25  and  C_27
REMARK   12  A    between atoms: C_31  and  C_38
REMARK                            x       y       z     vdW  Elec       q    Type
REMARK                         _______ _______ _______ _____ _____    ______ ____
ROOT
ATOM      3  O   UNL     1       1.805  -0.412  20.705  0.00  0.00    -0.268 OA
ATOM      7  N   UNL     1       0.665   0.381  22.595  0.00  0.00    -0.285 N 
ATOM     16  C   UNL     1      -1.456   2.030  23.715  0.00  0.00    +0.080 C 
ATOM     17  C   UNL     1       0.605   0.562  24.056  0.00  0.00    +0.164 C 
ATOM     18  C   UNL     1      -0.140   1.834  24.470  0.00  0.00    +0.052 C 
ATOM     19  C   UNL     1      -1.233   1.926  22.210  0.00  0.00    +0.039 C 
ATOM     20  C   UNL     1      -0.583   0.596  21.853  0.00  0.00    +0.110 C 
ATOM     22  C   UNL     1       1.773  -0.125  21.901  0.00  0.00    +0.265 C 
ENDROOT
BRANCH  22  24
ATOM     10  N   UNL     1       3.973   0.615  22.874  0.00  0.00    -0.262 N 
ATOM     12  N   UNL     1       5.024   0.170  23.584  0.00  0.00    -0.176 NA
ATOM     24  C   UNL     1       3.021  -0.333  22.646  0.00  0.00    +0.123 A 
ATOM     28  C   UNL     1       3.480  -1.479  23.248  0.00  0.00    +0.057 A 
ATOM     31  C   UNL     1       4.716  -1.110  23.810  0.00  0.00    +0.061 A 
ATOM     34  C   UNL     1       3.949   1.992  22.437  0.00  0.00    +0.173 C 
ATOM     38  C   UNL     1       5.642  -1.960  24.577  0.00  0.00    +0.067 C 
ENDBRANCH  22  24
BRANCH  17  21
ATOM      2  O   UNL     1       0.635  -1.666  24.918  0.00  0.00    -0.274 OA
ATOM      9  N   UNL     1      -1.401  -0.552  24.744  0.00  0.00    -0.302 N 
ATOM     21  C   UNL     1      -0.028  -0.674  24.625  0.00  0.00    +0.234 C 
ATOM     44  H   UNL     1      -1.840   0.337  24.521  0.00  0.00    +0.150 HD
BRANCH   9  23
ATOM     23  C   UNL     1      -2.249  -1.611  25.245  0.00  0.00    +0.163 C 
BRANCH  23  29
ATOM      6  O   UNL     1      -3.275  -1.762  27.442  0.00  0.00    -0.274 OA
ATOM     15  N   UNL     1      -1.105  -1.022  27.291  0.00  0.00    -0.328 N 
ATOM     29  C   UNL     1      -2.297  -1.468  26.759  0.00  0.00    +0.231 C 
ATOM     46  H   UNL     1      -0.998  -0.897  28.292  0.00  0.00    +0.145 HD
ATOM     47  H   UNL     1      -0.298  -0.805  26.715  0.00  0.00    +0.145 HD
ENDBRANCH  23  29
BRANCH  23  25
ATOM     25  C   UNL     1      -3.663  -1.548  24.657  0.00  0.00    +0.069 C 
BRANCH  25  27
ATOM     14  N   UNL     1      -4.343   1.744  23.152  0.00  0.00    -0.360 N 
ATOM     27  C   UNL     1      -4.080  -0.145  24.286  0.00  0.00    -0.020 A 
ATOM     32  C   UNL     1      -4.837   0.754  25.089  0.00  0.00    +0.003 A 
ATOM     33  C   UNL     1      -3.792   0.493  23.102  0.00  0.00    +0.087 A 
ATOM     35  C   UNL     1      -4.989   1.931  24.354  0.00  0.00    +0.047 A 
ATOM     37  C   UNL     1      -5.411   0.678  26.373  0.00  0.00    +0.010 A 
ATOM     39  C   UNL     1      -5.686   3.041  24.842  0.00  0.00    +0.026 A 
ATOM     41  C   UNL     1      -6.112   1.780  26.875  0.00  0.00    +0.001 A 
ATOM     42  C   UNL     1      -6.247   2.944  26.119  0.00  0.00    +0.002 A 
ATOM     45  H   UNL     1      -4.285   2.433  22.415  0.00  0.00    +0.165 HD
ENDBRANCH  25  27
ENDBRANCH  23  25
ENDBRANCH   9  23
ENDBRANCH  17  21
BRANCH  16   8
ATOM      8  N   UNL     1      -2.015   3.366  24.037  0.00  0.00    -0.185 NA
ATOM     43  H   UNL     1      -2.718   3.706  23.369  0.00  0.00    +0.148 HD
BRANCH   8   1
ATOM      1  S   UNL     1      -1.046   4.523  24.814  0.00  0.00    +0.077 S 
ATOM      4  O   UNL     1      -1.886   5.579  25.346  0.00  0.00    -0.152 OA
ATOM      5  O   UNL     1       0.075   4.849  23.951  0.00  0.00    -0.152 OA
BRANCH   1  26
ATOM     11  N   UNL     1      -1.171   2.737  26.908  0.00  0.00    -0.216 NA
ATOM     13  N   UNL     1       0.903   2.763  27.701  0.00  0.00    -0.338 N 
ATOM     26  C   UNL     1      -0.398   3.602  26.176  0.00  0.00    +0.211 A 
ATOM     30  C   UNL     1       0.893   3.636  26.650  0.00  0.00    +0.135 A 
ATOM     36  C   UNL     1      -0.359   2.248  27.818  0.00  0.00    +0.201 A 
ATOM     40  C   UNL     1       2.035   2.443  28.535  0.00  0.00    +0.150 C 
ENDBRANCH   1  26
ENDBRANCH   8   1
ENDBRANCH  16   8
TORSDOF 9
ENDMDL
MODEL 10
REMARK VINA RESULT:      14.5      3.109      7.917
REMARK  Name = 44716827
REMARK  12 active torsions:
REMARK  status: ('A' for Active; 'I' for Inactive)
REMARK    1  A    between atoms: S_1  and  N_8
REMARK    2  A    between atoms: S_1  and  C_26
REMARK    3  A    between atoms: N_8  and  C_16
REMARK    4  A    between atoms: N_9  and  C_23
REMARK    5  A    between atoms: N_10  and  C_34
REMARK    6  A    between atoms: N_13  and  C_40
REMARK    7  A    between atoms: C_17  and  C_21
REMARK    8  A    between atoms: C_22  and  C_24
REMARK    9  A    between atoms: C_23  and  C_25
REMARK   10  A    between atoms: C_23  and  C_29
REMARK   11  A    between atoms: C_25  and  C_27
REMARK   12  A    between atoms: C_31  and  C_38
REMARK                            x       y       z     vdW  Elec       q    Type
REMARK                         _______ _______ _______ _____ _____    ______ ____
ROOT
ATOM      3  O   UNL     1      -1.404   3.380  26.909  0.00  0.00    -0.268 OA
ATOM      7  N   UNL     1      -1.058   2.023  25.027  0.00  0.00    -0.285 N 
ATOM     16  C   UNL     1       0.394  -0.160  23.764  0.00  0.00    +0.080 C 
ATOM     17  C   UNL     1      -1.270   1.767  23.592  0.00  0.00    +0.164 C 
ATOM     18  C   UNL     1      -0.101   1.028  22.937  0.00  0.00    +0.052 C 
ATOM     19  C   UNL     1       0.680   0.265  25.200  0.00  0.00    +0.039 C 
ATOM     20  C   UNL     1      -0.553   0.902  25.828  0.00  0.00    +0.110 C 
ATOM     22  C   UNL     1      -1.446   3.194  25.693  0.00  0.00    +0.265 C 
ENDROOT
BRANCH  22  24
ATOM     10  N   UNL     1      -1.238   5.437  24.571  0.00  0.00    -0.262 N 
ATOM     12  N   UNL     1      -1.922   6.317  23.821  0.00  0.00    -0.176 NA
ATOM     24  C   UNL     1      -1.944   4.315  24.888  0.00  0.00    +0.123 A 
ATOM     28  C   UNL     1      -3.178   4.472  24.305  0.00  0.00    +0.057 A 
ATOM     31  C   UNL     1      -3.107   5.721  23.661  0.00  0.00    +0.061 A 
ATOM     34  C   UNL     1       0.120   5.745  24.957  0.00  0.00    +0.173 C 
ATOM     38  C   UNL     1      -4.160   6.386  22.876  0.00  0.00    +0.067 C 
ENDBRANCH  22  24
BRANCH  17  21
ATOM      2  O   UNL     1      -3.473   1.398  22.746  0.00  0.00    -0.274 OA
ATOM      9  N   UNL     1      -2.578  -0.124  24.262  0.00  0.00    -0.302 N 
ATOM     21  C   UNL     1      -2.559   1.009  23.468  0.00  0.00    +0.234 C 
ATOM     44  H   UNL     1      -1.741  -0.380  24.780  0.00  0.00    +0.150 HD
BRANCH   9  23
ATOM     23  C   UNL     1      -3.713  -1.016  24.342  0.00  0.00    +0.163 C 
BRANCH  23  29
ATOM      6  O   UNL     1      -3.844  -3.439  24.460  0.00  0.00    -0.274 OA
ATOM     15  N   UNL     1      -1.811  -2.431  24.815  0.00  0.00    -0.328 N 
ATOM     29  C   UNL     1      -3.166  -2.420  24.554  0.00  0.00    +0.231 C 
ATOM     46  H   UNL     1      -1.317  -3.304  24.962  0.00  0.00    +0.145 HD
ATOM     47  H   UNL     1      -1.259  -1.581  24.867  0.00  0.00    +0.145 HD
ENDBRANCH  23  29
BRANCH  23  25
ATOM     25  C   UNL     1      -4.669  -0.637  25.478  0.00  0.00    +0.069 C 
BRANCH  25  27
ATOM     14  N   UNL     1      -7.126   1.820  24.258  0.00  0.00    -0.360 N 
ATOM     27  C   UNL     1      -5.532   0.555  25.143  0.00  0.00    -0.020 A 
ATOM     32  C   UNL     1      -5.376   1.879  25.640  0.00  0.00    +0.003 A 
ATOM     33  C   UNL     1      -6.615   0.551  24.296  0.00  0.00    +0.087 A 
ATOM     35  C   UNL     1      -6.390   2.652  25.070  0.00  0.00    +0.047 A 
ATOM     37  C   UNL     1      -4.470   2.496  26.524  0.00  0.00    +0.010 A 
ATOM     39  C   UNL     1      -6.541   4.017  25.339  0.00  0.00    +0.026 A 
ATOM     41  C   UNL     1      -4.608   3.860  26.804  0.00  0.00    +0.001 A 
ATOM     42  C   UNL     1      -5.629   4.608  26.219  0.00  0.00    +0.002 A 
ATOM     45  H   UNL     1      -7.927   2.106  23.712  0.00  0.00    +0.165 HD
ENDBRANCH  25  27
ENDBRANCH  23  25
ENDBRANCH   9  23
ENDBRANCH  17  21
BRANCH  16   8
ATOM      8  N   UNL     1       1.636  -0.700  23.156  0.00  0.00    -0.185 NA
ATOM     43  H   UNL     1       2.002  -1.545  23.614  0.00  0.00    +0.148 HD
BRANCH   8   1
ATOM      1  S   UNL     1       2.758   0.356  22.445  0.00  0.00    +0.077 S 
ATOM      4  O   UNL     1       2.546   1.699  22.951  0.00  0.00    -0.152 OA
ATOM      5  O   UNL     1       2.788   0.113  21.015  0.00  0.00    -0.152 OA
BRANCH   1  26
ATOM     11  N   UNL     1       4.360  -1.372  23.872  0.00  0.00    -0.216 NA
ATOM     13  N   UNL     1       6.381  -0.486  23.624  0.00  0.00    -0.338 N 
ATOM     26  C   UNL     1       4.287  -0.239  23.102  0.00  0.00    +0.211 A 
ATOM     30  C   UNL     1       5.529   0.329  22.935  0.00  0.00    +0.135 A 
ATOM     36  C   UNL     1       5.634  -1.493  24.170  0.00  0.00    +0.201 A 
ATOM     40  C   UNL     1       7.808  -0.316  23.753  0.00  0.00    +0.150 C 
ENDBRANCH   1  26
ENDBRANCH   8   1
ENDBRANCH  16   8
TORSDOF 9
ENDMDL
