MODEL 1
REMARK VINA RESULT:      -1.8      0.000      0.000
REMARK  Name = 45361414
REMARK  13 active torsions:
REMARK  status: ('A' for Active; 'I' for Inactive)
REMARK    1  A    between atoms: O_1  and  C_9
REMARK    2  A    between atoms: N_4  and  C_13
REMARK    3  A    between atoms: N_5  and  C_22
REMARK    4  A    between atoms: C_6  and  C_16
REMARK    5  A    between atoms: C_8  and  C_18
REMARK    6  A    between atoms: C_11  and  C_17
REMARK    7  A    between atoms: C_17  and  C_19
REMARK    8  A    between atoms: C_17  and  C_20
REMARK    9  A    between atoms: C_21  and  C_23
REMARK   10  A    between atoms: C_23  and  C_24
REMARK   11  A    between atoms: C_24  and  C_30
REMARK   12  A    between atoms: C_24  and  C_31
REMARK   13  A    between atoms: C_24  and  C_32
REMARK                            x       y       z     vdW  Elec       q    Type
REMARK                         _______ _______ _______ _____ _____    ______ ____
ROOT
ATOM      6  C   UNL     1      -2.067  -0.961  25.105  0.00  0.00    -0.027 C 
ATOM      7  C   UNL     1      -2.073   0.200  24.056  0.00  0.00    +0.028 C 
ATOM      8  C   UNL     1      -0.637   0.820  23.901  0.00  0.00    +0.012 C 
ATOM      9  C   UNL     1      -3.212   1.219  24.346  0.00  0.00    +0.122 C 
ATOM     10  C   UNL     1      -3.466  -1.622  25.150  0.00  0.00    +0.007 C 
ATOM     11  C   UNL     1      -4.594   0.539  24.493  0.00  0.00    +0.029 C 
ATOM     12  C   UNL     1      -1.051  -2.037  24.661  0.00  0.00    +0.009 C 
ATOM     13  C   UNL     1       0.389  -0.286  23.528  0.00  0.00    +0.076 C 
ATOM     14  C   UNL     1      -4.579  -0.635  25.473  0.00  0.00    +0.007 C 
ATOM     15  C   UNL     1       0.356  -1.490  24.469  0.00  0.00    +0.023 C 
ATOM     16  C   UNL     1      -1.703  -0.471  26.529  0.00  0.00    +0.011 C 
ATOM     18  C   UNL     1      -0.564   1.951  22.860  0.00  0.00    +0.010 C 
ENDROOT
BRANCH  13   4
ATOM      3  O   UNL     1       2.218  -0.312  21.282  0.00  0.00    -0.276 OA
ATOM      4  N   UNL     1       1.742   0.229  23.491  0.00  0.00    -0.312 N 
ATOM     21  C   UNL     1       2.543   0.171  22.364  0.00  0.00    +0.214 C 
ATOM     33  H   UNL     1       2.121   0.618  24.349  0.00  0.00    +0.149 HD
BRANCH  21  23
ATOM     23  C   UNL     1       3.922   0.771  22.586  0.00  0.00    +0.102 C 
BRANCH  23  24
ATOM     24  C   UNL     1       4.905  -0.136  23.364  0.00  0.00    -0.029 C 
ATOM     30  C   UNL     1       4.247  -1.466  23.763  0.00  0.00    +0.011 C 
ATOM     31  C   UNL     1       5.321   0.606  24.650  0.00  0.00    +0.011 C 
ATOM     32  C   UNL     1       6.169  -0.422  22.537  0.00  0.00    +0.011 C 
ENDBRANCH  23  24
ENDBRANCH  21  23
ENDBRANCH  13   4
BRANCH   9   1
ATOM      1  O   UNL     1      -3.323   2.135  23.256  0.00  0.00    -0.391 OA
ATOM     34  H   UNL     1      -4.114   1.900  22.742  0.00  0.00    +0.210 HD
ENDBRANCH   9   1
BRANCH  11  17
ATOM     17  C   UNL     1      -5.679   1.539  24.908  0.00  0.00    +0.077 C 
ATOM     19  C   UNL     1      -6.214   2.272  23.682  0.00  0.00    +0.017 C 
BRANCH  17  20
ATOM      2  O   UNL     1      -5.622   2.663  27.052  0.00  0.00    -0.276 OA
ATOM      5  N   UNL     1      -4.007   3.199  25.476  0.00  0.00    -0.312 N 
ATOM     20  C   UNL     1      -5.121   2.515  25.940  0.00  0.00    +0.216 C 
ATOM     35  H   UNL     1      -3.649   2.999  24.548  0.00  0.00    +0.149 HD
BRANCH   5  22
ATOM     22  C   UNL     1      -3.303   4.179  26.274  0.00  0.00    +0.073 C 
ATOM     25  C   UNL     1      -2.148   3.533  27.046  0.00  0.00    +0.022 C 
ATOM     26  C   UNL     1      -2.809   5.343  25.407  0.00  0.00    +0.022 C 
ATOM     27  C   UNL     1      -0.985   3.137  26.137  0.00  0.00    +0.002 C 
ATOM     28  C   UNL     1      -1.645   4.944  24.500  0.00  0.00    +0.002 C 
ATOM     29  C   UNL     1      -0.504   4.314  25.293  0.00  0.00    +0.000 C 
ENDBRANCH   5  22
ENDBRANCH  17  20
ENDBRANCH  11  17
TORSDOF 7
ENDMDL
