MODEL 1
REMARK VINA RESULT:       7.7      0.000      0.000
REMARK  Name = 45783832
REMARK  4 active torsions:
REMARK  status: ('A' for Active; 'I' for Inactive)
REMARK    1  A    between atoms: N_3  and  C_9
REMARK    2  A    between atoms: C_10  and  C_18
REMARK    3  A    between atoms: C_19  and  C_25
REMARK    4  A    between atoms: C_20  and  C_26
REMARK                            x       y       z     vdW  Elec       q    Type
REMARK                         _______ _______ _______ _____ _____    ______ ____
ROOT
ATOM      1  O   UNL     1      -0.918  -1.552  25.750  0.00  0.00    -0.336 OA
ATOM      5  N   UNL     1      -1.068  -0.939  23.602  0.00  0.00    -0.190 NA
ATOM      7  N   UNL     1       0.391  -1.288  25.329  0.00  0.00    -0.056 NA
ATOM     18  C   UNL     1      -1.714  -1.323  24.673  0.00  0.00    +0.245 A 
ATOM     20  C   UNL     1       0.220  -0.932  24.051  0.00  0.00    +0.202 A 
ENDROOT
BRANCH  20  26
ATOM      6  N   UNL     1       4.927  -0.299  23.308  0.00  0.00    -0.315 N 
ATOM      8  N   UNL     1       3.448   0.145  21.539  0.00  0.00    -0.240 NA
ATOM     21  C   UNL     1       6.787  -0.887  24.622  0.00  0.00    +0.020 C 
ATOM     22  C   UNL     1       7.224   0.127  23.579  0.00  0.00    +0.020 C 
ATOM     23  C   UNL     1       5.272  -0.705  24.669  0.00  0.00    +0.106 C 
ATOM     24  C   UNL     1       6.115   0.048  22.532  0.00  0.00    +0.106 C 
ATOM     26  C   UNL     1       1.314  -0.566  23.199  0.00  0.00    +0.027 A 
ATOM     27  C   UNL     1       3.640  -0.250  22.818  0.00  0.00    +0.122 A 
ATOM     28  C   UNL     1       2.618  -0.612  23.680  0.00  0.00    +0.055 A 
ATOM     29  C   UNL     1       1.075  -0.165  21.889  0.00  0.00    +0.031 A 
ATOM     30  C   UNL     1       2.167   0.177  21.107  0.00  0.00    +0.113 A 
ENDBRANCH  20  26
BRANCH  18  10
ATOM      3  N   UNL     1      -4.004  -1.040  23.741  0.00  0.00    -0.288 NA
ATOM     10  C   UNL     1      -3.199  -1.541  24.873  0.00  0.00    +0.146 C 
ATOM     11  C   UNL     1      -5.203  -1.874  23.685  0.00  0.00    +0.085 C 
ATOM     12  C   UNL     1      -3.572  -3.030  24.989  0.00  0.00    +0.030 C 
ATOM     15  C   UNL     1      -4.634  -3.258  23.922  0.00  0.00    +0.017 C 
BRANCH   3   9
ATOM      2  O   UNL     1      -2.080   4.685  24.897  0.00  0.00    -0.276 OA
ATOM      4  N   UNL     1      -3.712   3.032  24.835  0.00  0.00    -0.302 N 
ATOM      9  C   UNL     1      -4.327   0.381  23.848  0.00  0.00    +0.060 C 
ATOM     13  C   UNL     1      -4.546   0.761  25.319  0.00  0.00    +0.038 C 
ATOM     14  C   UNL     1      -3.202   1.226  23.238  0.00  0.00    +0.038 C 
ATOM     16  C   UNL     1      -4.792   2.263  25.466  0.00  0.00    +0.109 C 
ATOM     17  C   UNL     1      -3.476   2.717  23.425  0.00  0.00    +0.109 C 
ATOM     19  C   UNL     1      -2.960   4.027  25.460  0.00  0.00    +0.212 C 
ATOM     25  C   UNL     1      -3.261   4.291  26.914  0.00  0.00    +0.109 C 
ENDBRANCH   3   9
ENDBRANCH  18  10
TORSDOF 3
ENDMDL
MODEL 2
REMARK VINA RESULT:       8.0      1.611      4.227
REMARK  Name = 45783832
REMARK  4 active torsions:
REMARK  status: ('A' for Active; 'I' for Inactive)
REMARK    1  A    between atoms: N_3  and  C_9
REMARK    2  A    between atoms: C_10  and  C_18
REMARK    3  A    between atoms: C_19  and  C_25
REMARK    4  A    between atoms: C_20  and  C_26
REMARK                            x       y       z     vdW  Elec       q    Type
REMARK                         _______ _______ _______ _____ _____    ______ ____
ROOT
ATOM      1  O   UNL     1      -1.070   3.265  24.619  0.00  0.00    -0.336 OA
ATOM      5  N   UNL     1      -1.457   1.478  23.325  0.00  0.00    -0.190 NA
ATOM      7  N   UNL     1       0.188   2.755  24.274  0.00  0.00    -0.056 NA
ATOM     18  C   UNL     1      -1.982   2.455  24.020  0.00  0.00    +0.245 A 
ATOM     20  C   UNL     1      -0.124   1.702  23.510  0.00  0.00    +0.202 A 
ENDROOT
BRANCH  20  26
ATOM      6  N   UNL     1       4.416   0.150  23.205  0.00  0.00    -0.315 N 
ATOM      8  N   UNL     1       2.814  -0.795  21.771  0.00  0.00    -0.240 NA
ATOM     21  C   UNL     1       6.275   0.543  24.590  0.00  0.00    +0.020 C 
ATOM     22  C   UNL     1       6.762  -0.012  23.263  0.00  0.00    +0.020 C 
ATOM     23  C   UNL     1       4.872   1.050  24.263  0.00  0.00    +0.106 C 
ATOM     24  C   UNL     1       5.510  -0.663  22.680  0.00  0.00    +0.106 C 
ATOM     26  C   UNL     1       0.872   0.856  22.920  0.00  0.00    +0.027 A 
ATOM     27  C   UNL     1       3.114   0.078  22.759  0.00  0.00    +0.122 A 
ATOM     28  C   UNL     1       2.189   0.917  23.360  0.00  0.00    +0.055 A 
ATOM     29  C   UNL     1       0.524  -0.029  21.905  0.00  0.00    +0.031 A 
ATOM     30  C   UNL     1       1.524  -0.826  21.369  0.00  0.00    +0.113 A 
ENDBRANCH  20  26
BRANCH  18  10
ATOM      3  N   UNL     1      -3.912   2.427  25.591  0.00  0.00    -0.288 NA
ATOM     10  C   UNL     1      -3.440   2.800  24.243  0.00  0.00    +0.146 C 
ATOM     11  C   UNL     1      -4.976   3.370  25.932  0.00  0.00    +0.085 C 
ATOM     12  C   UNL     1      -3.716   4.312  24.137  0.00  0.00    +0.030 C 
ATOM     15  C   UNL     1      -4.398   4.684  25.445  0.00  0.00    +0.017 C 
BRANCH   3   9
ATOM      2  O   UNL     1      -2.736  -3.520  24.555  0.00  0.00    -0.276 OA
ATOM      4  N   UNL     1      -4.182  -1.720  24.820  0.00  0.00    -0.302 N 
ATOM      9  C   UNL     1      -4.360   1.038  25.680  0.00  0.00    +0.060 C 
ATOM     13  C   UNL     1      -4.925   0.580  24.329  0.00  0.00    +0.038 C 
ATOM     14  C   UNL     1      -3.196   0.136  26.107  0.00  0.00    +0.038 C 
ATOM     16  C   UNL     1      -5.313  -0.898  24.370  0.00  0.00    +0.109 C 
ATOM     17  C   UNL     1      -3.618  -1.332  26.114  0.00  0.00    +0.109 C 
ATOM     19  C   UNL     1      -3.665  -2.822  24.139  0.00  0.00    +0.212 C 
ATOM     25  C   UNL     1      -4.299  -3.155  22.812  0.00  0.00    +0.109 C 
ENDBRANCH   3   9
ENDBRANCH  18  10
TORSDOF 3
ENDMDL
MODEL 3
REMARK VINA RESULT:       9.0      1.007      1.232
REMARK  Name = 45783832
REMARK  4 active torsions:
REMARK  status: ('A' for Active; 'I' for Inactive)
REMARK    1  A    between atoms: N_3  and  C_9
REMARK    2  A    between atoms: C_10  and  C_18
REMARK    3  A    between atoms: C_19  and  C_25
REMARK    4  A    between atoms: C_20  and  C_26
REMARK                            x       y       z     vdW  Elec       q    Type
REMARK                         _______ _______ _______ _____ _____    ______ ____
ROOT
ATOM      1  O   UNL     1      -0.767  -1.884  25.670  0.00  0.00    -0.336 OA
ATOM      5  N   UNL     1      -0.934  -0.644  23.814  0.00  0.00    -0.190 NA
ATOM      7  N   UNL     1       0.535  -1.760  25.167  0.00  0.00    -0.056 NA
ATOM     18  C   UNL     1      -1.569  -1.199  24.815  0.00  0.00    +0.245 A 
ATOM     20  C   UNL     1       0.353  -1.015  24.072  0.00  0.00    +0.202 A 
ENDROOT
BRANCH  20  26
ATOM      6  N   UNL     1       5.047  -0.324  23.296  0.00  0.00    -0.315 N 
ATOM      8  N   UNL     1       3.548   0.128  21.546  0.00  0.00    -0.240 NA
ATOM     21  C   UNL     1       6.924  -0.911  24.585  0.00  0.00    +0.020 C 
ATOM     22  C   UNL     1       7.342   0.121  23.552  0.00  0.00    +0.020 C 
ATOM     23  C   UNL     1       5.408  -0.746  24.648  0.00  0.00    +0.106 C 
ATOM     24  C   UNL     1       6.225   0.045  22.514  0.00  0.00    +0.106 C 
ATOM     26  C   UNL     1       1.436  -0.627  23.215  0.00  0.00    +0.027 A 
ATOM     27  C   UNL     1       3.755  -0.282  22.818  0.00  0.00    +0.122 A 
ATOM     28  C   UNL     1       2.744  -0.666  23.684  0.00  0.00    +0.055 A 
ATOM     29  C   UNL     1       1.181  -0.211  21.913  0.00  0.00    +0.031 A 
ATOM     30  C   UNL     1       2.263   0.152  21.126  0.00  0.00    +0.113 A 
ENDBRANCH  20  26
BRANCH  18  10
ATOM      3  N   UNL     1      -3.781  -0.136  24.402  0.00  0.00    -0.288 NA
ATOM     10  C   UNL     1      -3.047  -1.181  25.144  0.00  0.00    +0.146 C 
ATOM     11  C   UNL     1      -5.146  -0.632  24.231  0.00  0.00    +0.085 C 
ATOM     12  C   UNL     1      -3.756  -2.496  24.770  0.00  0.00    +0.030 C 
ATOM     15  C   UNL     1      -4.909  -2.083  23.866  0.00  0.00    +0.017 C 
BRANCH   3   9
ATOM      2  O   UNL     1      -2.939   5.937  23.930  0.00  0.00    -0.276 OA
ATOM      4  N   UNL     1      -2.907   3.938  25.113  0.00  0.00    -0.302 N 
ATOM      9  C   UNL     1      -3.748   1.168  25.060  0.00  0.00    +0.060 C 
ATOM     13  C   UNL     1      -2.300   1.561  25.378  0.00  0.00    +0.038 C 
ATOM     14  C   UNL     1      -4.407   2.226  24.166  0.00  0.00    +0.038 C 
ATOM     16  C   UNL     1      -2.233   2.964  25.982  0.00  0.00    +0.109 C 
ATOM     17  C   UNL     1      -4.299   3.615  24.795  0.00  0.00    +0.109 C 
ATOM     19  C   UNL     1      -2.339   5.116  24.630  0.00  0.00    +0.212 C 
ATOM     25  C   UNL     1      -0.901   5.376  25.000  0.00  0.00    +0.109 C 
ENDBRANCH   3   9
ENDBRANCH  18  10
TORSDOF 3
ENDMDL
MODEL 4
REMARK VINA RESULT:       9.4      2.322      7.851
REMARK  Name = 45783832
REMARK  4 active torsions:
REMARK  status: ('A' for Active; 'I' for Inactive)
REMARK    1  A    between atoms: N_3  and  C_9
REMARK    2  A    between atoms: C_10  and  C_18
REMARK    3  A    between atoms: C_19  and  C_25
REMARK    4  A    between atoms: C_20  and  C_26
REMARK                            x       y       z     vdW  Elec       q    Type
REMARK                         _______ _______ _______ _____ _____    ______ ____
ROOT
ATOM      1  O   UNL     1       1.592   3.181  23.352  0.00  0.00    -0.336 OA
ATOM      5  N   UNL     1       0.007   2.017  24.424  0.00  0.00    -0.190 NA
ATOM      7  N   UNL     1       0.582   4.099  23.668  0.00  0.00    -0.056 NA
ATOM     18  C   UNL     1       1.174   1.981  23.832  0.00  0.00    +0.245 A 
ATOM     20  C   UNL     1      -0.318   3.336  24.298  0.00  0.00    +0.202 A 
ENDROOT
BRANCH  20  26
ATOM      6  N   UNL     1      -5.004   2.861  25.262  0.00  0.00    -0.315 N 
ATOM      8  N   UNL     1      -3.950   4.885  25.815  0.00  0.00    -0.240 NA
ATOM     21  C   UNL     1      -6.408   0.976  25.189  0.00  0.00    +0.020 C 
ATOM     22  C   UNL     1      -7.268   2.227  25.230  0.00  0.00    +0.020 C 
ATOM     23  C   UNL     1      -5.051   1.502  24.727  0.00  0.00    +0.106 C 
ATOM     24  C   UNL     1      -6.309   3.291  25.758  0.00  0.00    +0.106 C 
ATOM     26  C   UNL     1      -1.549   3.862  24.812  0.00  0.00    +0.027 A 
ATOM     27  C   UNL     1      -3.867   3.640  25.295  0.00  0.00    +0.122 A 
ATOM     28  C   UNL     1      -2.703   3.087  24.786  0.00  0.00    +0.055 A 
ATOM     29  C   UNL     1      -1.593   5.148  25.339  0.00  0.00    +0.031 A 
ATOM     30  C   UNL     1      -2.807   5.608  25.824  0.00  0.00    +0.113 A 
ENDBRANCH  20  26
BRANCH  18  10
ATOM      3  N   UNL     1       1.486  -0.268  22.814  0.00  0.00    -0.288 NA
ATOM     10  C   UNL     1       2.105   0.806  23.616  0.00  0.00    +0.146 C 
ATOM     11  C   UNL     1       2.577  -0.935  22.104  0.00  0.00    +0.085 C 
ATOM     12  C   UNL     1       3.377   1.191  22.838  0.00  0.00    +0.030 C 
ATOM     15  C   UNL     1       3.420   0.239  21.650  0.00  0.00    +0.017 C 
BRANCH   3   9
ATOM      2  O   UNL     1      -4.043  -2.527  24.278  0.00  0.00    -0.276 OA
ATOM      4  N   UNL     1      -1.829  -2.018  24.767  0.00  0.00    -0.302 N 
ATOM      9  C   UNL     1       0.699  -1.204  23.615  0.00  0.00    +0.060 C 
ATOM     13  C   UNL     1       0.101  -0.482  24.830  0.00  0.00    +0.038 C 
ATOM     14  C   UNL     1      -0.412  -1.825  22.759  0.00  0.00    +0.038 C 
ATOM     16  C   UNL     1      -0.805  -1.418  25.632  0.00  0.00    +0.109 C 
ATOM     17  C   UNL     1      -1.306  -2.733  23.601  0.00  0.00    +0.109 C 
ATOM     19  C   UNL     1      -3.203  -1.984  25.002  0.00  0.00    +0.212 C 
ATOM     25  C   UNL     1      -3.663  -1.225  26.221  0.00  0.00    +0.109 C 
ENDBRANCH   3   9
ENDBRANCH  18  10
TORSDOF 3
ENDMDL
