MODEL 1
REMARK VINA RESULT:       4.9      0.000      0.000
REMARK  Name = 51136653
REMARK  9 active torsions:
REMARK  status: ('A' for Active; 'I' for Inactive)
REMARK    1  A    between atoms: O_2  and  C_18
REMARK    2  A    between atoms: O_4  and  C_26
REMARK    3  A    between atoms: O_4  and  C_32
REMARK    4  A    between atoms: C_8  and  C_13
REMARK    5  A    between atoms: C_9  and  C_14
REMARK    6  A    between atoms: C_13  and  C_15
REMARK    7  A    between atoms: C_14  and  C_18
REMARK    8  A    between atoms: C_16  and  C_22
REMARK    9  A    between atoms: C_31  and  C_33
REMARK                            x       y       z     vdW  Elec       q    Type
REMARK                         _______ _______ _______ _____ _____    ______ ____
ROOT
ATOM      1  O   UNL     1      -2.960  -2.933  23.456  0.00  0.00    -0.270 OA
ATOM      5  N   UNL     1      -1.200  -1.641  24.296  0.00  0.00    -0.297 N 
ATOM      8  C   UNL     1       0.162   0.438  24.233  0.00  0.00    +0.016 C 
ATOM      9  C   UNL     1       1.287  -0.368  23.535  0.00  0.00    +0.006 C 
ATOM     10  C   UNL     1       0.725  -1.572  22.760  0.00  0.00    +0.023 C 
ATOM     11  C   UNL     1      -0.705  -0.506  25.088  0.00  0.00    +0.112 C 
ATOM     12  C   UNL     1      -0.159  -2.439  23.651  0.00  0.00    +0.108 C 
ATOM     16  C   UNL     1      -2.542  -1.987  24.122  0.00  0.00    +0.247 C 
ENDROOT
BRANCH  16  22
ATOM     22  C   UNL     1      -3.558  -1.162  24.784  0.00  0.00    +0.037 A 
ATOM     27  C   UNL     1      -3.389  -0.781  26.115  0.00  0.00    +0.014 A 
ATOM     28  C   UNL     1      -4.694  -0.758  24.082  0.00  0.00    +0.014 A 
ATOM     29  C   UNL     1      -4.355   0.005  26.744  0.00  0.00    +0.019 A 
ATOM     30  C   UNL     1      -5.660   0.027  24.711  0.00  0.00    +0.019 A 
ATOM     31  C   UNL     1      -5.490   0.409  26.042  0.00  0.00    +0.052 A 
BRANCH  31  33
ATOM      7  N   UNL     1      -7.285   1.866  27.209  0.00  0.00    -0.191 NA
ATOM     33  C   UNL     1      -6.480   1.212  26.686  0.00  0.00    +0.099 C 
ENDBRANCH  31  33
ENDBRANCH  16  22
BRANCH   8  13
ATOM     13  C   UNL     1      -0.718   1.241  23.268  0.00  0.00    +0.061 C 
BRANCH  13  15
ATOM      6  N   UNL     1       0.075   3.409  23.929  0.00  0.00    -0.287 NA
ATOM     15  C   UNL     1      -0.948   2.629  23.819  0.00  0.00    +0.044 C 
ATOM     17  C   UNL     1      -2.326   3.024  24.208  0.00  0.00    -0.001 A 
ATOM     19  C   UNL     1      -2.448   4.133  25.054  0.00  0.00    -0.033 A 
ATOM     20  C   UNL     1      -1.202   4.828  25.515  0.00  0.00    +0.059 C 
ATOM     21  C   UNL     1      -0.158   4.777  24.407  0.00  0.00    +0.146 C 
ATOM     23  C   UNL     1      -3.460   2.332  23.779  0.00  0.00    +0.013 A 
ATOM     24  C   UNL     1      -3.715   4.532  25.491  0.00  0.00    +0.050 A 
ATOM     25  C   UNL     1      -4.721   2.747  24.208  0.00  0.00    +0.046 A 
ATOM     26  C   UNL     1      -4.849   3.841  25.064  0.00  0.00    +0.120 A 
BRANCH  26   4
ATOM      4  O   UNL     1      -6.083   4.236  25.483  0.00  0.00    -0.495 OA
ATOM     32  C   UNL     1      -6.371   5.632  25.426  0.00  0.00    +0.277 C 
ENDBRANCH  26   4
ENDBRANCH  13  15
ENDBRANCH   8  13
BRANCH   9  14
ATOM     14  C   UNL     1       2.169   0.491  22.630  0.00  0.00    +0.124 C 
BRANCH  14  18
ATOM      3  O   UNL     1       4.492   1.200  22.832  0.00  0.00    -0.251 OA
ATOM     18  C   UNL     1       3.625   0.351  22.977  0.00  0.00    +0.305 C 
BRANCH  18   2
ATOM      2  O   UNL     1       3.857  -0.883  23.493  0.00  0.00    -0.481 OA
ATOM     34  H   UNL     1       3.982  -0.855  24.466  0.00  0.00    +0.295 HD
ENDBRANCH  18   2
ENDBRANCH  14  18
ENDBRANCH   9  14
TORSDOF 8
ENDMDL
MODEL 2
REMARK VINA RESULT:       5.7      2.077      6.153
REMARK  Name = 51136653
REMARK  9 active torsions:
REMARK  status: ('A' for Active; 'I' for Inactive)
REMARK    1  A    between atoms: O_2  and  C_18
REMARK    2  A    between atoms: O_4  and  C_26
REMARK    3  A    between atoms: O_4  and  C_32
REMARK    4  A    between atoms: C_8  and  C_13
REMARK    5  A    between atoms: C_9  and  C_14
REMARK    6  A    between atoms: C_13  and  C_15
REMARK    7  A    between atoms: C_14  and  C_18
REMARK    8  A    between atoms: C_16  and  C_22
REMARK    9  A    between atoms: C_31  and  C_33
REMARK                            x       y       z     vdW  Elec       q    Type
REMARK                         _______ _______ _______ _____ _____    ______ ____
ROOT
ATOM      1  O   UNL     1      -5.896   1.180  26.655  0.00  0.00    -0.270 OA
ATOM      5  N   UNL     1      -4.605   2.323  25.074  0.00  0.00    -0.297 N 
ATOM      8  C   UNL     1      -2.387   3.111  24.274  0.00  0.00    +0.016 C 
ATOM      9  C   UNL     1      -2.755   4.531  24.776  0.00  0.00    +0.006 C 
ATOM     10  C   UNL     1      -3.772   4.478  25.929  0.00  0.00    +0.023 C 
ATOM     11  C   UNL     1      -3.669   2.325  23.940  0.00  0.00    +0.112 C 
ATOM     12  C   UNL     1      -4.995   3.649  25.550  0.00  0.00    +0.108 C 
ATOM     16  C   UNL     1      -5.117   1.186  25.703  0.00  0.00    +0.247 C 
ENDROOT
BRANCH  16  22
ATOM     22  C   UNL     1      -4.702  -0.128  25.198  0.00  0.00    +0.037 A 
ATOM     27  C   UNL     1      -3.990  -0.999  26.021  0.00  0.00    +0.014 A 
ATOM     28  C   UNL     1      -5.021  -0.505  23.893  0.00  0.00    +0.014 A 
ATOM     29  C   UNL     1      -3.597  -2.249  25.541  0.00  0.00    +0.019 A 
ATOM     30  C   UNL     1      -4.629  -1.753  23.413  0.00  0.00    +0.019 A 
ATOM     31  C   UNL     1      -3.917  -2.626  24.237  0.00  0.00    +0.052 A 
BRANCH  31  33
ATOM      7  N   UNL     1      -3.186  -4.944  23.343  0.00  0.00    -0.191 NA
ATOM     33  C   UNL     1      -3.514  -3.905  23.744  0.00  0.00    +0.099 C 
ENDBRANCH  31  33
ENDBRANCH  16  22
BRANCH   8  13
ATOM     13  C   UNL     1      -1.512   2.314  25.248  0.00  0.00    +0.061 C 
BRANCH  13  15
ATOM      6  N   UNL     1      -1.829   0.035  24.560  0.00  0.00    -0.287 NA
ATOM     15  C   UNL     1      -1.027   1.048  24.583  0.00  0.00    +0.044 C 
ATOM     17  C   UNL     1       0.339   1.025  23.999  0.00  0.00    -0.001 A 
ATOM     19  C   UNL     1       0.896  -0.235  23.748  0.00  0.00    -0.033 A 
ATOM     20  C   UNL     1       0.098  -1.457  24.092  0.00  0.00    +0.059 C 
ATOM     21  C   UNL     1      -1.381  -1.174  23.861  0.00  0.00    +0.146 C 
ATOM     23  C   UNL     1       1.060   2.188  23.719  0.00  0.00    +0.013 A 
ATOM     24  C   UNL     1       2.194  -0.326  23.236  0.00  0.00    +0.050 A 
ATOM     25  C   UNL     1       2.349   2.086  23.194  0.00  0.00    +0.046 A 
ATOM     26  C   UNL     1       2.916   0.834  22.956  0.00  0.00    +0.120 A 
BRANCH  26   4
ATOM      4  O   UNL     1       4.177   0.744  22.450  0.00  0.00    -0.495 OA
ATOM     32  C   UNL     1       5.173   0.166  23.293  0.00  0.00    +0.277 C 
ENDBRANCH  26   4
ENDBRANCH  13  15
ENDBRANCH   8  13
BRANCH   9  14
ATOM     14  C   UNL     1      -1.536   5.363  25.171  0.00  0.00    +0.124 C 
BRANCH  14  18
ATOM      3  O   UNL     1       0.034   5.020  23.339  0.00  0.00    -0.251 OA
ATOM     18  C   UNL     1      -0.282   4.863  24.508  0.00  0.00    +0.305 C 
BRANCH  18   2
ATOM      2  O   UNL     1       0.478   4.193  25.413  0.00  0.00    -0.481 OA
ATOM     34  H   UNL     1       0.010   4.077  26.268  0.00  0.00    +0.295 HD
ENDBRANCH  18   2
ENDBRANCH  14  18
ENDBRANCH   9  14
TORSDOF 8
ENDMDL
MODEL 3
REMARK VINA RESULT:       6.1      2.452      6.487
REMARK  Name = 51136653
REMARK  9 active torsions:
REMARK  status: ('A' for Active; 'I' for Inactive)
REMARK    1  A    between atoms: O_2  and  C_18
REMARK    2  A    between atoms: O_4  and  C_26
REMARK    3  A    between atoms: O_4  and  C_32
REMARK    4  A    between atoms: C_8  and  C_13
REMARK    5  A    between atoms: C_9  and  C_14
REMARK    6  A    between atoms: C_13  and  C_15
REMARK    7  A    between atoms: C_14  and  C_18
REMARK    8  A    between atoms: C_16  and  C_22
REMARK    9  A    between atoms: C_31  and  C_33
REMARK                            x       y       z     vdW  Elec       q    Type
REMARK                         _______ _______ _______ _____ _____    ______ ____
ROOT
ATOM      1  O   UNL     1      -1.967  -2.633  24.081  0.00  0.00    -0.270 OA
ATOM      5  N   UNL     1      -3.125  -0.655  23.610  0.00  0.00    -0.297 N 
ATOM      8  C   UNL     1      -3.887   1.606  24.303  0.00  0.00    +0.016 C 
ATOM      9  C   UNL     1      -5.300   1.015  24.539  0.00  0.00    +0.006 C 
ATOM     10  C   UNL     1      -5.238  -0.487  24.866  0.00  0.00    +0.023 C 
ATOM     11  C   UNL     1      -3.138   0.770  23.249  0.00  0.00    +0.112 C 
ATOM     12  C   UNL     1      -4.445  -1.251  23.808  0.00  0.00    +0.108 C 
ATOM     16  C   UNL     1      -1.982  -1.441  23.775  0.00  0.00    +0.247 C 
ENDROOT
BRANCH  16  22
ATOM     22  C   UNL     1      -0.674  -0.810  23.568  0.00  0.00    +0.037 A 
ATOM     27  C   UNL     1      -0.164   0.069  24.524  0.00  0.00    +0.014 A 
ATOM     28  C   UNL     1       0.060  -1.088  22.414  0.00  0.00    +0.014 A 
ATOM     29  C   UNL     1       1.081   0.667  24.327  0.00  0.00    +0.019 A 
ATOM     30  C   UNL     1       1.303  -0.489  22.217  0.00  0.00    +0.019 A 
ATOM     31  C   UNL     1       1.814   0.389  23.174  0.00  0.00    +0.052 A 
BRANCH  31  33
ATOM      7  N   UNL     1       4.122   1.503  22.807  0.00  0.00    -0.191 NA
ATOM     33  C   UNL     1       3.088   1.003  22.971  0.00  0.00    +0.099 C 
ENDBRANCH  31  33
ENDBRANCH  16  22
BRANCH   8  13
ATOM     13  C   UNL     1      -3.046   1.735  25.578  0.00  0.00    +0.061 C 
BRANCH  13  15
ATOM      6  N   UNL     1      -2.376   3.824  24.600  0.00  0.00    -0.287 NA
ATOM     15  C   UNL     1      -2.081   2.889  25.442  0.00  0.00    +0.044 C 
ATOM     17  C   UNL     1      -0.847   2.892  26.269  0.00  0.00    -0.001 A 
ATOM     19  C   UNL     1       0.188   3.739  25.855  0.00  0.00    -0.033 A 
ATOM     20  C   UNL     1      -0.007   4.563  24.617  0.00  0.00    +0.059 C 
ATOM     21  C   UNL     1      -1.470   4.974  24.512  0.00  0.00    +0.146 C 
ATOM     23  C   UNL     1      -0.696   2.088  27.401  0.00  0.00    +0.013 A 
ATOM     24  C   UNL     1       1.391   3.758  26.567  0.00  0.00    +0.050 A 
ATOM     25  C   UNL     1       0.503   2.126  28.114  0.00  0.00    +0.046 A 
ATOM     26  C   UNL     1       1.545   2.955  27.697  0.00  0.00    +0.120 A 
BRANCH  26   4
ATOM      4  O   UNL     1       2.714   2.981  28.395  0.00  0.00    -0.495 OA
ATOM     32  C   UNL     1       2.725   2.330  29.664  0.00  0.00    +0.277 C 
ENDBRANCH  26   4
ENDBRANCH  13  15
ENDBRANCH   8  13
BRANCH   9  14
ATOM     14  C   UNL     1      -6.096   1.765  25.606  0.00  0.00    +0.124 C 
BRANCH  14  18
ATOM      3  O   UNL     1      -5.785   4.060  24.849  0.00  0.00    -0.251 OA
ATOM     18  C   UNL     1      -5.668   3.203  25.711  0.00  0.00    +0.305 C 
BRANCH  18   2
ATOM      2  O   UNL     1      -5.119   3.430  26.932  0.00  0.00    -0.481 OA
ATOM     34  H   UNL     1      -5.478   4.244  27.348  0.00  0.00    +0.295 HD
ENDBRANCH  18   2
ENDBRANCH  14  18
ENDBRANCH   9  14
TORSDOF 8
ENDMDL
MODEL 4
REMARK VINA RESULT:       6.6      1.718      5.074
REMARK  Name = 51136653
REMARK  9 active torsions:
REMARK  status: ('A' for Active; 'I' for Inactive)
REMARK    1  A    between atoms: O_2  and  C_18
REMARK    2  A    between atoms: O_4  and  C_26
REMARK    3  A    between atoms: O_4  and  C_32
REMARK    4  A    between atoms: C_8  and  C_13
REMARK    5  A    between atoms: C_9  and  C_14
REMARK    6  A    between atoms: C_13  and  C_15
REMARK    7  A    between atoms: C_14  and  C_18
REMARK    8  A    between atoms: C_16  and  C_22
REMARK    9  A    between atoms: C_31  and  C_33
REMARK                            x       y       z     vdW  Elec       q    Type
REMARK                         _______ _______ _______ _____ _____    ______ ____
ROOT
ATOM      1  O   UNL     1      -0.938   5.235  25.092  0.00  0.00    -0.270 OA
ATOM      5  N   UNL     1      -0.636   3.358  23.728  0.00  0.00    -0.297 N 
ATOM      8  C   UNL     1      -0.110   0.942  23.482  0.00  0.00    +0.016 C 
ATOM      9  C   UNL     1       1.304   1.340  22.986  0.00  0.00    +0.006 C 
ATOM     10  C   UNL     1       1.733   2.710  23.541  0.00  0.00    +0.023 C 
ATOM     11  C   UNL     1      -1.108   2.076  23.186  0.00  0.00    +0.112 C 
ATOM     12  C   UNL     1       0.681   3.777  23.253  0.00  0.00    +0.108 C 
ATOM     16  C   UNL     1      -1.332   4.164  24.632  0.00  0.00    +0.247 C 
ENDROOT
BRANCH  16  22
ATOM     22  C   UNL     1      -2.651   3.711  25.086  0.00  0.00    +0.037 A 
ATOM     27  C   UNL     1      -3.535   3.120  24.183  0.00  0.00    +0.014 A 
ATOM     28  C   UNL     1      -3.022   3.871  26.422  0.00  0.00    +0.014 A 
ATOM     29  C   UNL     1      -4.789   2.687  24.616  0.00  0.00    +0.019 A 
ATOM     30  C   UNL     1      -4.275   3.439  26.854  0.00  0.00    +0.019 A 
ATOM     31  C   UNL     1      -5.159   2.847  25.951  0.00  0.00    +0.052 A 
BRANCH  31  33
ATOM      7  N   UNL     1      -7.487   2.046  26.753  0.00  0.00    -0.191 NA
ATOM     33  C   UNL     1      -6.444   2.405  26.394  0.00  0.00    +0.099 C 
ENDBRANCH  31  33
ENDBRANCH  16  22
BRANCH   8  13
ATOM     13  C   UNL     1      -0.163   0.559  24.966  0.00  0.00    +0.061 C 
BRANCH  13  15
ATOM      6  N   UNL     1       0.343  -1.716  25.546  0.00  0.00    -0.287 NA
ATOM     15  C   UNL     1      -0.552  -0.894  25.107  0.00  0.00    +0.044 C 
ATOM     17  C   UNL     1      -1.929  -1.305  24.731  0.00  0.00    -0.001 A 
ATOM     19  C   UNL     1      -2.139  -2.671  24.503  0.00  0.00    -0.033 A 
ATOM     20  C   UNL     1      -0.977  -3.610  24.634  0.00  0.00    +0.059 C 
ATOM     21  C   UNL     1      -0.053  -3.116  25.741  0.00  0.00    +0.146 C 
ATOM     23  C   UNL     1      -2.978  -0.394  24.592  0.00  0.00    +0.013 A 
ATOM     24  C   UNL     1      -3.403  -3.118  24.107  0.00  0.00    +0.050 A 
ATOM     25  C   UNL     1      -4.240  -0.852  24.211  0.00  0.00    +0.046 A 
ATOM     26  C   UNL     1      -4.451  -2.209  23.966  0.00  0.00    +0.120 A 
BRANCH  26   4
ATOM      4  O   UNL     1      -5.684  -2.648  23.588  0.00  0.00    -0.495 OA
ATOM     32  C   UNL     1      -5.739  -3.857  22.833  0.00  0.00    +0.277 C 
ENDBRANCH  26   4
ENDBRANCH  13  15
ENDBRANCH   8  13
BRANCH   9  14
ATOM     14  C   UNL     1       2.366   0.282  23.282  0.00  0.00    +0.124 C 
BRANCH  14  18
ATOM      3  O   UNL     1       4.716   0.906  23.444  0.00  0.00    -0.251 OA
ATOM     18  C   UNL     1       3.718   0.694  22.771  0.00  0.00    +0.305 C 
BRANCH  18   2
ATOM      2  O   UNL     1       3.684   0.800  21.418  0.00  0.00    -0.481 OA
ATOM     34  H   UNL     1       3.852  -0.063  20.980  0.00  0.00    +0.295 HD
ENDBRANCH  18   2
ENDBRANCH  14  18
ENDBRANCH   9  14
TORSDOF 8
ENDMDL
MODEL 5
REMARK VINA RESULT:       6.7      2.644      4.778
REMARK  Name = 51136653
REMARK  9 active torsions:
REMARK  status: ('A' for Active; 'I' for Inactive)
REMARK    1  A    between atoms: O_2  and  C_18
REMARK    2  A    between atoms: O_4  and  C_26
REMARK    3  A    between atoms: O_4  and  C_32
REMARK    4  A    between atoms: C_8  and  C_13
REMARK    5  A    between atoms: C_9  and  C_14
REMARK    6  A    between atoms: C_13  and  C_15
REMARK    7  A    between atoms: C_14  and  C_18
REMARK    8  A    between atoms: C_16  and  C_22
REMARK    9  A    between atoms: C_31  and  C_33
REMARK                            x       y       z     vdW  Elec       q    Type
REMARK                         _______ _______ _______ _____ _____    ______ ____
ROOT
ATOM      1  O   UNL     1      -0.206   0.446  27.667  0.00  0.00    -0.270 OA
ATOM      5  N   UNL     1      -0.299  -0.415  25.493  0.00  0.00    -0.297 N 
ATOM      8  C   UNL     1      -1.629  -1.141  23.523  0.00  0.00    +0.016 C 
ATOM      9  C   UNL     1      -1.356  -2.611  23.930  0.00  0.00    +0.006 C 
ATOM     10  C   UNL     1      -1.104  -2.742  25.443  0.00  0.00    +0.023 C 
ATOM     11  C   UNL     1      -0.500  -0.233  24.049  0.00  0.00    +0.112 C 
ATOM     12  C   UNL     1      -0.008  -1.787  25.905  0.00  0.00    +0.108 C 
ATOM     16  C   UNL     1      -0.370   0.595  26.456  0.00  0.00    +0.247 C 
ENDROOT
BRANCH  16  22
ATOM     22  C   UNL     1      -0.664   1.959  26.005  0.00  0.00    +0.037 A 
ATOM     27  C   UNL     1      -1.683   2.691  26.614  0.00  0.00    +0.014 A 
ATOM     28  C   UNL     1       0.077   2.525  24.967  0.00  0.00    +0.014 A 
ATOM     29  C   UNL     1      -1.961   3.989  26.186  0.00  0.00    +0.019 A 
ATOM     30  C   UNL     1      -0.201   3.822  24.539  0.00  0.00    +0.019 A 
ATOM     31  C   UNL     1      -1.220   4.555  25.149  0.00  0.00    +0.052 A 
BRANCH  31  33
ATOM      7  N   UNL     1      -1.736   6.964  24.352  0.00  0.00    -0.191 NA
ATOM     33  C   UNL     1      -1.505   5.884  24.709  0.00  0.00    +0.099 C 
ENDBRANCH  31  33
ENDBRANCH  16  22
BRANCH   8  13
ATOM     13  C   UNL     1      -2.994  -0.612  23.979  0.00  0.00    +0.061 C 
BRANCH  13  15
ATOM      6  N   UNL     1      -2.711   0.992  22.214  0.00  0.00    -0.287 NA
ATOM     15  C   UNL     1      -3.252   0.742  23.361  0.00  0.00    +0.044 C 
ATOM     17  C   UNL     1      -4.101   1.714  24.096  0.00  0.00    -0.001 A 
ATOM     19  C   UNL     1      -4.007   3.055  23.705  0.00  0.00    -0.033 A 
ATOM     20  C   UNL     1      -3.060   3.419  22.600  0.00  0.00    +0.059 C 
ATOM     21  C   UNL     1      -3.012   2.283  21.586  0.00  0.00    +0.146 C 
ATOM     23  C   UNL     1      -4.950   1.337  25.140  0.00  0.00    +0.013 A 
ATOM     24  C   UNL     1      -4.749   4.026  24.384  0.00  0.00    +0.050 A 
ATOM     25  C   UNL     1      -5.698   2.311  25.801  0.00  0.00    +0.046 A 
ATOM     26  C   UNL     1      -5.597   3.652  25.427  0.00  0.00    +0.120 A 
BRANCH  26   4
ATOM      4  O   UNL     1      -6.326   4.597  26.083  0.00  0.00    -0.495 OA
ATOM     32  C   UNL     1      -6.587   5.813  25.384  0.00  0.00    +0.277 C 
ENDBRANCH  26   4
ENDBRANCH  13  15
ENDBRANCH   8  13
BRANCH   9  14
ATOM     14  C   UNL     1      -2.456  -3.573  23.483  0.00  0.00    +0.124 C 
BRANCH  14  18
ATOM      3  O   UNL     1      -4.814  -2.961  23.496  0.00  0.00    -0.251 OA
ATOM     18  C   UNL     1      -3.783  -3.224  24.096  0.00  0.00    +0.305 C 
BRANCH  18   2
ATOM      2  O   UNL     1      -3.682  -3.245  25.451  0.00  0.00    -0.481 OA
ATOM     34  H   UNL     1      -2.772  -3.033  25.752  0.00  0.00    +0.295 HD
ENDBRANCH  18   2
ENDBRANCH  14  18
ENDBRANCH   9  14
TORSDOF 8
ENDMDL
MODEL 6
REMARK VINA RESULT:       6.8      1.763      5.968
REMARK  Name = 51136653
REMARK  9 active torsions:
REMARK  status: ('A' for Active; 'I' for Inactive)
REMARK    1  A    between atoms: O_2  and  C_18
REMARK    2  A    between atoms: O_4  and  C_26
REMARK    3  A    between atoms: O_4  and  C_32
REMARK    4  A    between atoms: C_8  and  C_13
REMARK    5  A    between atoms: C_9  and  C_14
REMARK    6  A    between atoms: C_13  and  C_15
REMARK    7  A    between atoms: C_14  and  C_18
REMARK    8  A    between atoms: C_16  and  C_22
REMARK    9  A    between atoms: C_31  and  C_33
REMARK                            x       y       z     vdW  Elec       q    Type
REMARK                         _______ _______ _______ _____ _____    ______ ____
ROOT
ATOM      1  O   UNL     1      -6.176   1.781  23.538  0.00  0.00    -0.270 OA
ATOM      5  N   UNL     1      -4.900   0.388  24.919  0.00  0.00    -0.297 N 
ATOM      8  C   UNL     1      -2.860  -0.979  25.296  0.00  0.00    +0.016 C 
ATOM      9  C   UNL     1      -3.716  -2.250  25.063  0.00  0.00    +0.006 C 
ATOM     10  C   UNL     1      -4.931  -1.957  24.166  0.00  0.00    +0.023 C 
ATOM     11  C   UNL     1      -3.752   0.167  25.809  0.00  0.00    +0.112 C 
ATOM     12  C   UNL     1      -5.746  -0.785  24.705  0.00  0.00    +0.108 C 
ATOM     16  C   UNL     1      -5.218   1.593  24.287  0.00  0.00    +0.247 C 
ENDROOT
BRANCH  16  22
ATOM     22  C   UNL     1      -4.347   2.748  24.526  0.00  0.00    +0.037 A 
ATOM     27  C   UNL     1      -4.291   3.331  25.791  0.00  0.00    +0.014 A 
ATOM     28  C   UNL     1      -3.572   3.264  23.486  0.00  0.00    +0.014 A 
ATOM     29  C   UNL     1      -3.461   4.428  26.018  0.00  0.00    +0.019 A 
ATOM     30  C   UNL     1      -2.743   4.361  23.712  0.00  0.00    +0.019 A 
ATOM     31  C   UNL     1      -2.686   4.943  24.979  0.00  0.00    +0.052 A 
BRANCH  31  33
ATOM      7  N   UNL     1      -1.146   6.982  25.398  0.00  0.00    -0.191 NA
ATOM     33  C   UNL     1      -1.837   6.069  25.211  0.00  0.00    +0.099 C 
ENDBRANCH  31  33
ENDBRANCH  16  22
BRANCH   8  13
ATOM     13  C   UNL     1      -2.068  -0.528  24.063  0.00  0.00    +0.061 C 
BRANCH  13  15
ATOM      6  N   UNL     1      -1.412   1.402  25.334  0.00  0.00    -0.287 NA
ATOM     15  C   UNL     1      -1.055   0.520  24.460  0.00  0.00    +0.044 C 
ATOM     17  C   UNL     1       0.289   0.491  23.828  0.00  0.00    -0.001 A 
ATOM     19  C   UNL     1       1.051   1.663  23.912  0.00  0.00    -0.033 A 
ATOM     20  C   UNL     1       0.465   2.854  24.609  0.00  0.00    +0.059 C 
ATOM     21  C   UNL     1      -0.409   2.382  25.764  0.00  0.00    +0.146 C 
ATOM     23  C   UNL     1       0.787  -0.632  23.163  0.00  0.00    +0.013 A 
ATOM     24  C   UNL     1       2.308   1.714  23.302  0.00  0.00    +0.050 A 
ATOM     25  C   UNL     1       2.049  -0.576  22.571  0.00  0.00    +0.046 A 
ATOM     26  C   UNL     1       2.806   0.594  22.637  0.00  0.00    +0.120 A 
BRANCH  26   4
ATOM      4  O   UNL     1       4.034   0.642  22.050  0.00  0.00    -0.495 OA
ATOM     32  C   UNL     1       5.148   0.234  22.844  0.00  0.00    +0.277 C 
ENDBRANCH  26   4
ENDBRANCH  13  15
ENDBRANCH   8  13
BRANCH   9  14
ATOM     14  C   UNL     1      -2.910  -3.425  24.511  0.00  0.00    +0.124 C 
BRANCH  14  18
ATOM      3  O   UNL     1      -0.726  -2.838  25.417  0.00  0.00    -0.251 OA
ATOM     18  C   UNL     1      -1.439  -3.119  24.466  0.00  0.00    +0.305 C 
BRANCH  18   2
ATOM      2  O   UNL     1      -0.993  -3.201  23.186  0.00  0.00    -0.481 OA
ATOM     34  H   UNL     1      -0.112  -2.782  23.079  0.00  0.00    +0.295 HD
ENDBRANCH  18   2
ENDBRANCH  14  18
ENDBRANCH   9  14
TORSDOF 8
ENDMDL
MODEL 7
REMARK VINA RESULT:       7.2      1.759      4.546
REMARK  Name = 51136653
REMARK  9 active torsions:
REMARK  status: ('A' for Active; 'I' for Inactive)
REMARK    1  A    between atoms: O_2  and  C_18
REMARK    2  A    between atoms: O_4  and  C_26
REMARK    3  A    between atoms: O_4  and  C_32
REMARK    4  A    between atoms: C_8  and  C_13
REMARK    5  A    between atoms: C_9  and  C_14
REMARK    6  A    between atoms: C_13  and  C_15
REMARK    7  A    between atoms: C_14  and  C_18
REMARK    8  A    between atoms: C_16  and  C_22
REMARK    9  A    between atoms: C_31  and  C_33
REMARK                            x       y       z     vdW  Elec       q    Type
REMARK                         _______ _______ _______ _____ _____    ______ ____
ROOT
ATOM      1  O   UNL     1       0.583   4.839  24.897  0.00  0.00    -0.270 OA
ATOM      5  N   UNL     1       0.374   2.944  23.541  0.00  0.00    -0.297 N 
ATOM      8  C   UNL     1       0.147   0.480  23.311  0.00  0.00    +0.016 C 
ATOM      9  C   UNL     1       1.641   0.420  22.902  0.00  0.00    +0.006 C 
ATOM     10  C   UNL     1       2.437   1.598  23.491  0.00  0.00    +0.023 C 
ATOM     11  C   UNL     1      -0.436   1.862  22.963  0.00  0.00    +0.112 C 
ATOM     12  C   UNL     1       1.782   2.933  23.148  0.00  0.00    +0.108 C 
ATOM     16  C   UNL     1      -0.093   3.935  24.408  0.00  0.00    +0.247 C 
ENDROOT
BRANCH  16  22
ATOM     22  C   UNL     1      -1.511   3.914  24.779  0.00  0.00    +0.037 A 
ATOM     27  C   UNL     1      -1.880   3.842  26.122  0.00  0.00    +0.014 A 
ATOM     28  C   UNL     1      -2.493   3.965  23.788  0.00  0.00    +0.014 A 
ATOM     29  C   UNL     1      -3.230   3.824  26.475  0.00  0.00    +0.019 A 
ATOM     30  C   UNL     1      -3.841   3.947  24.141  0.00  0.00    +0.019 A 
ATOM     31  C   UNL     1      -4.210   3.877  25.484  0.00  0.00    +0.052 A 
BRANCH  31  33
ATOM      7  N   UNL     1      -6.716   3.840  26.138  0.00  0.00    -0.191 NA
ATOM     33  C   UNL     1      -5.593   3.856  25.845  0.00  0.00    +0.099 C 
ENDBRANCH  31  33
ENDBRANCH  16  22
BRANCH   8  13
ATOM     13  C   UNL     1      -0.108   0.149  24.786  0.00  0.00    +0.061 C 
BRANCH  13  15
ATOM      6  N   UNL     1      -0.690  -2.161  25.090  0.00  0.00    -0.287 NA
ATOM     15  C   UNL     1      -1.127  -0.960  24.894  0.00  0.00    +0.044 C 
ATOM     17  C   UNL     1      -2.568  -0.623  24.765  0.00  0.00    -0.001 A 
ATOM     19  C   UNL     1      -3.440  -1.682  24.483  0.00  0.00    -0.033 A 
ATOM     20  C   UNL     1      -2.871  -3.060  24.318  0.00  0.00    +0.059 C 
ATOM     21  C   UNL     1      -1.683  -3.229  25.256  0.00  0.00    +0.146 C 
ATOM     23  C   UNL     1      -3.053   0.679  24.899  0.00  0.00    +0.013 A 
ATOM     24  C   UNL     1      -4.803  -1.425  24.309  0.00  0.00    +0.050 A 
ATOM     25  C   UNL     1      -4.418   0.923  24.738  0.00  0.00    +0.046 A 
ATOM     26  C   UNL     1      -5.290  -0.125  24.441  0.00  0.00    +0.120 A 
BRANCH  26   4
ATOM      4  O   UNL     1      -6.620   0.123  24.280  0.00  0.00    -0.495 OA
ATOM     32  C   UNL     1      -7.028   1.490  24.277  0.00  0.00    +0.277 C 
ENDBRANCH  26   4
ENDBRANCH  13  15
ENDBRANCH   8  13
BRANCH   9  14
ATOM     14  C   UNL     1       2.308  -0.909  23.254  0.00  0.00    +0.124 C 
BRANCH  14  18
ATOM      3  O   UNL     1       4.493   0.067  22.793  0.00  0.00    -0.251 OA
ATOM     18  C   UNL     1       3.803  -0.773  23.350  0.00  0.00    +0.305 C 
BRANCH  18   2
ATOM      2  O   UNL     1       4.299  -1.739  24.166  0.00  0.00    -0.481 OA
ATOM     34  H   UNL     1       5.280  -1.715  24.205  0.00  0.00    +0.295 HD
ENDBRANCH  18   2
ENDBRANCH  14  18
ENDBRANCH   9  14
TORSDOF 8
ENDMDL
MODEL 8
REMARK VINA RESULT:       7.5      2.192      6.392
REMARK  Name = 51136653
REMARK  9 active torsions:
REMARK  status: ('A' for Active; 'I' for Inactive)
REMARK    1  A    between atoms: O_2  and  C_18
REMARK    2  A    between atoms: O_4  and  C_26
REMARK    3  A    between atoms: O_4  and  C_32
REMARK    4  A    between atoms: C_8  and  C_13
REMARK    5  A    between atoms: C_9  and  C_14
REMARK    6  A    between atoms: C_13  and  C_15
REMARK    7  A    between atoms: C_14  and  C_18
REMARK    8  A    between atoms: C_16  and  C_22
REMARK    9  A    between atoms: C_31  and  C_33
REMARK                            x       y       z     vdW  Elec       q    Type
REMARK                         _______ _______ _______ _____ _____    ______ ____
ROOT
ATOM      1  O   UNL     1      -1.431  -3.037  24.239  0.00  0.00    -0.270 OA
ATOM      5  N   UNL     1      -2.758  -1.169  23.764  0.00  0.00    -0.297 N 
ATOM      8  C   UNL     1      -3.623   1.072  24.404  0.00  0.00    +0.016 C 
ATOM      9  C   UNL     1      -4.969   0.402  24.780  0.00  0.00    +0.006 C 
ATOM     10  C   UNL     1      -4.776  -1.073  25.173  0.00  0.00    +0.023 C 
ATOM     11  C   UNL     1      -2.898   0.230  23.337  0.00  0.00    +0.112 C 
ATOM     12  C   UNL     1      -4.014  -1.839  24.095  0.00  0.00    +0.108 C 
ATOM     16  C   UNL     1      -1.553  -1.867  23.877  0.00  0.00    +0.247 C 
ENDROOT
BRANCH  16  22
ATOM     22  C   UNL     1      -0.313  -1.162  23.536  0.00  0.00    +0.037 A 
ATOM     27  C   UNL     1       0.141  -1.146  22.218  0.00  0.00    +0.014 A 
ATOM     28  C   UNL     1       0.413  -0.508  24.532  0.00  0.00    +0.014 A 
ATOM     29  C   UNL     1       1.320  -0.474  21.894  0.00  0.00    +0.019 A 
ATOM     30  C   UNL     1       1.591   0.163  24.209  0.00  0.00    +0.019 A 
ATOM     31  C   UNL     1       2.045   0.181  22.890  0.00  0.00    +0.052 A 
BRANCH  31  33
ATOM      7  N   UNL     1       4.235   1.426  22.290  0.00  0.00    -0.191 NA
ATOM     33  C   UNL     1       3.253   0.868  22.559  0.00  0.00    +0.099 C 
ENDBRANCH  31  33
ENDBRANCH  16  22
BRANCH   8  13
ATOM     13  C   UNL     1      -2.699   1.325  25.601  0.00  0.00    +0.061 C 
BRANCH  13  15
ATOM      6  N   UNL     1      -3.252   3.410  26.657  0.00  0.00    -0.287 NA
ATOM     15  C   UNL     1      -2.502   2.810  25.792  0.00  0.00    +0.044 C 
ATOM     17  C   UNL     1      -1.471   3.505  24.980  0.00  0.00    -0.001 A 
ATOM     19  C   UNL     1      -1.573   4.900  24.890  0.00  0.00    -0.033 A 
ATOM     20  C   UNL     1      -2.705   5.586  25.595  0.00  0.00    +0.059 C 
ATOM     21  C   UNL     1      -3.019   4.840  26.887  0.00  0.00    +0.146 C 
ATOM     23  C   UNL     1      -0.448   2.826  24.315  0.00  0.00    +0.013 A 
ATOM     24  C   UNL     1      -0.658   5.610  24.108  0.00  0.00    +0.050 A 
ATOM     25  C   UNL     1       0.470   3.545  23.549  0.00  0.00    +0.046 A 
ATOM     26  C   UNL     1       0.364   4.932  23.443  0.00  0.00    +0.120 A 
BRANCH  26   4
ATOM      4  O   UNL     1       1.260   5.626  22.688  0.00  0.00    -0.495 OA
ATOM     32  C   UNL     1       0.914   5.859  21.323  0.00  0.00    +0.277 C 
ENDBRANCH  26   4
ENDBRANCH  13  15
ENDBRANCH   8  13
BRANCH   9  14
ATOM     14  C   UNL     1      -5.732   1.154  25.868  0.00  0.00    +0.124 C 
BRANCH  14  18
ATOM      3  O   UNL     1      -6.152   3.543  25.628  0.00  0.00    -0.251 OA
ATOM     18  C   UNL     1      -6.404   2.386  25.327  0.00  0.00    +0.305 C 
BRANCH  18   2
ATOM      2  O   UNL     1      -7.356   2.030  24.427  0.00  0.00    -0.481 OA
ATOM     34  H   UNL     1      -6.963   1.698  23.591  0.00  0.00    +0.295 HD
ENDBRANCH  18   2
ENDBRANCH  14  18
ENDBRANCH   9  14
TORSDOF 8
ENDMDL
MODEL 9
REMARK VINA RESULT:       7.6      1.758      2.319
REMARK  Name = 51136653
REMARK  9 active torsions:
REMARK  status: ('A' for Active; 'I' for Inactive)
REMARK    1  A    between atoms: O_2  and  C_18
REMARK    2  A    between atoms: O_4  and  C_26
REMARK    3  A    between atoms: O_4  and  C_32
REMARK    4  A    between atoms: C_8  and  C_13
REMARK    5  A    between atoms: C_9  and  C_14
REMARK    6  A    between atoms: C_13  and  C_15
REMARK    7  A    between atoms: C_14  and  C_18
REMARK    8  A    between atoms: C_16  and  C_22
REMARK    9  A    between atoms: C_31  and  C_33
REMARK                            x       y       z     vdW  Elec       q    Type
REMARK                         _______ _______ _______ _____ _____    ______ ____
ROOT
ATOM      1  O   UNL     1      -4.759  -1.998  23.788  0.00  0.00    -0.270 OA
ATOM      5  N   UNL     1      -2.782  -1.626  24.982  0.00  0.00    -0.297 N 
ATOM      8  C   UNL     1      -0.546  -0.555  25.159  0.00  0.00    +0.016 C 
ATOM      9  C   UNL     1       0.094  -1.926  24.824  0.00  0.00    +0.006 C 
ATOM     10  C   UNL     1      -0.858  -2.809  23.997  0.00  0.00    +0.023 C 
ATOM     11  C   UNL     1      -1.926  -0.766  25.811  0.00  0.00    +0.112 C 
ATOM     12  C   UNL     1      -2.219  -2.940  24.675  0.00  0.00    +0.108 C 
ATOM     16  C   UNL     1      -4.041  -1.282  24.485  0.00  0.00    +0.247 C 
ENDROOT
BRANCH  16  22
ATOM     22  C   UNL     1      -4.574   0.044  24.814  0.00  0.00    +0.037 A 
ATOM     27  C   UNL     1      -5.779   0.471  24.257  0.00  0.00    +0.014 A 
ATOM     28  C   UNL     1      -3.875   0.880  25.686  0.00  0.00    +0.014 A 
ATOM     29  C   UNL     1      -6.286   1.732  24.571  0.00  0.00    +0.019 A 
ATOM     30  C   UNL     1      -4.380   2.140  26.000  0.00  0.00    +0.019 A 
ATOM     31  C   UNL     1      -5.587   2.566  25.443  0.00  0.00    +0.052 A 
BRANCH  31  33
ATOM      7  N   UNL     1      -6.525   4.909  26.025  0.00  0.00    -0.191 NA
ATOM     33  C   UNL     1      -6.105   3.859  25.764  0.00  0.00    +0.099 C 
ENDBRANCH  31  33
ENDBRANCH  16  22
BRANCH   8  13
ATOM     13  C   UNL     1      -0.664   0.387  23.955  0.00  0.00    +0.061 C 
BRANCH  13  15
ATOM      6  N   UNL     1       0.363   2.174  25.188  0.00  0.00    -0.287 NA
ATOM     15  C   UNL     1      -0.617   1.823  24.421  0.00  0.00    +0.044 C 
ATOM     17  C   UNL     1      -1.691   2.752  23.986  0.00  0.00    -0.001 A 
ATOM     19  C   UNL     1      -1.839   3.934  24.723  0.00  0.00    -0.033 A 
ATOM     20  C   UNL     1      -0.930   4.173  25.892  0.00  0.00    +0.059 C 
ATOM     21  C   UNL     1       0.442   3.583  25.591  0.00  0.00    +0.146 C 
ATOM     23  C   UNL     1      -2.535   2.479  22.908  0.00  0.00    +0.013 A 
ATOM     24  C   UNL     1      -2.857   4.832  24.390  0.00  0.00    +0.050 A 
ATOM     25  C   UNL     1      -3.539   3.388  22.574  0.00  0.00    +0.046 A 
ATOM     26  C   UNL     1      -3.702   4.560  23.315  0.00  0.00    +0.120 A 
BRANCH  26   4
ATOM      4  O   UNL     1      -4.689   5.439  22.986  0.00  0.00    -0.495 OA
ATOM     32  C   UNL     1      -4.283   6.703  22.464  0.00  0.00    +0.277 C 
ENDBRANCH  26   4
ENDBRANCH  13  15
ENDBRANCH   8  13
BRANCH   9  14
ATOM     14  C   UNL     1       1.451  -1.804  24.132  0.00  0.00    +0.124 C 
BRANCH  14  18
ATOM      3  O   UNL     1       0.751  -0.779  22.035  0.00  0.00    -0.251 OA
ATOM     18  C   UNL     1       1.431  -0.760  23.050  0.00  0.00    +0.305 C 
BRANCH  18   2
ATOM      2  O   UNL     1       2.295   0.240  23.362  0.00  0.00    -0.481 OA
ATOM     34  H   UNL     1       3.039   0.292  22.723  0.00  0.00    +0.295 HD
ENDBRANCH  18   2
ENDBRANCH  14  18
ENDBRANCH   9  14
TORSDOF 8
ENDMDL
MODEL 10
REMARK VINA RESULT:       8.7      2.509      3.782
REMARK  Name = 51136653
REMARK  9 active torsions:
REMARK  status: ('A' for Active; 'I' for Inactive)
REMARK    1  A    between atoms: O_2  and  C_18
REMARK    2  A    between atoms: O_4  and  C_26
REMARK    3  A    between atoms: O_4  and  C_32
REMARK    4  A    between atoms: C_8  and  C_13
REMARK    5  A    between atoms: C_9  and  C_14
REMARK    6  A    between atoms: C_13  and  C_15
REMARK    7  A    between atoms: C_14  and  C_18
REMARK    8  A    between atoms: C_16  and  C_22
REMARK    9  A    between atoms: C_31  and  C_33
REMARK                            x       y       z     vdW  Elec       q    Type
REMARK                         _______ _______ _______ _____ _____    ______ ____
ROOT
ATOM      1  O   UNL     1      -4.997  -1.559  23.517  0.00  0.00    -0.270 OA
ATOM      5  N   UNL     1      -3.027  -1.334  24.758  0.00  0.00    -0.297 N 
ATOM      8  C   UNL     1      -0.740  -0.394  25.008  0.00  0.00    +0.016 C 
ATOM      9  C   UNL     1      -0.169  -1.787  24.641  0.00  0.00    +0.006 C 
ATOM     10  C   UNL     1      -1.151  -2.590  23.770  0.00  0.00    +0.023 C 
ATOM     11  C   UNL     1      -2.141  -0.548  25.628  0.00  0.00    +0.112 C 
ATOM     12  C   UNL     1      -2.530  -2.666  24.419  0.00  0.00    +0.108 C 
ATOM     16  C   UNL     1      -4.255  -0.906  24.249  0.00  0.00    +0.247 C 
ENDROOT
BRANCH  16  22
ATOM     22  C   UNL     1      -4.721   0.438  24.611  0.00  0.00    +0.037 A 
ATOM     27  C   UNL     1      -5.621   0.605  25.663  0.00  0.00    +0.014 A 
ATOM     28  C   UNL     1      -4.263   1.549  23.901  0.00  0.00    +0.014 A 
ATOM     29  C   UNL     1      -6.062   1.883  26.007  0.00  0.00    +0.019 A 
ATOM     30  C   UNL     1      -4.704   2.825  24.245  0.00  0.00    +0.019 A 
ATOM     31  C   UNL     1      -5.603   2.993  25.298  0.00  0.00    +0.052 A 
BRANCH  31  33
ATOM      7  N   UNL     1      -6.424   5.365  25.935  0.00  0.00    -0.191 NA
ATOM     33  C   UNL     1      -6.056   4.302  25.649  0.00  0.00    +0.099 C 
ENDBRANCH  31  33
ENDBRANCH  16  22
BRANCH   8  13
ATOM     13  C   UNL     1      -0.782   0.590  23.833  0.00  0.00    +0.061 C 
BRANCH  13  15
ATOM      6  N   UNL     1      -1.185   2.944  23.580  0.00  0.00    -0.287 NA
ATOM     15  C   UNL     1      -0.737   2.009  24.350  0.00  0.00    +0.044 C 
ATOM     17  C   UNL     1      -0.179   2.259  25.704  0.00  0.00    -0.001 A 
ATOM     19  C   UNL     1       0.205   3.575  25.994  0.00  0.00    -0.033 A 
ATOM     20  C   UNL     1       0.044   4.623  24.934  0.00  0.00    +0.059 C 
ATOM     21  C   UNL     1      -1.197   4.314  24.106  0.00  0.00    +0.146 C 
ATOM     23  C   UNL     1      -0.020   1.248  26.654  0.00  0.00    +0.013 A 
ATOM     24  C   UNL     1       0.774   3.869  27.236  0.00  0.00    +0.050 A 
ATOM     25  C   UNL     1       0.536   1.555  27.896  0.00  0.00    +0.046 A 
ATOM     26  C   UNL     1       0.935   2.860  28.186  0.00  0.00    +0.120 A 
BRANCH  26   4
ATOM      4  O   UNL     1       1.483   3.150  29.399  0.00  0.00    -0.495 OA
ATOM     32  C   UNL     1       2.025   2.059  30.142  0.00  0.00    +0.277 C 
ENDBRANCH  26   4
ENDBRANCH  13  15
ENDBRANCH   8  13
BRANCH   9  14
ATOM     14  C   UNL     1       1.206  -1.718  23.978  0.00  0.00    +0.124 C 
BRANCH  14  18
ATOM      3  O   UNL     1       0.553  -0.620  21.903  0.00  0.00    -0.251 OA
ATOM     18  C   UNL     1       1.253  -0.668  22.903  0.00  0.00    +0.305 C 
BRANCH  18   2
ATOM      2  O   UNL     1       2.207   0.251  23.203  0.00  0.00    -0.481 OA
ATOM     34  H   UNL     1       3.061  -0.172  23.435  0.00  0.00    +0.295 HD
ENDBRANCH  18   2
ENDBRANCH  14  18
ENDBRANCH   9  14
TORSDOF 8
ENDMDL
