MODEL 1
REMARK VINA RESULT:      -4.9      0.000      0.000
REMARK  Name = 75536835
REMARK  9 active torsions:
REMARK  status: ('A' for Active; 'I' for Inactive)
REMARK    1  A    between atoms: O_2  and  C_10
REMARK    2  A    between atoms: N_4  and  C_8
REMARK    3  A    between atoms: N_4  and  C_9
REMARK    4  A    between atoms: N_5  and  C_18
REMARK    5  A    between atoms: N_6  and  C_17
REMARK    6  A    between atoms: N_7  and  C_20
REMARK    7  A    between atoms: C_11  and  C_17
REMARK    8  A    between atoms: C_20  and  C_21
REMARK    9  A    between atoms: C_20  and  C_22
REMARK                            x       y       z     vdW  Elec       q    Type
REMARK                         _______ _______ _______ _____ _____    ______ ____
ROOT
ATOM      1  O   UNL     1       0.054   2.912  23.273  0.00  0.00    -0.371 OA
ATOM      8  C   UNL     1      -0.667   3.771  25.368  0.00  0.00    +0.111 C 
ATOM     10  C   UNL     1      -0.149   2.359  25.563  0.00  0.00    +0.164 C 
ATOM     11  C   UNL     1       0.717   2.188  24.323  0.00  0.00    +0.165 C 
ATOM     14  C   UNL     1      -0.913   3.795  23.867  0.00  0.00    +0.181 C 
ENDROOT
BRANCH  10   2
ATOM      2  O   UNL     1       0.601   2.212  26.754  0.00  0.00    -0.388 OA
ATOM     24  H   UNL     1       0.494   1.300  27.072  0.00  0.00    +0.210 HD
ENDBRANCH  10   2
BRANCH   8   4
ATOM      4  N   UNL     1      -1.860   4.068  26.143  0.00  0.00    -0.306 NA
ATOM     23  H   UNL     1      -1.911   5.066  26.342  0.00  0.00    +0.123 HD
BRANCH   4   9
ATOM      5  N   UNL     1      -5.531   2.069  25.373  0.00  0.00    -0.305 NA
ATOM      9  C   UNL     1      -3.062   3.639  25.431  0.00  0.00    +0.056 C 
ATOM     12  C   UNL     1      -4.314   4.057  26.205  0.00  0.00    +0.034 C 
ATOM     13  C   UNL     1      -3.061   2.122  25.221  0.00  0.00    +0.034 C 
ATOM     15  C   UNL     1      -5.582   3.529  25.526  0.00  0.00    +0.085 C 
ATOM     16  C   UNL     1      -4.368   1.656  24.574  0.00  0.00    +0.085 C 
ATOM     18  C   UNL     1      -6.769   1.574  24.770  0.00  0.00    +0.104 C 
ENDBRANCH   4   9
ENDBRANCH   8   4
BRANCH  11  17
ATOM     17  C   UNL     1       0.898   0.738  23.912  0.00  0.00    +0.140 C 
BRANCH  17   6
ATOM      3  O   UNL     1      -0.469  -1.135  25.629  0.00  0.00    -0.253 OA
ATOM      6  N   UNL     1      -0.365   0.104  23.666  0.00  0.00    -0.297 N 
ATOM      7  N   UNL     1      -2.183  -1.259  24.069  0.00  0.00    -0.297 N 
ATOM     19  C   UNL     1      -0.963  -0.796  24.554  0.00  0.00    +0.300 C 
ATOM     25  H   UNL     1      -0.844   0.309  22.795  0.00  0.00    +0.150 HD
ATOM     26  H   UNL     1      -2.541  -0.863  23.206  0.00  0.00    +0.150 HD
BRANCH   7  20
ATOM     20  C   UNL     1      -3.005  -2.200  24.793  0.00  0.00    +0.068 C 
ATOM     21  C   UNL     1      -3.510  -1.582  26.091  0.00  0.00    +0.027 C 
ATOM     22  C   UNL     1      -4.161  -2.673  23.920  0.00  0.00    +0.027 C 
ENDBRANCH   7  20
ENDBRANCH  17   6
ENDBRANCH  11  17
TORSDOF 6
ENDMDL
MODEL 2
REMARK VINA RESULT:      -4.8      1.845      4.672
REMARK  Name = 75536835
REMARK  9 active torsions:
REMARK  status: ('A' for Active; 'I' for Inactive)
REMARK    1  A    between atoms: O_2  and  C_10
REMARK    2  A    between atoms: N_4  and  C_8
REMARK    3  A    between atoms: N_4  and  C_9
REMARK    4  A    between atoms: N_5  and  C_18
REMARK    5  A    between atoms: N_6  and  C_17
REMARK    6  A    between atoms: N_7  and  C_20
REMARK    7  A    between atoms: C_11  and  C_17
REMARK    8  A    between atoms: C_20  and  C_21
REMARK    9  A    between atoms: C_20  and  C_22
REMARK                            x       y       z     vdW  Elec       q    Type
REMARK                         _______ _______ _______ _____ _____    ______ ____
ROOT
ATOM      1  O   UNL     1      -1.581  -2.603  23.711  0.00  0.00    -0.371 OA
ATOM      8  C   UNL     1      -0.035  -0.973  24.484  0.00  0.00    +0.111 C 
ATOM     10  C   UNL     1      -1.237  -0.995  25.410  0.00  0.00    +0.164 C 
ATOM     11  C   UNL     1      -1.815  -2.371  25.109  0.00  0.00    +0.165 C 
ATOM     14  C   UNL     1      -0.595  -1.662  23.249  0.00  0.00    +0.181 C 
ENDROOT
BRANCH  10   2
ATOM      2  O   UNL     1      -0.879  -0.859  26.772  0.00  0.00    -0.388 OA
ATOM     24  H   UNL     1      -0.278  -0.100  26.856  0.00  0.00    +0.210 HD
ENDBRANCH  10   2
BRANCH   8   4
ATOM      4  N   UNL     1       0.465   0.364  24.208  0.00  0.00    -0.306 NA
ATOM     23  H   UNL     1       0.638   0.476  23.209  0.00  0.00    +0.123 HD
BRANCH   4   9
ATOM      5  N   UNL     1      -1.240   4.194  24.905  0.00  0.00    -0.305 NA
ATOM      9  C   UNL     1      -0.482   1.377  24.667  0.00  0.00    +0.056 C 
ATOM     12  C   UNL     1      -1.013   2.184  23.479  0.00  0.00    +0.034 C 
ATOM     13  C   UNL     1       0.172   2.317  25.684  0.00  0.00    +0.034 C 
ATOM     15  C   UNL     1      -1.930   3.316  23.950  0.00  0.00    +0.085 C 
ATOM     16  C   UNL     1      -0.783   3.445  26.084  0.00  0.00    +0.085 C 
ATOM     18  C   UNL     1      -2.111   5.299  25.307  0.00  0.00    +0.104 C 
ENDBRANCH   4   9
ENDBRANCH   8   4
BRANCH  11  17
ATOM     17  C   UNL     1      -3.300  -2.476  25.407  0.00  0.00    +0.140 C 
BRANCH  17   6
ATOM      3  O   UNL     1      -4.245  -0.346  23.705  0.00  0.00    -0.253 OA
ATOM      6  N   UNL     1      -3.839  -1.213  25.822  0.00  0.00    -0.297 N 
ATOM      7  N   UNL     1      -4.754   0.894  25.600  0.00  0.00    -0.297 N 
ATOM     19  C   UNL     1      -4.277  -0.230  24.930  0.00  0.00    +0.300 C 
ATOM     25  H   UNL     1      -3.893  -1.017  26.816  0.00  0.00    +0.150 HD
ATOM     26  H   UNL     1      -4.809   0.864  26.613  0.00  0.00    +0.150 HD
BRANCH   7  20
ATOM     20  C   UNL     1      -5.265   2.056  24.912  0.00  0.00    +0.068 C 
ATOM     21  C   UNL     1      -6.753   1.895  24.623  0.00  0.00    +0.027 C 
ATOM     22  C   UNL     1      -4.995   3.315  25.725  0.00  0.00    +0.027 C 
ENDBRANCH   7  20
ENDBRANCH  17   6
ENDBRANCH  11  17
TORSDOF 6
ENDMDL
MODEL 3
REMARK VINA RESULT:      -4.7      1.525      4.776
REMARK  Name = 75536835
REMARK  9 active torsions:
REMARK  status: ('A' for Active; 'I' for Inactive)
REMARK    1  A    between atoms: O_2  and  C_10
REMARK    2  A    between atoms: N_4  and  C_8
REMARK    3  A    between atoms: N_4  and  C_9
REMARK    4  A    between atoms: N_5  and  C_18
REMARK    5  A    between atoms: N_6  and  C_17
REMARK    6  A    between atoms: N_7  and  C_20
REMARK    7  A    between atoms: C_11  and  C_17
REMARK    8  A    between atoms: C_20  and  C_21
REMARK    9  A    between atoms: C_20  and  C_22
REMARK                            x       y       z     vdW  Elec       q    Type
REMARK                         _______ _______ _______ _____ _____    ______ ____
ROOT
ATOM      1  O   UNL     1      -0.704   3.317  26.539  0.00  0.00    -0.371 OA
ATOM      8  C   UNL     1       0.355   2.122  24.779  0.00  0.00    +0.111 C 
ATOM     10  C   UNL     1      -0.485   3.237  24.185  0.00  0.00    +0.164 C 
ATOM     11  C   UNL     1      -0.629   4.166  25.382  0.00  0.00    +0.165 C 
ATOM     14  C   UNL     1      -0.243   2.004  26.172  0.00  0.00    +0.181 C 
ENDROOT
BRANCH  10   2
ATOM      2  O   UNL     1       0.148   3.877  23.094  0.00  0.00    -0.388 OA
ATOM     24  H   UNL     1      -0.142   3.441  22.275  0.00  0.00    +0.210 HD
ENDBRANCH  10   2
BRANCH   8   4
ATOM      4  N   UNL     1       0.292   0.879  24.028  0.00  0.00    -0.306 NA
ATOM     23  H   UNL     1       1.198   0.414  24.040  0.00  0.00    +0.123 HD
BRANCH   4   9
ATOM      5  N   UNL     1      -2.738  -2.098  24.165  0.00  0.00    -0.305 NA
ATOM      9  C   UNL     1      -0.732  -0.007  24.576  0.00  0.00    +0.056 C 
ATOM     12  C   UNL     1      -0.350  -1.470  24.336  0.00  0.00    +0.034 C 
ATOM     13  C   UNL     1      -2.100   0.284  23.952  0.00  0.00    +0.034 C 
ATOM     15  C   UNL     1      -1.459  -2.412  24.815  0.00  0.00    +0.085 C 
ATOM     16  C   UNL     1      -3.152  -0.714  24.443  0.00  0.00    +0.085 C 
ATOM     18  C   UNL     1      -3.775  -3.037  24.594  0.00  0.00    +0.104 C 
ENDBRANCH   4   9
ENDBRANCH   8   4
BRANCH  11  17
ATOM     17  C   UNL     1      -1.863   5.048  25.313  0.00  0.00    +0.140 C 
BRANCH  17   6
ATOM      3  O   UNL     1      -3.987   3.537  24.074  0.00  0.00    -0.253 OA
ATOM      6  N   UNL     1      -2.982   4.433  25.968  0.00  0.00    -0.297 N 
ATOM      7  N   UNL     1      -4.938   3.225  26.168  0.00  0.00    -0.297 N 
ATOM     19  C   UNL     1      -3.972   3.714  25.292  0.00  0.00    +0.300 C 
ATOM     25  H   UNL     1      -3.065   4.537  26.974  0.00  0.00    +0.150 HD
ATOM     26  H   UNL     1      -4.797   3.359  27.165  0.00  0.00    +0.150 HD
BRANCH   7  20
ATOM     20  C   UNL     1      -6.072   2.448  25.728  0.00  0.00    +0.068 C 
ATOM     21  C   UNL     1      -5.669   1.503  24.602  0.00  0.00    +0.027 C 
ATOM     22  C   UNL     1      -6.678   1.684  26.898  0.00  0.00    +0.027 C 
ENDBRANCH   7  20
ENDBRANCH  17   6
ENDBRANCH  11  17
TORSDOF 6
ENDMDL
MODEL 4
REMARK VINA RESULT:      -4.3      1.841      4.523
REMARK  Name = 75536835
REMARK  9 active torsions:
REMARK  status: ('A' for Active; 'I' for Inactive)
REMARK    1  A    between atoms: O_2  and  C_10
REMARK    2  A    between atoms: N_4  and  C_8
REMARK    3  A    between atoms: N_4  and  C_9
REMARK    4  A    between atoms: N_5  and  C_18
REMARK    5  A    between atoms: N_6  and  C_17
REMARK    6  A    between atoms: N_7  and  C_20
REMARK    7  A    between atoms: C_11  and  C_17
REMARK    8  A    between atoms: C_20  and  C_21
REMARK    9  A    between atoms: C_20  and  C_22
REMARK                            x       y       z     vdW  Elec       q    Type
REMARK                         _______ _______ _______ _____ _____    ______ ____
ROOT
ATOM      1  O   UNL     1      -2.857   4.097  23.602  0.00  0.00    -0.371 OA
ATOM      8  C   UNL     1      -4.366   2.965  25.045  0.00  0.00    +0.111 C 
ATOM     10  C   UNL     1      -3.139   3.376  25.836  0.00  0.00    +0.164 C 
ATOM     11  C   UNL     1      -2.580   4.486  24.957  0.00  0.00    +0.165 C 
ATOM     14  C   UNL     1      -3.849   3.055  23.619  0.00  0.00    +0.181 C 
ENDROOT
BRANCH  10   2
ATOM      2  O   UNL     1      -3.455   3.840  27.135  0.00  0.00    -0.388 OA
ATOM     24  H   UNL     1      -3.258   3.130  27.769  0.00  0.00    +0.210 HD
ENDBRANCH  10   2
BRANCH   8   4
ATOM      4  N   UNL     1      -4.865   1.642  25.385  0.00  0.00    -0.306 NA
ATOM     23  H   UNL     1      -5.837   1.548  25.096  0.00  0.00    +0.123 HD
BRANCH   4   9
ATOM      5  N   UNL     1      -3.026  -2.136  24.748  0.00  0.00    -0.305 NA
ATOM      9  C   UNL     1      -4.053   0.604  24.753  0.00  0.00    +0.056 C 
ATOM     12  C   UNL     1      -4.927  -0.595  24.376  0.00  0.00    +0.034 C 
ATOM     13  C   UNL     1      -2.921   0.154  25.681  0.00  0.00    +0.034 C 
ATOM     15  C   UNL     1      -4.078  -1.734  23.804  0.00  0.00    +0.085 C 
ATOM     16  C   UNL     1      -2.137  -1.009  25.067  0.00  0.00    +0.085 C 
ATOM     18  C   UNL     1      -2.256  -3.258  24.209  0.00  0.00    +0.104 C 
ENDBRANCH   4   9
ENDBRANCH   8   4
BRANCH  11  17
ATOM     17  C   UNL     1      -1.087   4.700  25.136  0.00  0.00    +0.140 C 
BRANCH  17   6
ATOM      3  O   UNL     1       0.059   2.111  25.694  0.00  0.00    -0.253 OA
ATOM      6  N   UNL     1      -0.332   3.877  24.236  0.00  0.00    -0.297 N 
ATOM      7  N   UNL     1       0.880   2.046  23.524  0.00  0.00    -0.297 N 
ATOM     19  C   UNL     1       0.192   2.628  24.586  0.00  0.00    +0.300 C 
ATOM     25  H   UNL     1      -0.155   4.226  23.299  0.00  0.00    +0.150 HD
ATOM     26  H   UNL     1       0.870   2.518  22.626  0.00  0.00    +0.150 HD
BRANCH   7  20
ATOM     20  C   UNL     1       1.518   0.754  23.621  0.00  0.00    +0.068 C 
ATOM     21  C   UNL     1       0.630  -0.328  23.018  0.00  0.00    +0.027 C 
ATOM     22  C   UNL     1       2.883   0.786  22.947  0.00  0.00    +0.027 C 
ENDBRANCH   7  20
ENDBRANCH  17   6
ENDBRANCH  11  17
TORSDOF 6
ENDMDL
MODEL 5
REMARK VINA RESULT:      -3.7      2.108      4.510
REMARK  Name = 75536835
REMARK  9 active torsions:
REMARK  status: ('A' for Active; 'I' for Inactive)
REMARK    1  A    between atoms: O_2  and  C_10
REMARK    2  A    between atoms: N_4  and  C_8
REMARK    3  A    between atoms: N_4  and  C_9
REMARK    4  A    between atoms: N_5  and  C_18
REMARK    5  A    between atoms: N_6  and  C_17
REMARK    6  A    between atoms: N_7  and  C_20
REMARK    7  A    between atoms: C_11  and  C_17
REMARK    8  A    between atoms: C_20  and  C_21
REMARK    9  A    between atoms: C_20  and  C_22
REMARK                            x       y       z     vdW  Elec       q    Type
REMARK                         _______ _______ _______ _____ _____    ______ ____
ROOT
ATOM      1  O   UNL     1      -3.810   3.968  26.322  0.00  0.00    -0.371 OA
ATOM      8  C   UNL     1      -2.108   3.879  24.667  0.00  0.00    +0.111 C 
ATOM     10  C   UNL     1      -3.326   3.125  24.167  0.00  0.00    +0.164 C 
ATOM     11  C   UNL     1      -4.419   3.716  25.045  0.00  0.00    +0.165 C 
ATOM     14  C   UNL     1      -2.381   3.932  26.162  0.00  0.00    +0.181 C 
ENDROOT
BRANCH  10   2
ATOM      2  O   UNL     1      -3.577   3.345  22.792  0.00  0.00    -0.388 OA
ATOM     24  H   UNL     1      -4.112   2.605  22.457  0.00  0.00    +0.210 HD
ENDBRANCH  10   2
BRANCH   8   4
ATOM      4  N   UNL     1      -0.847   3.231  24.344  0.00  0.00    -0.306 NA
ATOM     23  H   UNL     1      -0.122   3.527  24.997  0.00  0.00    +0.123 HD
BRANCH   4   9
ATOM      5  N   UNL     1       0.145  -0.849  25.000  0.00  0.00    -0.305 NA
ATOM      9  C   UNL     1      -0.986   1.777  24.377  0.00  0.00    +0.056 C 
ATOM     12  C   UNL     1      -0.852   1.265  25.814  0.00  0.00    +0.034 C 
ATOM     13  C   UNL     1       0.061   1.106  23.485  0.00  0.00    +0.034 C 
ATOM     15  C   UNL     1      -0.895  -0.265  25.858  0.00  0.00    +0.085 C 
ATOM     16  C   UNL     1      -0.012  -0.418  23.603  0.00  0.00    +0.085 C 
ATOM     18  C   UNL     1       0.124  -2.309  25.092  0.00  0.00    +0.104 C 
ENDBRANCH   4   9
ENDBRANCH   8   4
BRANCH  11  17
ATOM     17  C   UNL     1      -5.613   2.794  25.219  0.00  0.00    +0.140 C 
BRANCH  17   6
ATOM      3  O   UNL     1      -4.275   0.833  23.579  0.00  0.00    -0.253 OA
ATOM      6  N   UNL     1      -5.202   1.476  25.610  0.00  0.00    -0.297 N 
ATOM      7  N   UNL     1      -4.270  -0.623  25.386  0.00  0.00    -0.297 N 
ATOM     19  C   UNL     1      -4.555   0.583  24.751  0.00  0.00    +0.300 C 
ATOM     25  H   UNL     1      -5.404   1.171  26.557  0.00  0.00    +0.150 HD
ATOM     26  H   UNL     1      -4.473  -0.706  26.377  0.00  0.00    +0.150 HD
BRANCH   7  20
ATOM     20  C   UNL     1      -3.604  -1.718  24.722  0.00  0.00    +0.068 C 
ATOM     21  C   UNL     1      -3.243  -2.810  25.722  0.00  0.00    +0.027 C 
ATOM     22  C   UNL     1      -4.476  -2.265  23.599  0.00  0.00    +0.027 C 
ENDBRANCH   7  20
ENDBRANCH  17   6
ENDBRANCH  11  17
TORSDOF 6
ENDMDL
MODEL 6
REMARK VINA RESULT:      -3.6      1.805      4.751
REMARK  Name = 75536835
REMARK  9 active torsions:
REMARK  status: ('A' for Active; 'I' for Inactive)
REMARK    1  A    between atoms: O_2  and  C_10
REMARK    2  A    between atoms: N_4  and  C_8
REMARK    3  A    between atoms: N_4  and  C_9
REMARK    4  A    between atoms: N_5  and  C_18
REMARK    5  A    between atoms: N_6  and  C_17
REMARK    6  A    between atoms: N_7  and  C_20
REMARK    7  A    between atoms: C_11  and  C_17
REMARK    8  A    between atoms: C_20  and  C_21
REMARK    9  A    between atoms: C_20  and  C_22
REMARK                            x       y       z     vdW  Elec       q    Type
REMARK                         _______ _______ _______ _____ _____    ______ ____
ROOT
ATOM      1  O   UNL     1      -3.240  -1.706  26.291  0.00  0.00    -0.371 OA
ATOM      8  C   UNL     1      -4.700  -0.376  24.971  0.00  0.00    +0.111 C 
ATOM     10  C   UNL     1      -3.875  -1.262  24.057  0.00  0.00    +0.164 C 
ATOM     11  C   UNL     1      -3.435  -2.353  25.023  0.00  0.00    +0.165 C 
ATOM     14  C   UNL     1      -3.881  -0.418  26.251  0.00  0.00    +0.181 C 
ENDROOT
BRANCH  10   2
ATOM      2  O   UNL     1      -4.626  -1.784  22.977  0.00  0.00    -0.388 OA
ATOM     24  H   UNL     1      -4.457  -1.234  22.194  0.00  0.00    +0.210 HD
ENDBRANCH  10   2
BRANCH   8   4
ATOM      4  N   UNL     1      -4.889   0.973  24.463  0.00  0.00    -0.306 NA
ATOM     23  H   UNL     1      -5.787   1.343  24.771  0.00  0.00    +0.123 HD
BRANCH   4   9
ATOM      5  N   UNL     1      -2.415   4.419  24.736  0.00  0.00    -0.305 NA
ATOM      9  C   UNL     1      -3.808   1.850  24.907  0.00  0.00    +0.056 C 
ATOM     12  C   UNL     1      -4.383   3.134  25.513  0.00  0.00    +0.034 C 
ATOM     13  C   UNL     1      -2.870   2.195  23.747  0.00  0.00    +0.034 C 
ATOM     15  C   UNL     1      -3.265   4.110  25.893  0.00  0.00    +0.085 C 
ATOM     16  C   UNL     1      -1.802   3.201  24.184  0.00  0.00    +0.085 C 
ATOM     18  C   UNL     1      -1.384   5.390  25.102  0.00  0.00    +0.104 C 
ENDBRANCH   4   9
ENDBRANCH   8   4
BRANCH  11  17
ATOM     17  C   UNL     1      -2.154  -3.049  24.600  0.00  0.00    +0.140 C 
BRANCH  17   6
ATOM      3  O   UNL     1      -0.056  -1.313  25.554  0.00  0.00    -0.253 OA
ATOM      6  N   UNL     1      -1.325  -2.182  23.813  0.00  0.00    -0.297 N 
ATOM      7  N   UNL     1       0.326  -0.632  23.369  0.00  0.00    -0.297 N 
ATOM     19  C   UNL     1      -0.325  -1.369  24.355  0.00  0.00    +0.300 C 
ATOM     25  H   UNL     1      -1.482  -2.147  22.811  0.00  0.00    +0.150 HD
ATOM     26  H   UNL     1       0.082  -0.804  22.399  0.00  0.00    +0.150 HD
BRANCH   7  20
ATOM     20  C   UNL     1       1.400   0.288  23.661  0.00  0.00    +0.068 C 
ATOM     21  C   UNL     1       2.442   0.265  22.549  0.00  0.00    +0.027 C 
ATOM     22  C   UNL     1       0.851   1.693  23.874  0.00  0.00    +0.027 C 
ENDBRANCH   7  20
ENDBRANCH  17   6
ENDBRANCH  11  17
TORSDOF 6
ENDMDL
MODEL 7
REMARK VINA RESULT:      -3.1      1.650      4.528
REMARK  Name = 75536835
REMARK  9 active torsions:
REMARK  status: ('A' for Active; 'I' for Inactive)
REMARK    1  A    between atoms: O_2  and  C_10
REMARK    2  A    between atoms: N_4  and  C_8
REMARK    3  A    between atoms: N_4  and  C_9
REMARK    4  A    between atoms: N_5  and  C_18
REMARK    5  A    between atoms: N_6  and  C_17
REMARK    6  A    between atoms: N_7  and  C_20
REMARK    7  A    between atoms: C_11  and  C_17
REMARK    8  A    between atoms: C_20  and  C_21
REMARK    9  A    between atoms: C_20  and  C_22
REMARK                            x       y       z     vdW  Elec       q    Type
REMARK                         _______ _______ _______ _____ _____    ______ ____
ROOT
ATOM      1  O   UNL     1       0.155   3.479  25.877  0.00  0.00    -0.371 OA
ATOM      8  C   UNL     1       0.023   1.123  25.600  0.00  0.00    +0.111 C 
ATOM     10  C   UNL     1      -0.724   1.798  24.465  0.00  0.00    +0.164 C 
ATOM     11  C   UNL     1      -0.109   3.190  24.494  0.00  0.00    +0.165 C 
ATOM     14  C   UNL     1       0.100   2.248  26.620  0.00  0.00    +0.181 C 
ENDROOT
BRANCH  10   2
ATOM      2  O   UNL     1      -0.520   1.158  23.219  0.00  0.00    -0.388 OA
ATOM     24  H   UNL     1       0.429   0.972  23.124  0.00  0.00    +0.210 HD
ENDBRANCH  10   2
BRANCH   8   4
ATOM      4  N   UNL     1      -0.642  -0.063  26.113  0.00  0.00    -0.306 NA
ATOM     23  H   UNL     1      -1.150   0.160  26.969  0.00  0.00    +0.123 HD
BRANCH   4   9
ATOM      5  N   UNL     1      -3.760  -2.425  24.450  0.00  0.00    -0.305 NA
ATOM      9  C   UNL     1      -1.559  -0.615  25.118  0.00  0.00    +0.056 C 
ATOM     12  C   UNL     1      -3.008  -0.319  25.512  0.00  0.00    +0.034 C 
ATOM     13  C   UNL     1      -1.358  -2.126  24.967  0.00  0.00    +0.034 C 
ATOM     15  C   UNL     1      -3.988  -0.977  24.535  0.00  0.00    +0.085 C 
ATOM     16  C   UNL     1      -2.390  -2.724  24.008  0.00  0.00    +0.085 C 
ATOM     18  C   UNL     1      -4.734  -3.045  23.552  0.00  0.00    +0.104 C 
ENDBRANCH   4   9
ENDBRANCH   8   4
BRANCH  11  17
ATOM     17  C   UNL     1      -1.014   4.259  23.910  0.00  0.00    +0.140 C 
BRANCH  17   6
ATOM      3  O   UNL     1      -2.872   4.074  26.110  0.00  0.00    -0.253 OA
ATOM      6  N   UNL     1      -2.377   3.815  23.855  0.00  0.00    -0.297 N 
ATOM      7  N   UNL     1      -4.484   3.289  24.636  0.00  0.00    -0.297 N 
ATOM     19  C   UNL     1      -3.216   3.755  24.972  0.00  0.00    +0.300 C 
ATOM     25  H   UNL     1      -2.749   3.515  22.959  0.00  0.00    +0.150 HD
ATOM     26  H   UNL     1      -4.693   3.123  23.657  0.00  0.00    +0.150 HD
BRANCH   7  20
ATOM     20  C   UNL     1      -5.542   3.131  25.606  0.00  0.00    +0.068 C 
ATOM     21  C   UNL     1      -6.362   4.411  25.717  0.00  0.00    +0.027 C 
ATOM     22  C   UNL     1      -6.421   1.942  25.243  0.00  0.00    +0.027 C 
ENDBRANCH   7  20
ENDBRANCH  17   6
ENDBRANCH  11  17
TORSDOF 6
ENDMDL
MODEL 8
REMARK VINA RESULT:      -2.6      2.572      4.754
REMARK  Name = 75536835
REMARK  9 active torsions:
REMARK  status: ('A' for Active; 'I' for Inactive)
REMARK    1  A    between atoms: O_2  and  C_10
REMARK    2  A    between atoms: N_4  and  C_8
REMARK    3  A    between atoms: N_4  and  C_9
REMARK    4  A    between atoms: N_5  and  C_18
REMARK    5  A    between atoms: N_6  and  C_17
REMARK    6  A    between atoms: N_7  and  C_20
REMARK    7  A    between atoms: C_11  and  C_17
REMARK    8  A    between atoms: C_20  and  C_21
REMARK    9  A    between atoms: C_20  and  C_22
REMARK                            x       y       z     vdW  Elec       q    Type
REMARK                         _______ _______ _______ _____ _____    ______ ____
ROOT
ATOM      1  O   UNL     1      -0.198  -0.083  24.943  0.00  0.00    -0.371 OA
ATOM      8  C   UNL     1      -2.540  -0.363  24.661  0.00  0.00    +0.111 C 
ATOM     10  C   UNL     1      -2.081   0.825  23.837  0.00  0.00    +0.164 C 
ATOM     11  C   UNL     1      -0.593   0.535  23.707  0.00  0.00    +0.165 C 
ATOM     14  C   UNL     1      -1.382  -0.520  25.633  0.00  0.00    +0.181 C 
ENDROOT
BRANCH  10   2
ATOM      2  O   UNL     1      -2.718   0.893  22.575  0.00  0.00    -0.388 OA
ATOM     24  H   UNL     1      -3.480   0.290  22.585  0.00  0.00    +0.210 HD
ENDBRANCH  10   2
BRANCH   8   4
ATOM      4  N   UNL     1      -3.815  -0.154  25.328  0.00  0.00    -0.306 NA
ATOM     23  H   UNL     1      -3.698  -0.218  26.339  0.00  0.00    +0.123 HD
BRANCH   4   9
ATOM      5  N   UNL     1      -5.535   3.704  25.801  0.00  0.00    -0.305 NA
ATOM      9  C   UNL     1      -4.380   1.146  24.972  0.00  0.00    +0.056 C 
ATOM     12  C   UNL     1      -3.529   2.272  25.564  0.00  0.00    +0.034 C 
ATOM     13  C   UNL     1      -5.825   1.269  25.465  0.00  0.00    +0.034 C 
ATOM     15  C   UNL     1      -4.160   3.640  25.287  0.00  0.00    +0.085 C 
ATOM     16  C   UNL     1      -6.381   2.668  25.190  0.00  0.00    +0.085 C 
ATOM     18  C   UNL     1      -6.106   5.031  25.574  0.00  0.00    +0.104 C 
ENDBRANCH   4   9
ENDBRANCH   8   4
BRANCH  11  17
ATOM     17  C   UNL     1       0.243   1.779  23.464  0.00  0.00    +0.140 C 
BRANCH  17   6
ATOM      3  O   UNL     1       2.106  -0.032  22.210  0.00  0.00    -0.253 OA
ATOM      6  N   UNL     1       1.615   1.564  23.825  0.00  0.00    -0.297 N 
ATOM      7  N   UNL     1       3.733   0.655  23.716  0.00  0.00    -0.297 N 
ATOM     19  C   UNL     1       2.455   0.664  23.163  0.00  0.00    +0.300 C 
ATOM     25  H   UNL     1       1.992   2.084  24.611  0.00  0.00    +0.150 HD
ATOM     26  H   UNL     1       3.944   1.321  24.452  0.00  0.00    +0.150 HD
BRANCH   7  20
ATOM     20  C   UNL     1       4.794  -0.188  23.218  0.00  0.00    +0.068 C 
ATOM     21  C   UNL     1       6.155   0.401  23.570  0.00  0.00    +0.027 C 
ATOM     22  C   UNL     1       4.648  -1.602  23.764  0.00  0.00    +0.027 C 
ENDBRANCH   7  20
ENDBRANCH  17   6
ENDBRANCH  11  17
TORSDOF 6
ENDMDL
MODEL 9
REMARK VINA RESULT:      -2.3      1.594      4.795
REMARK  Name = 75536835
REMARK  9 active torsions:
REMARK  status: ('A' for Active; 'I' for Inactive)
REMARK    1  A    between atoms: O_2  and  C_10
REMARK    2  A    between atoms: N_4  and  C_8
REMARK    3  A    between atoms: N_4  and  C_9
REMARK    4  A    between atoms: N_5  and  C_18
REMARK    5  A    between atoms: N_6  and  C_17
REMARK    6  A    between atoms: N_7  and  C_20
REMARK    7  A    between atoms: C_11  and  C_17
REMARK    8  A    between atoms: C_20  and  C_21
REMARK    9  A    between atoms: C_20  and  C_22
REMARK                            x       y       z     vdW  Elec       q    Type
REMARK                         _______ _______ _______ _____ _____    ______ ____
ROOT
ATOM      1  O   UNL     1      -1.128  -0.602  26.215  0.00  0.00    -0.371 OA
ATOM      8  C   UNL     1      -2.752  -1.992  25.178  0.00  0.00    +0.111 C 
ATOM     10  C   UNL     1      -1.663  -1.668  24.173  0.00  0.00    +0.164 C 
ATOM     11  C   UNL     1      -0.520  -1.267  25.096  0.00  0.00    +0.165 C 
ATOM     14  C   UNL     1      -2.534  -0.904  26.218  0.00  0.00    +0.181 C 
ENDROOT
BRANCH  10   2
ATOM      2  O   UNL     1      -1.322  -2.775  23.361  0.00  0.00    -0.388 OA
ATOM     24  H   UNL     1      -1.872  -3.530  23.628  0.00  0.00    +0.210 HD
ENDBRANCH  10   2
BRANCH   8   4
ATOM      4  N   UNL     1      -4.091  -1.976  24.614  0.00  0.00    -0.306 NA
ATOM     23  H   UNL     1      -4.767  -2.306  25.302  0.00  0.00    +0.123 HD
BRANCH   4   9
ATOM      5  N   UNL     1      -3.974   2.255  24.226  0.00  0.00    -0.305 NA
ATOM      9  C   UNL     1      -4.450  -0.633  24.166  0.00  0.00    +0.056 C 
ATOM     12  C   UNL     1      -3.268   0.016  23.440  0.00  0.00    +0.034 C 
ATOM     13  C   UNL     1      -4.881   0.242  25.346  0.00  0.00    +0.034 C 
ATOM     15  C   UNL     1      -3.590   1.462  23.050  0.00  0.00    +0.085 C 
ATOM     16  C   UNL     1      -5.151   1.680  24.895  0.00  0.00    +0.085 C 
ATOM     18  C   UNL     1      -4.229   3.644  23.845  0.00  0.00    +0.104 C 
ENDBRANCH   4   9
ENDBRANCH   8   4
BRANCH  11  17
ATOM     17  C   UNL     1       0.490  -0.345  24.436  0.00  0.00    +0.140 C 
BRANCH  17   6
ATOM      3  O   UNL     1       0.435   1.979  26.146  0.00  0.00    -0.253 OA
ATOM      6  N   UNL     1      -0.089   0.934  24.138  0.00  0.00    -0.297 N 
ATOM      7  N   UNL     1      -0.703   3.131  24.484  0.00  0.00    -0.297 N 
ATOM     19  C   UNL     1      -0.073   2.014  25.026  0.00  0.00    +0.300 C 
ATOM     25  H   UNL     1      -0.547   1.057  23.240  0.00  0.00    +0.150 HD
ATOM     26  H   UNL     1      -1.024   3.085  23.522  0.00  0.00    +0.150 HD
BRANCH   7  20
ATOM     20  C   UNL     1      -0.825   4.382  25.196  0.00  0.00    +0.068 C 
ATOM     21  C   UNL     1      -0.728   5.558  24.231  0.00  0.00    +0.027 C 
ATOM     22  C   UNL     1      -2.130   4.419  25.981  0.00  0.00    +0.027 C 
ENDBRANCH   7  20
ENDBRANCH  17   6
ENDBRANCH  11  17
TORSDOF 6
ENDMDL
MODEL 10
REMARK VINA RESULT:      -2.2      1.604      4.629
REMARK  Name = 75536835
REMARK  9 active torsions:
REMARK  status: ('A' for Active; 'I' for Inactive)
REMARK    1  A    between atoms: O_2  and  C_10
REMARK    2  A    between atoms: N_4  and  C_8
REMARK    3  A    between atoms: N_4  and  C_9
REMARK    4  A    between atoms: N_5  and  C_18
REMARK    5  A    between atoms: N_6  and  C_17
REMARK    6  A    between atoms: N_7  and  C_20
REMARK    7  A    between atoms: C_11  and  C_17
REMARK    8  A    between atoms: C_20  and  C_21
REMARK    9  A    between atoms: C_20  and  C_22
REMARK                            x       y       z     vdW  Elec       q    Type
REMARK                         _______ _______ _______ _____ _____    ______ ____
ROOT
ATOM      1  O   UNL     1      -2.154  -2.405  25.484  0.00  0.00    -0.371 OA
ATOM      8  C   UNL     1      -3.700  -1.280  24.074  0.00  0.00    +0.111 C 
ATOM     10  C   UNL     1      -2.461  -0.420  24.237  0.00  0.00    +0.164 C 
ATOM     11  C   UNL     1      -1.437  -1.458  24.676  0.00  0.00    +0.165 C 
ATOM     14  C   UNL     1      -3.563  -2.230  25.254  0.00  0.00    +0.181 C 
ENDROOT
BRANCH  10   2
ATOM      2  O   UNL     1      -2.079   0.222  23.035  0.00  0.00    -0.388 OA
ATOM     24  H   UNL     1      -2.882   0.411  22.522  0.00  0.00    +0.210 HD
ENDBRANCH  10   2
BRANCH   8   4
ATOM      4  N   UNL     1      -4.942  -0.525  24.096  0.00  0.00    -0.306 NA
ATOM     23  H   UNL     1      -5.677  -1.069  24.547  0.00  0.00    +0.123 HD
BRANCH   4   9
ATOM      5  N   UNL     1      -5.562   3.534  25.194  0.00  0.00    -0.305 NA
ATOM      9  C   UNL     1      -4.764   0.747  24.793  0.00  0.00    +0.056 C 
ATOM     12  C   UNL     1      -6.049   1.131  25.531  0.00  0.00    +0.034 C 
ATOM     13  C   UNL     1      -4.373   1.858  23.814  0.00  0.00    +0.034 C 
ATOM     15  C   UNL     1      -5.916   2.510  26.185  0.00  0.00    +0.085 C 
ATOM     16  C   UNL     1      -4.293   3.213  24.523  0.00  0.00    +0.085 C 
ATOM     18  C   UNL     1      -5.488   4.852  25.824  0.00  0.00    +0.104 C 
ENDBRANCH   4   9
ENDBRANCH   8   4
BRANCH  11  17
ATOM     17  C   UNL     1      -0.287  -0.868  25.473  0.00  0.00    +0.140 C 
BRANCH  17   6
ATOM      3  O   UNL     1       0.322   1.571  24.057  0.00  0.00    -0.253 OA
ATOM      6  N   UNL     1      -0.579   0.472  25.895  0.00  0.00    -0.297 N 
ATOM      7  N   UNL     1      -0.646   2.776  25.788  0.00  0.00    -0.297 N 
ATOM     19  C   UNL     1      -0.249   1.606  25.147  0.00  0.00    +0.300 C 
ATOM     25  H   UNL     1      -1.037   0.604  26.791  0.00  0.00    +0.150 HD
ATOM     26  H   UNL     1      -1.178   2.697  26.649  0.00  0.00    +0.150 HD
BRANCH   7  20
ATOM     20  C   UNL     1      -0.424   4.089  25.228  0.00  0.00    +0.068 C 
ATOM     21  C   UNL     1      -0.065   3.986  23.751  0.00  0.00    +0.027 C 
ATOM     22  C   UNL     1      -1.649   4.968  25.439  0.00  0.00    +0.027 C 
ENDBRANCH   7  20
ENDBRANCH  17   6
ENDBRANCH  11  17
TORSDOF 6
ENDMDL
