MODEL 1
REMARK VINA RESULT:      -4.3      0.000      0.000
REMARK  Name = 75536522
REMARK  13 active torsions:
REMARK  status: ('A' for Active; 'I' for Inactive)
REMARK    1  A    between atoms: O_2  and  C_9
REMARK    2  A    between atoms: N_5  and  C_8
REMARK    3  A    between atoms: N_5  and  C_14
REMARK    4  A    between atoms: N_6  and  C_12
REMARK    5  A    between atoms: N_7  and  C_25
REMARK    6  A    between atoms: C_10  and  C_12
REMARK    7  A    between atoms: C_13  and  C_15
REMARK    8  A    between atoms: C_13  and  C_17
REMARK    9  A    between atoms: C_13  and  C_18
REMARK   10  A    between atoms: C_13  and  C_19
REMARK   11  A    between atoms: C_14  and  C_20
REMARK   12  A    between atoms: C_15  and  C_16
REMARK   13  A    between atoms: C_26  and  C_27
REMARK                            x       y       z     vdW  Elec       q    Type
REMARK                         _______ _______ _______ _____ _____    ______ ____
ROOT
ATOM      1  O   UNL     1       0.155   3.820  23.680  0.00  0.00    -0.371 OA
ATOM      8  C   UNL     1      -1.243   4.161  25.570  0.00  0.00    +0.111 C 
ATOM      9  C   UNL     1      -0.792   2.712  25.544  0.00  0.00    +0.164 C 
ATOM     10  C   UNL     1       0.444   2.806  24.658  0.00  0.00    +0.165 C 
ATOM     11  C   UNL     1      -0.973   4.586  24.136  0.00  0.00    +0.181 C 
ENDROOT
BRANCH   9   2
ATOM      2  O   UNL     1      -0.481   2.214  26.830  0.00  0.00    -0.388 OA
ATOM     30  H   UNL     1      -0.112   2.941  27.359  0.00  0.00    +0.210 HD
ENDBRANCH   9   2
BRANCH   8   5
ATOM      5  N   UNL     1      -2.632   4.332  25.960  0.00  0.00    -0.305 NA
ATOM     28  H   UNL     1      -2.772   5.288  26.287  0.00  0.00    +0.123 HD
BRANCH   5  14
ATOM     14  C   UNL     1      -3.529   4.083  24.836  0.00  0.00    +0.116 C 
BRANCH  14  20
ATOM     20  C   UNL     1      -3.737   2.611  24.602  0.00  0.00    -0.033 A 
ATOM     21  C   UNL     1      -4.556   1.877  25.461  0.00  0.00    +0.007 A 
ATOM     22  C   UNL     1      -3.110   1.980  23.527  0.00  0.00    +0.007 A 
ATOM     23  C   UNL     1      -4.749   0.513  25.245  0.00  0.00    +0.023 A 
ATOM     24  C   UNL     1      -3.303   0.614  23.311  0.00  0.00    +0.023 A 
ATOM     25  C   UNL     1      -4.122  -0.118  24.170  0.00  0.00    +0.033 A 
BRANCH  25   7
ATOM      4  O   UNL     1      -2.338  -2.465  24.787  0.00  0.00    -0.276 OA
ATOM      7  N   UNL     1      -4.314  -1.484  23.955  0.00  0.00    -0.286 N 
ATOM     26  C   UNL     1      -3.444  -2.539  24.262  0.00  0.00    +0.214 C 
ATOM     27  C   UNL     1      -4.026  -3.874  23.868  0.00  0.00    +0.109 C 
ATOM     31  H   UNL     1      -5.200  -1.734  23.519  0.00  0.00    +0.155 HD
ENDBRANCH  25   7
ENDBRANCH  14  20
ENDBRANCH   5  14
ENDBRANCH   8   5
BRANCH  10  12
ATOM     12  C   UNL     1       0.782   1.501  23.960  0.00  0.00    +0.138 C 
BRANCH  12   6
ATOM      3  O   UNL     1       2.021  -0.274  22.034  0.00  0.00    -0.276 OA
ATOM      6  N   UNL     1       2.179   1.445  23.590  0.00  0.00    -0.313 N 
ATOM     16  C   UNL     1       2.681   0.558  22.655  0.00  0.00    +0.214 C 
ATOM     29  H   UNL     1       2.808   2.102  24.042  0.00  0.00    +0.149 HD
BRANCH  16  15
ATOM     15  C   UNL     1       4.181   0.694  22.451  0.00  0.00    +0.102 C 
BRANCH  15  13
ATOM     13  C   UNL     1       5.044  -0.141  23.428  0.00  0.00    -0.029 C 
ATOM     17  C   UNL     1       5.384   0.653  24.700  0.00  0.00    +0.011 C 
ATOM     18  C   UNL     1       4.330  -1.446  23.821  0.00  0.00    +0.011 C 
ATOM     19  C   UNL     1       6.360  -0.502  22.712  0.00  0.00    +0.011 C 
ENDBRANCH  15  13
ENDBRANCH  16  15
ENDBRANCH  12   6
ENDBRANCH  10  12
TORSDOF 9
ENDMDL
MODEL 2
REMARK VINA RESULT:      -4.1      2.079      5.820
REMARK  Name = 75536522
REMARK  13 active torsions:
REMARK  status: ('A' for Active; 'I' for Inactive)
REMARK    1  A    between atoms: O_2  and  C_9
REMARK    2  A    between atoms: N_5  and  C_8
REMARK    3  A    between atoms: N_5  and  C_14
REMARK    4  A    between atoms: N_6  and  C_12
REMARK    5  A    between atoms: N_7  and  C_25
REMARK    6  A    between atoms: C_10  and  C_12
REMARK    7  A    between atoms: C_13  and  C_15
REMARK    8  A    between atoms: C_13  and  C_17
REMARK    9  A    between atoms: C_13  and  C_18
REMARK   10  A    between atoms: C_13  and  C_19
REMARK   11  A    between atoms: C_14  and  C_20
REMARK   12  A    between atoms: C_15  and  C_16
REMARK   13  A    between atoms: C_26  and  C_27
REMARK                            x       y       z     vdW  Elec       q    Type
REMARK                         _______ _______ _______ _____ _____    ______ ____
ROOT
ATOM      1  O   UNL     1      -6.361   2.876  25.720  0.00  0.00    -0.371 OA
ATOM      8  C   UNL     1      -4.523   4.131  24.889  0.00  0.00    +0.111 C 
ATOM      9  C   UNL     1      -4.359   2.681  24.474  0.00  0.00    +0.164 C 
ATOM     10  C   UNL     1      -5.791   2.176  24.602  0.00  0.00    +0.165 C 
ATOM     11  C   UNL     1      -5.527   4.009  26.023  0.00  0.00    +0.181 C 
ENDROOT
BRANCH   9   2
ATOM      2  O   UNL     1      -3.868   2.542  23.156  0.00  0.00    -0.388 OA
ATOM     30  H   UNL     1      -3.675   3.428  22.806  0.00  0.00    +0.210 HD
ENDBRANCH   9   2
BRANCH   8   5
ATOM      5  N   UNL     1      -3.281   4.765  25.298  0.00  0.00    -0.305 NA
ATOM     28  H   UNL     1      -3.494   5.644  25.770  0.00  0.00    +0.123 HD
BRANCH   5  14
ATOM     14  C   UNL     1      -2.530   3.909  26.210  0.00  0.00    +0.116 C 
BRANCH  14  20
ATOM     20  C   UNL     1      -1.329   3.295  25.542  0.00  0.00    -0.033 A 
ATOM     21  C   UNL     1      -0.626   2.271  26.176  0.00  0.00    +0.007 A 
ATOM     22  C   UNL     1      -0.919   3.752  24.289  0.00  0.00    +0.007 A 
ATOM     23  C   UNL     1       0.488   1.703  25.557  0.00  0.00    +0.023 A 
ATOM     24  C   UNL     1       0.195   3.183  23.670  0.00  0.00    +0.023 A 
ATOM     25  C   UNL     1       0.898   2.159  24.304  0.00  0.00    +0.033 A 
BRANCH  25   7
ATOM      4  O   UNL     1       1.116  -0.221  22.472  0.00  0.00    -0.276 OA
ATOM      7  N   UNL     1       2.012   1.592  23.685  0.00  0.00    -0.286 N 
ATOM     26  C   UNL     1       2.057   0.476  22.838  0.00  0.00    +0.214 C 
ATOM     27  C   UNL     1       3.462   0.182  22.375  0.00  0.00    +0.109 C 
ATOM     31  H   UNL     1       2.899   2.053  23.879  0.00  0.00    +0.155 HD
ENDBRANCH  25   7
ENDBRANCH  14  20
ENDBRANCH   5  14
ENDBRANCH   8   5
BRANCH  10  12
ATOM     12  C   UNL     1      -5.881   0.678  24.834  0.00  0.00    +0.138 C 
BRANCH  12   6
ATOM      3  O   UNL     1      -4.576  -1.797  24.086  0.00  0.00    -0.276 OA
ATOM      6  N   UNL     1      -4.642   0.148  25.355  0.00  0.00    -0.313 N 
ATOM     16  C   UNL     1      -4.093  -1.050  24.934  0.00  0.00    +0.214 C 
ATOM     29  H   UNL     1      -4.157   0.699  26.057  0.00  0.00    +0.149 HD
BRANCH  16  15
ATOM     15  C   UNL     1      -2.790  -1.389  25.641  0.00  0.00    +0.102 C 
BRANCH  15  13
ATOM     13  C   UNL     1      -1.575  -1.575  24.703  0.00  0.00    -0.029 C 
ATOM     17  C   UNL     1      -0.256  -1.622  25.491  0.00  0.00    +0.011 C 
ATOM     18  C   UNL     1      -1.712  -2.858  23.866  0.00  0.00    +0.011 C 
ATOM     19  C   UNL     1      -1.525  -0.370  23.742  0.00  0.00    +0.011 C 
ENDBRANCH  15  13
ENDBRANCH  16  15
ENDBRANCH  12   6
ENDBRANCH  10  12
TORSDOF 9
ENDMDL
MODEL 3
REMARK VINA RESULT:      -3.2      1.524      4.587
REMARK  Name = 75536522
REMARK  13 active torsions:
REMARK  status: ('A' for Active; 'I' for Inactive)
REMARK    1  A    between atoms: O_2  and  C_9
REMARK    2  A    between atoms: N_5  and  C_8
REMARK    3  A    between atoms: N_5  and  C_14
REMARK    4  A    between atoms: N_6  and  C_12
REMARK    5  A    between atoms: N_7  and  C_25
REMARK    6  A    between atoms: C_10  and  C_12
REMARK    7  A    between atoms: C_13  and  C_15
REMARK    8  A    between atoms: C_13  and  C_17
REMARK    9  A    between atoms: C_13  and  C_18
REMARK   10  A    between atoms: C_13  and  C_19
REMARK   11  A    between atoms: C_14  and  C_20
REMARK   12  A    between atoms: C_15  and  C_16
REMARK   13  A    between atoms: C_26  and  C_27
REMARK                            x       y       z     vdW  Elec       q    Type
REMARK                         _______ _______ _______ _____ _____    ______ ____
ROOT
ATOM      1  O   UNL     1      -0.490  -0.314  25.302  0.00  0.00    -0.371 OA
ATOM      8  C   UNL     1      -2.192  -1.970  25.322  0.00  0.00    +0.111 C 
ATOM      9  C   UNL     1      -1.592  -1.895  23.930  0.00  0.00    +0.164 C 
ATOM     10  C   UNL     1      -0.251  -1.235  24.225  0.00  0.00    +0.165 C 
ATOM     11  C   UNL     1      -1.750  -0.642  25.913  0.00  0.00    +0.181 C 
ENDROOT
BRANCH   9   2
ATOM      2  O   UNL     1      -1.434  -3.167  23.334  0.00  0.00    -0.388 OA
ATOM     30  H   UNL     1      -0.590  -3.177  22.852  0.00  0.00    +0.210 HD
ENDBRANCH   9   2
BRANCH   8   5
ATOM      5  N   UNL     1      -3.636  -2.139  25.326  0.00  0.00    -0.305 NA
ATOM     28  H   UNL     1      -4.009  -1.798  26.212  0.00  0.00    +0.123 HD
BRANCH   5  14
ATOM     14  C   UNL     1      -4.256  -1.396  24.235  0.00  0.00    +0.116 C 
BRANCH  14  20
ATOM     20  C   UNL     1      -3.955   0.076  24.318  0.00  0.00    -0.033 A 
ATOM     21  C   UNL     1      -3.160   0.682  23.345  0.00  0.00    +0.007 A 
ATOM     22  C   UNL     1      -4.471   0.835  25.370  0.00  0.00    +0.007 A 
ATOM     23  C   UNL     1      -2.880   2.046  23.423  0.00  0.00    +0.023 A 
ATOM     24  C   UNL     1      -4.191   2.200  25.448  0.00  0.00    +0.023 A 
ATOM     25  C   UNL     1      -3.396   2.805  24.475  0.00  0.00    +0.033 A 
BRANCH  25   7
ATOM      4  O   UNL     1      -0.900   4.240  25.358  0.00  0.00    -0.276 OA
ATOM      7  N   UNL     1      -3.115   4.169  24.553  0.00  0.00    -0.286 N 
ATOM     26  C   UNL     1      -1.930   4.787  24.975  0.00  0.00    +0.214 C 
ATOM     27  C   UNL     1      -2.030   6.290  24.912  0.00  0.00    +0.109 C 
ATOM     31  H   UNL     1      -3.874   4.786  24.266  0.00  0.00    +0.155 HD
ENDBRANCH  25   7
ENDBRANCH  14  20
ENDBRANCH   5  14
ENDBRANCH   8   5
BRANCH  10  12
ATOM     12  C   UNL     1       0.328  -0.493  23.033  0.00  0.00    +0.138 C 
BRANCH  12   6
ATOM      3  O   UNL     1       2.582  -0.135  21.249  0.00  0.00    -0.276 OA
ATOM      6  N   UNL     1       1.610   0.095  23.348  0.00  0.00    -0.313 N 
ATOM     16  C   UNL     1       2.632   0.224  22.425  0.00  0.00    +0.214 C 
ATOM     29  H   UNL     1       1.748   0.434  24.295  0.00  0.00    +0.149 HD
BRANCH  16  15
ATOM     15  C   UNL     1       3.881   0.867  23.006  0.00  0.00    +0.102 C 
BRANCH  15  13
ATOM     13  C   UNL     1       4.945  -0.134  23.517  0.00  0.00    -0.029 C 
ATOM     17  C   UNL     1       4.324  -1.505  23.832  0.00  0.00    +0.011 C 
ATOM     18  C   UNL     1       6.075  -0.314  22.490  0.00  0.00    +0.011 C 
ATOM     19  C   UNL     1       5.552   0.436  24.814  0.00  0.00    +0.011 C 
ENDBRANCH  15  13
ENDBRANCH  16  15
ENDBRANCH  12   6
ENDBRANCH  10  12
TORSDOF 9
ENDMDL
MODEL 4
REMARK VINA RESULT:      -2.7      2.038      6.846
REMARK  Name = 75536522
REMARK  13 active torsions:
REMARK  status: ('A' for Active; 'I' for Inactive)
REMARK    1  A    between atoms: O_2  and  C_9
REMARK    2  A    between atoms: N_5  and  C_8
REMARK    3  A    between atoms: N_5  and  C_14
REMARK    4  A    between atoms: N_6  and  C_12
REMARK    5  A    between atoms: N_7  and  C_25
REMARK    6  A    between atoms: C_10  and  C_12
REMARK    7  A    between atoms: C_13  and  C_15
REMARK    8  A    between atoms: C_13  and  C_17
REMARK    9  A    between atoms: C_13  and  C_18
REMARK   10  A    between atoms: C_13  and  C_19
REMARK   11  A    between atoms: C_14  and  C_20
REMARK   12  A    between atoms: C_15  and  C_16
REMARK   13  A    between atoms: C_26  and  C_27
REMARK                            x       y       z     vdW  Elec       q    Type
REMARK                         _______ _______ _______ _____ _____    ______ ____
ROOT
ATOM      1  O   UNL     1      -4.142   3.659  26.292  0.00  0.00    -0.371 OA
ATOM      8  C   UNL     1      -2.524   3.812  24.560  0.00  0.00    +0.111 C 
ATOM      9  C   UNL     1      -3.648   2.898  24.108  0.00  0.00    +0.164 C 
ATOM     10  C   UNL     1      -4.771   3.330  25.042  0.00  0.00    +0.165 C 
ATOM     11  C   UNL     1      -2.731   3.821  26.066  0.00  0.00    +0.181 C 
ENDROOT
BRANCH   9   2
ATOM      2  O   UNL     1      -3.992   3.087  22.749  0.00  0.00    -0.388 OA
ATOM     30  H   UNL     1      -4.673   3.779  22.699  0.00  0.00    +0.210 HD
ENDBRANCH   9   2
BRANCH   8   5
ATOM      5  N   UNL     1      -1.203   3.346  24.173  0.00  0.00    -0.305 NA
ATOM     28  H   UNL     1      -0.538   3.578  24.911  0.00  0.00    +0.123 HD
BRANCH   5  14
ATOM     14  C   UNL     1      -1.194   1.902  23.965  0.00  0.00    +0.116 C 
BRANCH  14  20
ATOM     20  C   UNL     1       0.185   1.392  23.643  0.00  0.00    -0.033 A 
ATOM     21  C   UNL     1       1.284   2.246  23.731  0.00  0.00    +0.007 A 
ATOM     22  C   UNL     1       0.363   0.063  23.255  0.00  0.00    +0.007 A 
ATOM     23  C   UNL     1       2.561   1.774  23.432  0.00  0.00    +0.023 A 
ATOM     24  C   UNL     1       1.642  -0.410  22.955  0.00  0.00    +0.023 A 
ATOM     25  C   UNL     1       2.740   0.445  23.044  0.00  0.00    +0.033 A 
BRANCH  25   7
ATOM      4  O   UNL     1       5.306   0.615  24.610  0.00  0.00    -0.276 OA
ATOM      7  N   UNL     1       4.017  -0.028  22.743  0.00  0.00    -0.286 N 
ATOM     26  C   UNL     1       5.184   0.081  23.512  0.00  0.00    +0.214 C 
ATOM     27  C   UNL     1       6.364  -0.566  22.832  0.00  0.00    +0.109 C 
ATOM     31  H   UNL     1       4.103  -0.511  21.851  0.00  0.00    +0.155 HD
ENDBRANCH  25   7
ENDBRANCH  14  20
ENDBRANCH   5  14
ENDBRANCH   8   5
BRANCH  10  12
ATOM     12  C   UNL     1      -5.817   2.252  25.262  0.00  0.00    +0.138 C 
BRANCH  12   6
ATOM      3  O   UNL     1      -3.615   0.470  25.868  0.00  0.00    -0.276 OA
ATOM      6  N   UNL     1      -5.467   1.027  24.579  0.00  0.00    -0.313 N 
ATOM     16  C   UNL     1      -4.390   0.238  24.942  0.00  0.00    +0.214 C 
ATOM     29  H   UNL     1      -6.055   0.741  23.803  0.00  0.00    +0.149 HD
BRANCH  16  15
ATOM     15  C   UNL     1      -4.230  -0.991  24.062  0.00  0.00    +0.102 C 
BRANCH  15  13
ATOM     13  C   UNL     1      -3.319  -2.094  24.652  0.00  0.00    -0.029 C 
ATOM     17  C   UNL     1      -1.867  -1.945  24.167  0.00  0.00    +0.011 C 
ATOM     18  C   UNL     1      -3.344  -2.070  26.189  0.00  0.00    +0.011 C 
ATOM     19  C   UNL     1      -3.853  -3.459  24.177  0.00  0.00    +0.011 C 
ENDBRANCH  15  13
ENDBRANCH  16  15
ENDBRANCH  12   6
ENDBRANCH  10  12
TORSDOF 9
ENDMDL
MODEL 5
REMARK VINA RESULT:      -2.7      2.287      6.206
REMARK  Name = 75536522
REMARK  13 active torsions:
REMARK  status: ('A' for Active; 'I' for Inactive)
REMARK    1  A    between atoms: O_2  and  C_9
REMARK    2  A    between atoms: N_5  and  C_8
REMARK    3  A    between atoms: N_5  and  C_14
REMARK    4  A    between atoms: N_6  and  C_12
REMARK    5  A    between atoms: N_7  and  C_25
REMARK    6  A    between atoms: C_10  and  C_12
REMARK    7  A    between atoms: C_13  and  C_15
REMARK    8  A    between atoms: C_13  and  C_17
REMARK    9  A    between atoms: C_13  and  C_18
REMARK   10  A    between atoms: C_13  and  C_19
REMARK   11  A    between atoms: C_14  and  C_20
REMARK   12  A    between atoms: C_15  and  C_16
REMARK   13  A    between atoms: C_26  and  C_27
REMARK                            x       y       z     vdW  Elec       q    Type
REMARK                         _______ _______ _______ _____ _____    ______ ____
ROOT
ATOM      1  O   UNL     1      -4.713   2.194  23.910  0.00  0.00    -0.371 OA
ATOM      8  C   UNL     1      -5.038   0.303  25.311  0.00  0.00    +0.111 C 
ATOM      9  C   UNL     1      -5.447   1.554  26.066  0.00  0.00    +0.164 C 
ATOM     10  C   UNL     1      -5.684   2.526  24.918  0.00  0.00    +0.165 C 
ATOM     11  C   UNL     1      -4.183   0.888  24.199  0.00  0.00    +0.181 C 
ENDROOT
BRANCH   9   2
ATOM      2  O   UNL     1      -6.611   1.366  26.845  0.00  0.00    -0.388 OA
ATOM     30  H   UNL     1      -7.049   0.550  26.550  0.00  0.00    +0.210 HD
ENDBRANCH   9   2
BRANCH   8   5
ATOM      5  N   UNL     1      -4.323  -0.663  26.127  0.00  0.00    -0.305 NA
ATOM     28  H   UNL     1      -4.981  -1.118  26.760  0.00  0.00    +0.123 HD
BRANCH   5  14
ATOM     14  C   UNL     1      -3.686  -1.682  25.298  0.00  0.00    +0.116 C 
BRANCH  14  20
ATOM     20  C   UNL     1      -2.300  -1.274  24.876  0.00  0.00    -0.033 A 
ATOM     21  C   UNL     1      -1.662  -1.947  23.834  0.00  0.00    +0.007 A 
ATOM     22  C   UNL     1      -1.653  -0.223  25.527  0.00  0.00    +0.007 A 
ATOM     23  C   UNL     1      -0.378  -1.570  23.443  0.00  0.00    +0.023 A 
ATOM     24  C   UNL     1      -0.368   0.154  25.136  0.00  0.00    +0.023 A 
ATOM     25  C   UNL     1       0.269  -0.519  24.094  0.00  0.00    +0.033 A 
BRANCH  25   7
ATOM      4  O   UNL     1       1.495  -0.301  21.352  0.00  0.00    -0.276 OA
ATOM      7  N   UNL     1       1.555  -0.142  23.704  0.00  0.00    -0.286 N 
ATOM     26  C   UNL     1       2.076  -0.059  22.405  0.00  0.00    +0.214 C 
ATOM     27  C   UNL     1       3.515   0.391  22.409  0.00  0.00    +0.109 C 
ATOM     31  H   UNL     1       2.186   0.101  24.465  0.00  0.00    +0.155 HD
ENDBRANCH  25   7
ENDBRANCH  14  20
ENDBRANCH   5  14
ENDBRANCH   8   5
BRANCH  10  12
ATOM     12  C   UNL     1      -5.527   3.982  25.321  0.00  0.00    +0.138 C 
BRANCH  12   6
ATOM      3  O   UNL     1      -3.153   3.878  26.978  0.00  0.00    -0.276 OA
ATOM      6  N   UNL     1      -4.209   4.481  24.999  0.00  0.00    -0.313 N 
ATOM     16  C   UNL     1      -3.130   4.386  25.859  0.00  0.00    +0.214 C 
ATOM     29  H   UNL     1      -4.083   4.912  24.088  0.00  0.00    +0.149 HD
BRANCH  16  15
ATOM     15  C   UNL     1      -1.859   4.994  25.289  0.00  0.00    +0.102 C 
BRANCH  15  13
ATOM     13  C   UNL     1      -0.859   3.969  24.703  0.00  0.00    -0.029 C 
ATOM     17  C   UNL     1      -0.113   3.210  25.813  0.00  0.00    +0.011 C 
ATOM     18  C   UNL     1      -1.574   2.958  23.790  0.00  0.00    +0.011 C 
ATOM     19  C   UNL     1       0.175   4.740  23.860  0.00  0.00    +0.011 C 
ENDBRANCH  15  13
ENDBRANCH  16  15
ENDBRANCH  12   6
ENDBRANCH  10  12
TORSDOF 9
ENDMDL
MODEL 6
REMARK VINA RESULT:      -2.2      2.188      2.911
REMARK  Name = 75536522
REMARK  13 active torsions:
REMARK  status: ('A' for Active; 'I' for Inactive)
REMARK    1  A    between atoms: O_2  and  C_9
REMARK    2  A    between atoms: N_5  and  C_8
REMARK    3  A    between atoms: N_5  and  C_14
REMARK    4  A    between atoms: N_6  and  C_12
REMARK    5  A    between atoms: N_7  and  C_25
REMARK    6  A    between atoms: C_10  and  C_12
REMARK    7  A    between atoms: C_13  and  C_15
REMARK    8  A    between atoms: C_13  and  C_17
REMARK    9  A    between atoms: C_13  and  C_18
REMARK   10  A    between atoms: C_13  and  C_19
REMARK   11  A    between atoms: C_14  and  C_20
REMARK   12  A    between atoms: C_15  and  C_16
REMARK   13  A    between atoms: C_26  and  C_27
REMARK                            x       y       z     vdW  Elec       q    Type
REMARK                         _______ _______ _______ _____ _____    ______ ____
ROOT
ATOM      1  O   UNL     1      -0.482   5.168  24.585  0.00  0.00    -0.371 OA
ATOM      8  C   UNL     1      -2.085   4.450  26.183  0.00  0.00    +0.111 C 
ATOM      9  C   UNL     1      -1.391   3.234  25.598  0.00  0.00    +0.164 C 
ATOM     10  C   UNL     1      -0.114   3.860  25.052  0.00  0.00    +0.165 C 
ATOM     11  C   UNL     1      -1.762   5.510  25.144  0.00  0.00    +0.181 C 
ENDROOT
BRANCH   9   2
ATOM      2  O   UNL     1      -1.119   2.241  26.567  0.00  0.00    -0.388 OA
ATOM     30  H   UNL     1      -1.688   2.401  27.338  0.00  0.00    +0.210 HD
ENDBRANCH   9   2
BRANCH   8   5
ATOM      5  N   UNL     1      -3.513   4.267  26.382  0.00  0.00    -0.305 NA
ATOM     28  H   UNL     1      -3.898   5.102  26.825  0.00  0.00    +0.123 HD
BRANCH   5  14
ATOM     14  C   UNL     1      -4.197   4.050  25.111  0.00  0.00    +0.116 C 
BRANCH  14  20
ATOM     20  C   UNL     1      -4.216   2.595  24.727  0.00  0.00    -0.033 A 
ATOM     21  C   UNL     1      -3.425   2.142  23.672  0.00  0.00    +0.007 A 
ATOM     22  C   UNL     1      -5.027   1.700  25.426  0.00  0.00    +0.007 A 
ATOM     23  C   UNL     1      -3.443   0.794  23.315  0.00  0.00    +0.023 A 
ATOM     24  C   UNL     1      -5.045   0.351  25.069  0.00  0.00    +0.023 A 
ATOM     25  C   UNL     1      -4.254  -0.102  24.014  0.00  0.00    +0.033 A 
BRANCH  25   7
ATOM      4  O   UNL     1      -3.664  -2.564  25.643  0.00  0.00    -0.276 OA
ATOM      7  N   UNL     1      -4.273  -1.450  23.657  0.00  0.00    -0.286 N 
ATOM     26  C   UNL     1      -3.986  -2.563  24.460  0.00  0.00    +0.214 C 
ATOM     27  C   UNL     1      -4.122  -3.855  23.694  0.00  0.00    +0.109 C 
ATOM     31  H   UNL     1      -4.528  -1.640  22.689  0.00  0.00    +0.155 HD
ENDBRANCH  25   7
ENDBRANCH  14  20
ENDBRANCH   5  14
ENDBRANCH   8   5
BRANCH  10  12
ATOM     12  C   UNL     1       0.506   3.065  23.916  0.00  0.00    +0.138 C 
BRANCH  12   6
ATOM      3  O   UNL     1      -0.164   0.617  22.519  0.00  0.00    -0.276 OA
ATOM      6  N   UNL     1       0.811   1.711  24.322  0.00  0.00    -0.313 N 
ATOM     16  C   UNL     1       0.448   0.598  23.585  0.00  0.00    +0.214 C 
ATOM     29  H   UNL     1       1.326   1.589  25.189  0.00  0.00    +0.149 HD
BRANCH  16  15
ATOM     15  C   UNL     1       0.877  -0.709  24.231  0.00  0.00    +0.102 C 
BRANCH  15  13
ATOM     13  C   UNL     1      -0.277  -1.539  24.841  0.00  0.00    -0.029 C 
ATOM     17  C   UNL     1      -1.184  -0.674  25.732  0.00  0.00    +0.011 C 
ATOM     18  C   UNL     1      -1.127  -2.197  23.741  0.00  0.00    +0.011 C 
ATOM     19  C   UNL     1       0.342  -2.651  25.710  0.00  0.00    +0.011 C 
ENDBRANCH  15  13
ENDBRANCH  16  15
ENDBRANCH  12   6
ENDBRANCH  10  12
TORSDOF 9
ENDMDL
MODEL 7
REMARK VINA RESULT:      -1.9      2.092      7.327
REMARK  Name = 75536522
REMARK  13 active torsions:
REMARK  status: ('A' for Active; 'I' for Inactive)
REMARK    1  A    between atoms: O_2  and  C_9
REMARK    2  A    between atoms: N_5  and  C_8
REMARK    3  A    between atoms: N_5  and  C_14
REMARK    4  A    between atoms: N_6  and  C_12
REMARK    5  A    between atoms: N_7  and  C_25
REMARK    6  A    between atoms: C_10  and  C_12
REMARK    7  A    between atoms: C_13  and  C_15
REMARK    8  A    between atoms: C_13  and  C_17
REMARK    9  A    between atoms: C_13  and  C_18
REMARK   10  A    between atoms: C_13  and  C_19
REMARK   11  A    between atoms: C_14  and  C_20
REMARK   12  A    between atoms: C_15  and  C_16
REMARK   13  A    between atoms: C_26  and  C_27
REMARK                            x       y       z     vdW  Elec       q    Type
REMARK                         _______ _______ _______ _____ _____    ______ ____
ROOT
ATOM      1  O   UNL     1      -5.009  -1.036  24.262  0.00  0.00    -0.371 OA
ATOM      8  C   UNL     1      -2.699  -1.582  24.353  0.00  0.00    +0.111 C 
ATOM      9  C   UNL     1      -2.913  -0.229  25.006  0.00  0.00    +0.164 C 
ATOM     10  C   UNL     1      -4.400  -0.293  25.331  0.00  0.00    +0.165 C 
ATOM     11  C   UNL     1      -3.975  -1.730  23.542  0.00  0.00    +0.181 C 
ENDROOT
BRANCH   9   2
ATOM      2  O   UNL     1      -2.127  -0.053  26.167  0.00  0.00    -0.388 OA
ATOM     30  H   UNL     1      -1.460   0.630  25.985  0.00  0.00    +0.210 HD
ENDBRANCH   9   2
BRANCH   8   5
ATOM      5  N   UNL     1      -1.498  -1.652  23.537  0.00  0.00    -0.305 NA
ATOM     28  H   UNL     1      -1.636  -2.343  22.799  0.00  0.00    +0.123 HD
BRANCH   5  14
ATOM     14  C   UNL     1      -1.201  -0.361  22.926  0.00  0.00    +0.116 C 
BRANCH  14  20
ATOM     20  C   UNL     1       0.267  -0.039  22.985  0.00  0.00    -0.033 A 
ATOM     21  C   UNL     1       1.167  -0.731  22.174  0.00  0.00    +0.007 A 
ATOM     22  C   UNL     1       0.730   0.952  23.852  0.00  0.00    +0.007 A 
ATOM     23  C   UNL     1       2.528  -0.433  22.228  0.00  0.00    +0.023 A 
ATOM     24  C   UNL     1       2.092   1.250  23.907  0.00  0.00    +0.023 A 
ATOM     25  C   UNL     1       2.991   0.558  23.096  0.00  0.00    +0.033 A 
BRANCH  25   7
ATOM      4  O   UNL     1       5.269  -0.942  24.372  0.00  0.00    -0.276 OA
ATOM      7  N   UNL     1       4.353   0.855  23.152  0.00  0.00    -0.286 N 
ATOM     26  C   UNL     1       5.375   0.118  23.764  0.00  0.00    +0.214 C 
ATOM     27  C   UNL     1       6.719   0.783  23.599  0.00  0.00    +0.109 C 
ATOM     31  H   UNL     1       4.628   1.719  22.687  0.00  0.00    +0.155 HD
ENDBRANCH  25   7
ENDBRANCH  14  20
ENDBRANCH   5  14
ENDBRANCH   8   5
BRANCH  10  12
ATOM     12  C   UNL     1      -5.050   1.075  25.441  0.00  0.00    +0.138 C 
BRANCH  12   6
ATOM      3  O   UNL     1      -5.422   3.946  25.315  0.00  0.00    -0.276 OA
ATOM      6  N   UNL     1      -4.078   2.100  25.747  0.00  0.00    -0.313 N 
ATOM     16  C   UNL     1      -4.348   3.454  25.657  0.00  0.00    +0.214 C 
ATOM     29  H   UNL     1      -3.158   1.795  26.051  0.00  0.00    +0.149 HD
BRANCH  16  15
ATOM     15  C   UNL     1      -3.157   4.325  26.024  0.00  0.00    +0.102 C 
BRANCH  15  13
ATOM     13  C   UNL     1      -1.848   3.976  25.278  0.00  0.00    -0.029 C 
ATOM     17  C   UNL     1      -0.918   3.111  26.145  0.00  0.00    +0.011 C 
ATOM     18  C   UNL     1      -2.140   3.241  23.959  0.00  0.00    +0.011 C 
ATOM     19  C   UNL     1      -1.120   5.295  24.949  0.00  0.00    +0.011 C 
ENDBRANCH  15  13
ENDBRANCH  16  15
ENDBRANCH  12   6
ENDBRANCH  10  12
TORSDOF 9
ENDMDL
MODEL 8
REMARK VINA RESULT:      -1.8      2.998      7.541
REMARK  Name = 75536522
REMARK  13 active torsions:
REMARK  status: ('A' for Active; 'I' for Inactive)
REMARK    1  A    between atoms: O_2  and  C_9
REMARK    2  A    between atoms: N_5  and  C_8
REMARK    3  A    between atoms: N_5  and  C_14
REMARK    4  A    between atoms: N_6  and  C_12
REMARK    5  A    between atoms: N_7  and  C_25
REMARK    6  A    between atoms: C_10  and  C_12
REMARK    7  A    between atoms: C_13  and  C_15
REMARK    8  A    between atoms: C_13  and  C_17
REMARK    9  A    between atoms: C_13  and  C_18
REMARK   10  A    between atoms: C_13  and  C_19
REMARK   11  A    between atoms: C_14  and  C_20
REMARK   12  A    between atoms: C_15  and  C_16
REMARK   13  A    between atoms: C_26  and  C_27
REMARK                            x       y       z     vdW  Elec       q    Type
REMARK                         _______ _______ _______ _____ _____    ______ ____
ROOT
ATOM      1  O   UNL     1      -2.906  -2.908  23.525  0.00  0.00    -0.371 OA
ATOM      8  C   UNL     1      -1.418  -2.465  25.323  0.00  0.00    +0.111 C 
ATOM      9  C   UNL     1      -2.622  -1.550  25.442  0.00  0.00    +0.164 C 
ATOM     10  C   UNL     1      -3.645  -2.301  24.598  0.00  0.00    +0.165 C 
ATOM     11  C   UNL     1      -1.509  -2.896  23.869  0.00  0.00    +0.181 C 
ENDROOT
BRANCH   9   2
ATOM      2  O   UNL     1      -3.057  -1.390  26.777  0.00  0.00    -0.388 OA
ATOM     30  H   UNL     1      -3.218  -2.271  27.155  0.00  0.00    +0.210 HD
ENDBRANCH   9   2
BRANCH   8   5
ATOM      5  N   UNL     1      -0.158  -1.815  25.643  0.00  0.00    -0.305 NA
ATOM     28  H   UNL     1       0.516  -2.522  25.939  0.00  0.00    +0.123 HD
BRANCH   5  14
ATOM     14  C   UNL     1       0.378  -1.108  24.485  0.00  0.00    +0.116 C 
BRANCH  14  20
ATOM     20  C   UNL     1       0.017   0.353  24.506  0.00  0.00    -0.033 A 
ATOM     21  C   UNL     1      -0.298   0.977  25.713  0.00  0.00    +0.007 A 
ATOM     22  C   UNL     1      -0.005   1.083  23.316  0.00  0.00    +0.007 A 
ATOM     23  C   UNL     1      -0.633   2.331  25.732  0.00  0.00    +0.023 A 
ATOM     24  C   UNL     1      -0.341   2.437  23.335  0.00  0.00    +0.023 A 
ATOM     25  C   UNL     1      -0.655   3.061  24.542  0.00  0.00    +0.033 A 
BRANCH  25   7
ATOM      4  O   UNL     1      -2.656   4.555  26.225  0.00  0.00    -0.276 OA
ATOM      7  N   UNL     1      -0.992   4.414  24.561  0.00  0.00    -0.286 N 
ATOM     26  C   UNL     1      -1.938   5.060  25.369  0.00  0.00    +0.214 C 
ATOM     27  C   UNL     1      -2.002   6.539  25.080  0.00  0.00    +0.109 C 
ATOM     31  H   UNL     1      -0.481   4.998  23.901  0.00  0.00    +0.155 HD
ENDBRANCH  25   7
ENDBRANCH  14  20
ENDBRANCH   5  14
ENDBRANCH   8   5
BRANCH  10  12
ATOM     12  C   UNL     1      -4.730  -1.403  24.031  0.00  0.00    +0.138 C 
BRANCH  12   6
ATOM      3  O   UNL     1      -3.413   1.027  23.163  0.00  0.00    -0.276 OA
ATOM      6  N   UNL     1      -4.747  -0.115  24.685  0.00  0.00    -0.313 N 
ATOM     16  C   UNL     1      -4.084   0.995  24.193  0.00  0.00    +0.214 C 
ATOM     29  H   UNL     1      -5.285  -0.034  25.543  0.00  0.00    +0.149 HD
BRANCH  16  15
ATOM     15  C   UNL     1      -4.251   2.226  25.070  0.00  0.00    +0.102 C 
BRANCH  15  13
ATOM     13  C   UNL     1      -5.713   2.551  25.455  0.00  0.00    -0.029 C 
ATOM     17  C   UNL     1      -6.709   1.952  24.449  0.00  0.00    +0.011 C 
ATOM     18  C   UNL     1      -6.043   2.031  26.865  0.00  0.00    +0.011 C 
ATOM     19  C   UNL     1      -5.879   4.083  25.451  0.00  0.00    +0.011 C 
ENDBRANCH  15  13
ENDBRANCH  16  15
ENDBRANCH  12   6
ENDBRANCH  10  12
TORSDOF 9
ENDMDL
MODEL 9
REMARK VINA RESULT:      -0.8      2.343      5.457
REMARK  Name = 75536522
REMARK  13 active torsions:
REMARK  status: ('A' for Active; 'I' for Inactive)
REMARK    1  A    between atoms: O_2  and  C_9
REMARK    2  A    between atoms: N_5  and  C_8
REMARK    3  A    between atoms: N_5  and  C_14
REMARK    4  A    between atoms: N_6  and  C_12
REMARK    5  A    between atoms: N_7  and  C_25
REMARK    6  A    between atoms: C_10  and  C_12
REMARK    7  A    between atoms: C_13  and  C_15
REMARK    8  A    between atoms: C_13  and  C_17
REMARK    9  A    between atoms: C_13  and  C_18
REMARK   10  A    between atoms: C_13  and  C_19
REMARK   11  A    between atoms: C_14  and  C_20
REMARK   12  A    between atoms: C_15  and  C_16
REMARK   13  A    between atoms: C_26  and  C_27
REMARK                            x       y       z     vdW  Elec       q    Type
REMARK                         _______ _______ _______ _____ _____    ______ ____
ROOT
ATOM      1  O   UNL     1      -4.288   3.776  24.192  0.00  0.00    -0.371 OA
ATOM      8  C   UNL     1      -5.578   1.810  24.528  0.00  0.00    +0.111 C 
ATOM      9  C   UNL     1      -5.147   2.356  25.877  0.00  0.00    +0.164 C 
ATOM     10  C   UNL     1      -4.834   3.803  25.521  0.00  0.00    +0.165 C 
ATOM     11  C   UNL     1      -4.599   2.504  23.596  0.00  0.00    +0.181 C 
ENDROOT
BRANCH   9   2
ATOM      2  O   UNL     1      -6.165   2.262  26.854  0.00  0.00    -0.388 OA
ATOM     30  H   UNL     1      -6.944   1.847  26.446  0.00  0.00    +0.210 HD
ENDBRANCH   9   2
BRANCH   8   5
ATOM      5  N   UNL     1      -5.515   0.361  24.438  0.00  0.00    -0.305 NA
ATOM     28  H   UNL     1      -5.064   0.100  23.560  0.00  0.00    +0.123 HD
BRANCH   5  14
ATOM     14  C   UNL     1      -4.750  -0.202  25.546  0.00  0.00    +0.116 C 
BRANCH  14  20
ATOM     20  C   UNL     1      -3.307  -0.416  25.179  0.00  0.00    -0.033 A 
ATOM     21  C   UNL     1      -2.934  -0.509  23.838  0.00  0.00    +0.007 A 
ATOM     22  C   UNL     1      -2.341  -0.521  26.180  0.00  0.00    +0.007 A 
ATOM     23  C   UNL     1      -1.597  -0.708  23.497  0.00  0.00    +0.023 A 
ATOM     24  C   UNL     1      -1.002  -0.721  25.839  0.00  0.00    +0.023 A 
ATOM     25  C   UNL     1      -0.631  -0.814  24.498  0.00  0.00    +0.033 A 
BRANCH  25   7
ATOM      4  O   UNL     1       0.931   0.095  22.089  0.00  0.00    -0.276 OA
ATOM      7  N   UNL     1       0.708  -1.014  24.158  0.00  0.00    -0.286 N 
ATOM     26  C   UNL     1       1.387  -0.567  23.016  0.00  0.00    +0.214 C 
ATOM     27  C   UNL     1       2.833  -0.995  23.023  0.00  0.00    +0.109 C 
ATOM     31  H   UNL     1       1.251  -1.553  24.830  0.00  0.00    +0.155 HD
ENDBRANCH  25   7
ENDBRANCH  14  20
ENDBRANCH   5  14
ENDBRANCH   8   5
BRANCH  10  12
ATOM     12  C   UNL     1      -3.843   4.454  26.470  0.00  0.00    +0.138 C 
BRANCH  12   6
ATOM      3  O   UNL     1      -2.129   6.155  24.870  0.00  0.00    -0.276 OA
ATOM      6  N   UNL     1      -2.479   4.196  26.069  0.00  0.00    -0.313 N 
ATOM     16  C   UNL     1      -1.735   5.072  25.299  0.00  0.00    +0.214 C 
ATOM     29  H   UNL     1      -2.056   3.327  26.384  0.00  0.00    +0.149 HD
BRANCH  16  15
ATOM     15  C   UNL     1      -0.332   4.565  25.007  0.00  0.00    +0.102 C 
BRANCH  15  13
ATOM     13  C   UNL     1      -0.214   3.028  24.883  0.00  0.00    -0.029 C 
ATOM     17  C   UNL     1       1.053   2.620  24.112  0.00  0.00    +0.011 C 
ATOM     18  C   UNL     1      -0.200   2.359  26.268  0.00  0.00    +0.011 C 
ATOM     19  C   UNL     1      -1.443   2.515  24.107  0.00  0.00    +0.011 C 
ENDBRANCH  15  13
ENDBRANCH  16  15
ENDBRANCH  12   6
ENDBRANCH  10  12
TORSDOF 9
ENDMDL
MODEL 10
REMARK VINA RESULT:      -0.4      2.303      8.266
REMARK  Name = 75536522
REMARK  13 active torsions:
REMARK  status: ('A' for Active; 'I' for Inactive)
REMARK    1  A    between atoms: O_2  and  C_9
REMARK    2  A    between atoms: N_5  and  C_8
REMARK    3  A    between atoms: N_5  and  C_14
REMARK    4  A    between atoms: N_6  and  C_12
REMARK    5  A    between atoms: N_7  and  C_25
REMARK    6  A    between atoms: C_10  and  C_12
REMARK    7  A    between atoms: C_13  and  C_15
REMARK    8  A    between atoms: C_13  and  C_17
REMARK    9  A    between atoms: C_13  and  C_18
REMARK   10  A    between atoms: C_13  and  C_19
REMARK   11  A    between atoms: C_14  and  C_20
REMARK   12  A    between atoms: C_15  and  C_16
REMARK   13  A    between atoms: C_26  and  C_27
REMARK                            x       y       z     vdW  Elec       q    Type
REMARK                         _______ _______ _______ _____ _____    ______ ____
ROOT
ATOM      1  O   UNL     1      -1.991  -2.573  24.263  0.00  0.00    -0.371 OA
ATOM      8  C   UNL     1      -0.208  -1.023  24.509  0.00  0.00    +0.111 C 
ATOM      9  C   UNL     1      -1.346  -0.616  25.426  0.00  0.00    +0.164 C 
ATOM     10  C   UNL     1      -2.112  -1.928  25.542  0.00  0.00    +0.165 C 
ATOM     11  C   UNL     1      -0.921  -1.945  23.534  0.00  0.00    +0.181 C 
ENDROOT
BRANCH   9   2
ATOM      2  O   UNL     1      -0.896  -0.156  26.684  0.00  0.00    -0.388 OA
ATOM     30  H   UNL     1      -1.226   0.748  26.816  0.00  0.00    +0.210 HD
ENDBRANCH   9   2
BRANCH   8   5
ATOM      5  N   UNL     1       0.442   0.100  23.853  0.00  0.00    -0.305 NA
ATOM     28  H   UNL     1       1.056   0.566  24.521  0.00  0.00    +0.123 HD
BRANCH   5  14
ATOM     14  C   UNL     1       1.236  -0.345  22.713  0.00  0.00    +0.116 C 
BRANCH  14  20
ATOM     20  C   UNL     1       2.712  -0.195  22.966  0.00  0.00    -0.033 A 
ATOM     21  C   UNL     1       3.363   0.988  22.617  0.00  0.00    +0.007 A 
ATOM     22  C   UNL     1       3.429  -1.240  23.548  0.00  0.00    +0.007 A 
ATOM     23  C   UNL     1       4.731   1.127  22.850  0.00  0.00    +0.023 A 
ATOM     24  C   UNL     1       4.798  -1.102  23.781  0.00  0.00    +0.023 A 
ATOM     25  C   UNL     1       5.448   0.082  23.432  0.00  0.00    +0.033 A 
BRANCH  25   7
ATOM      4  O   UNL     1       7.804  -1.193  22.056  0.00  0.00    -0.276 OA
ATOM      7  N   UNL     1       6.817   0.220  23.665  0.00  0.00    -0.286 N 
ATOM     26  C   UNL     1       7.877  -0.402  22.991  0.00  0.00    +0.214 C 
ATOM     27  C   UNL     1       9.215   0.015  23.548  0.00  0.00    +0.109 C 
ATOM     31  H   UNL     1       7.067   0.855  24.421  0.00  0.00    +0.155 HD
ENDBRANCH  25   7
ENDBRANCH  14  20
ENDBRANCH   5  14
ENDBRANCH   8   5
BRANCH  10  12
ATOM     12  C   UNL     1      -3.579  -1.739  25.885  0.00  0.00    +0.138 C 
BRANCH  12   6
ATOM      3  O   UNL     1      -4.189  -0.335  23.425  0.00  0.00    -0.276 OA
ATOM      6  N   UNL     1      -3.983  -0.359  25.740  0.00  0.00    -0.313 N 
ATOM     16  C   UNL     1      -4.254   0.228  24.517  0.00  0.00    +0.214 C 
ATOM     29  H   UNL     1      -4.076   0.192  26.588  0.00  0.00    +0.149 HD
BRANCH  16  15
ATOM     15  C   UNL     1      -4.650   1.691  24.633  0.00  0.00    +0.102 C 
BRANCH  15  13
ATOM     13  C   UNL     1      -3.532   2.694  24.261  0.00  0.00    -0.029 C 
ATOM     17  C   UNL     1      -2.502   2.836  25.394  0.00  0.00    +0.011 C 
ATOM     18  C   UNL     1      -2.811   2.267  22.971  0.00  0.00    +0.011 C 
ATOM     19  C   UNL     1      -4.185   4.069  24.022  0.00  0.00    +0.011 C 
ENDBRANCH  15  13
ENDBRANCH  16  15
ENDBRANCH  12   6
ENDBRANCH  10  12
TORSDOF 9
ENDMDL
