MODEL 1
REMARK VINA RESULT:       2.1      0.000      0.000
REMARK  Name = 45783645
REMARK  9 active torsions:
REMARK  status: ('A' for Active; 'I' for Inactive)
REMARK    1  A    between atoms: O_2  and  C_32
REMARK    2  A    between atoms: O_2  and  C_33
REMARK    3  A    between atoms: N_4  and  C_14
REMARK    4  A    between atoms: N_5  and  C_23
REMARK    5  A    between atoms: N_9  and  C_30
REMARK    6  A    between atoms: C_10  and  C_15
REMARK    7  A    between atoms: C_14  and  C_16
REMARK    8  A    between atoms: C_21  and  C_26
REMARK    9  A    between atoms: C_31  and  C_32
REMARK                            x       y       z     vdW  Elec       q    Type
REMARK                         _______ _______ _______ _____ _____    ______ ____
ROOT
ATOM      1  O   UNL     1      -2.866   1.971  22.334  0.00  0.00    -0.336 OA
ATOM      6  N   UNL     1      -1.421   2.087  24.041  0.00  0.00    -0.190 NA
ATOM      7  N   UNL     1      -1.696   1.334  21.898  0.00  0.00    -0.056 NA
ATOM     15  C   UNL     1      -2.619   2.385  23.604  0.00  0.00    +0.245 A 
ATOM     21  C   UNL     1      -0.892   1.444  22.961  0.00  0.00    +0.204 A 
ENDROOT
BRANCH  21  26
ATOM      8  N   UNL     1       2.787   1.259  23.464  0.00  0.00    -0.239 NA
ATOM     26  C   UNL     1       0.444   0.922  22.974  0.00  0.00    +0.041 A 
ATOM     27  C   UNL     1       0.713  -0.369  22.535  0.00  0.00    +0.016 A 
ATOM     28  C   UNL     1       1.506   1.689  23.425  0.00  0.00    +0.124 A 
ATOM     29  C   UNL     1       2.019  -0.847  22.559  0.00  0.00    +0.044 A 
ATOM     30  C   UNL     1       3.011  -0.001  23.029  0.00  0.00    +0.125 A 
BRANCH  30   9
ATOM      3  O   UNL     1       5.387   0.845  24.669  0.00  0.00    -0.273 OA
ATOM      9  N   UNL     1       4.321  -0.492  23.049  0.00  0.00    -0.268 N 
ATOM     31  C   UNL     1       5.391  -0.058  23.838  0.00  0.00    +0.244 C 
ATOM     34  H   UNL     1       4.494  -1.259  22.404  0.00  0.00    +0.156 HD
BRANCH  31  32
ATOM     32  C   UNL     1       6.657  -0.840  23.562  0.00  0.00    +0.255 C 
BRANCH  32   2
ATOM      2  O   UNL     1       7.488  -0.079  22.711  0.00  0.00    -0.374 OA
ATOM     33  C   UNL     1       8.857  -0.165  23.092  0.00  0.00    +0.194 C 
ENDBRANCH  32   2
ENDBRANCH  31  32
ENDBRANCH  30   9
ENDBRANCH  21  26
BRANCH  15  10
ATOM      4  N   UNL     1      -4.146   2.454  25.568  0.00  0.00    -0.287 NA
ATOM     10  C   UNL     1      -3.745   3.112  24.307  0.00  0.00    +0.146 C 
ATOM     11  C   UNL     1      -3.362   4.546  24.719  0.00  0.00    +0.030 C 
ATOM     12  C   UNL     1      -4.648   3.511  26.444  0.00  0.00    +0.085 C 
ATOM     13  C   UNL     1      -3.637   4.617  26.214  0.00  0.00    +0.017 C 
BRANCH   4  14
ATOM     14  C   UNL     1      -5.123   1.391  25.374  0.00  0.00    +0.122 C 
BRANCH  14  16
ATOM      5  N   UNL     1      -4.140  -1.855  23.947  0.00  0.00    -0.349 N 
ATOM     16  C   UNL     1      -4.474   0.106  24.931  0.00  0.00    -0.008 A 
ATOM     17  C   UNL     1      -3.170  -0.346  25.274  0.00  0.00    +0.004 A 
ATOM     18  C   UNL     1      -5.046  -0.843  24.115  0.00  0.00    +0.091 A 
ATOM     19  C   UNL     1      -2.985  -1.578  24.644  0.00  0.00    +0.049 A 
ATOM     20  C   UNL     1      -2.124   0.177  26.060  0.00  0.00    +0.010 A 
ATOM     22  C   UNL     1      -1.802  -2.317  24.762  0.00  0.00    +0.026 A 
ATOM     23  C   UNL     1      -4.378  -3.038  23.150  0.00  0.00    +0.149 C 
ATOM     24  C   UNL     1      -0.937  -0.551  26.188  0.00  0.00    +0.001 A 
ATOM     25  C   UNL     1      -0.780  -1.779  25.549  0.00  0.00    +0.002 A 
ENDBRANCH  14  16
ENDBRANCH   4  14
ENDBRANCH  15  10
TORSDOF 7
ENDMDL
MODEL 2
REMARK VINA RESULT:       2.6      1.276      2.150
REMARK  Name = 45783645
REMARK  9 active torsions:
REMARK  status: ('A' for Active; 'I' for Inactive)
REMARK    1  A    between atoms: O_2  and  C_32
REMARK    2  A    between atoms: O_2  and  C_33
REMARK    3  A    between atoms: N_4  and  C_14
REMARK    4  A    between atoms: N_5  and  C_23
REMARK    5  A    between atoms: N_9  and  C_30
REMARK    6  A    between atoms: C_10  and  C_15
REMARK    7  A    between atoms: C_14  and  C_16
REMARK    8  A    between atoms: C_21  and  C_26
REMARK    9  A    between atoms: C_31  and  C_32
REMARK                            x       y       z     vdW  Elec       q    Type
REMARK                         _______ _______ _______ _____ _____    ______ ____
ROOT
ATOM      1  O   UNL     1      -2.261   4.049  24.739  0.00  0.00    -0.336 OA
ATOM      6  N   UNL     1      -2.192   2.010  23.814  0.00  0.00    -0.190 NA
ATOM      7  N   UNL     1      -0.904   3.717  24.629  0.00  0.00    -0.056 NA
ATOM     15  C   UNL     1      -2.950   2.990  24.238  0.00  0.00    +0.245 A 
ATOM     21  C   UNL     1      -0.946   2.502  24.074  0.00  0.00    +0.204 A 
ENDROOT
BRANCH  21  26
ATOM      8  N   UNL     1       2.638   1.709  23.483  0.00  0.00    -0.239 NA
ATOM     26  C   UNL     1       0.239   1.752  23.769  0.00  0.00    +0.041 A 
ATOM     27  C   UNL     1       0.171   0.396  23.472  0.00  0.00    +0.016 A 
ATOM     28  C   UNL     1       1.485   2.357  23.762  0.00  0.00    +0.124 A 
ATOM     29  C   UNL     1       1.336  -0.305  23.180  0.00  0.00    +0.044 A 
ATOM     30  C   UNL     1       2.534   0.392  23.199  0.00  0.00    +0.125 A 
BRANCH  30   9
ATOM      3  O   UNL     1       5.274   0.531  24.434  0.00  0.00    -0.273 OA
ATOM      9  N   UNL     1       3.701  -0.323  22.903  0.00  0.00    -0.268 N 
ATOM     31  C   UNL     1       4.954  -0.216  23.514  0.00  0.00    +0.244 C 
ATOM     34  H   UNL     1       3.601  -0.997  22.148  0.00  0.00    +0.156 HD
BRANCH  31  32
ATOM     32  C   UNL     1       5.968  -1.159  22.904  0.00  0.00    +0.255 C 
BRANCH  32   2
ATOM      2  O   UNL     1       6.986  -0.398  22.290  0.00  0.00    -0.374 OA
ATOM     33  C   UNL     1       8.214  -0.479  23.006  0.00  0.00    +0.194 C 
ENDBRANCH  32   2
ENDBRANCH  31  32
ENDBRANCH  30   9
ENDBRANCH  21  26
BRANCH  15  10
ATOM      4  N   UNL     1      -5.085   2.304  25.317  0.00  0.00    -0.287 NA
ATOM     10  C   UNL     1      -4.459   3.104  24.244  0.00  0.00    +0.146 C 
ATOM     11  C   UNL     1      -4.946   4.543  24.494  0.00  0.00    +0.030 C 
ATOM     12  C   UNL     1      -6.324   2.993  25.677  0.00  0.00    +0.085 C 
ATOM     13  C   UNL     1      -5.885   4.444  25.687  0.00  0.00    +0.017 C 
BRANCH   4  14
ATOM     14  C   UNL     1      -5.318   0.917  24.938  0.00  0.00    +0.122 C 
BRANCH  14  16
ATOM      5  N   UNL     1      -2.121  -0.645  25.875  0.00  0.00    -0.349 N 
ATOM     16  C   UNL     1      -4.095   0.064  25.149  0.00  0.00    -0.008 A 
ATOM     17  C   UNL     1      -3.838  -1.208  24.566  0.00  0.00    +0.004 A 
ATOM     18  C   UNL     1      -3.021   0.384  25.948  0.00  0.00    +0.091 A 
ATOM     19  C   UNL     1      -2.594  -1.631  25.037  0.00  0.00    +0.049 A 
ATOM     20  C   UNL     1      -4.548  -2.043  23.681  0.00  0.00    +0.010 A 
ATOM     22  C   UNL     1      -2.021  -2.852  24.666  0.00  0.00    +0.026 A 
ATOM     23  C   UNL     1      -0.859  -0.677  26.581  0.00  0.00    +0.149 C 
ATOM     24  C   UNL     1      -3.987  -3.267  23.300  0.00  0.00    +0.001 A 
ATOM     25  C   UNL     1      -2.743  -3.664  23.786  0.00  0.00    +0.002 A 
ENDBRANCH  14  16
ENDBRANCH   4  14
ENDBRANCH  15  10
TORSDOF 7
ENDMDL
MODEL 3
REMARK VINA RESULT:       5.7      1.488      1.923
REMARK  Name = 45783645
REMARK  9 active torsions:
REMARK  status: ('A' for Active; 'I' for Inactive)
REMARK    1  A    between atoms: O_2  and  C_32
REMARK    2  A    between atoms: O_2  and  C_33
REMARK    3  A    between atoms: N_4  and  C_14
REMARK    4  A    between atoms: N_5  and  C_23
REMARK    5  A    between atoms: N_9  and  C_30
REMARK    6  A    between atoms: C_10  and  C_15
REMARK    7  A    between atoms: C_14  and  C_16
REMARK    8  A    between atoms: C_21  and  C_26
REMARK    9  A    between atoms: C_31  and  C_32
REMARK                            x       y       z     vdW  Elec       q    Type
REMARK                         _______ _______ _______ _____ _____    ______ ____
ROOT
ATOM      1  O   UNL     1      -2.989   3.783  25.032  0.00  0.00    -0.336 OA
ATOM      6  N   UNL     1      -2.604   1.784  24.096  0.00  0.00    -0.190 NA
ATOM      7  N   UNL     1      -1.608   3.717  24.808  0.00  0.00    -0.056 NA
ATOM     15  C   UNL     1      -3.499   2.605  24.586  0.00  0.00    +0.245 A 
ATOM     21  C   UNL     1      -1.459   2.510  24.255  0.00  0.00    +0.204 A 
ENDROOT
BRANCH  21  26
ATOM      8  N   UNL     1       2.190   2.364  23.556  0.00  0.00    -0.239 NA
ATOM     26  C   UNL     1      -0.181   1.998  23.850  0.00  0.00    +0.041 A 
ATOM     27  C   UNL     1      -0.048   0.698  23.376  0.00  0.00    +0.016 A 
ATOM     28  C   UNL     1       0.958   2.784  23.920  0.00  0.00    +0.124 A 
ATOM     29  C   UNL     1       1.204   0.230  22.991  0.00  0.00    +0.044 A 
ATOM     30  C   UNL     1       2.281   1.094  23.099  0.00  0.00    +0.125 A 
BRANCH  30   9
ATOM      3  O   UNL     1       3.645  -1.518  23.705  0.00  0.00    -0.273 OA
ATOM      9  N   UNL     1       3.536   0.613  22.709  0.00  0.00    -0.268 N 
ATOM     31  C   UNL     1       4.123  -0.617  23.022  0.00  0.00    +0.244 C 
ATOM     34  H   UNL     1       4.070   1.254  22.126  0.00  0.00    +0.156 HD
BRANCH  31  32
ATOM     32  C   UNL     1       5.501  -0.763  22.415  0.00  0.00    +0.255 C 
BRANCH  32   2
ATOM      2  O   UNL     1       6.449  -0.193  23.292  0.00  0.00    -0.374 OA
ATOM     33  C   UNL     1       6.100  -0.401  24.657  0.00  0.00    +0.194 C 
ENDBRANCH  32   2
ENDBRANCH  31  32
ENDBRANCH  30   9
ENDBRANCH  21  26
BRANCH  15  10
ATOM      4  N   UNL     1      -5.371   1.062  25.144  0.00  0.00    -0.287 NA
ATOM     10  C   UNL     1      -4.997   2.426  24.716  0.00  0.00    +0.146 C 
ATOM     11  C   UNL     1      -5.616   3.353  25.780  0.00  0.00    +0.030 C 
ATOM     12  C   UNL     1      -6.624   1.191  25.887  0.00  0.00    +0.085 C 
ATOM     13  C   UNL     1      -6.365   2.427  26.726  0.00  0.00    +0.017 C 
BRANCH   4  14
ATOM     14  C   UNL     1      -5.483   0.124  24.035  0.00  0.00    +0.122 C 
BRANCH  14  16
ATOM      5  N   UNL     1      -3.449  -2.935  23.845  0.00  0.00    -0.349 N 
ATOM     16  C   UNL     1      -4.475  -0.989  24.137  0.00  0.00    -0.008 A 
ATOM     17  C   UNL     1      -3.275  -0.978  24.901  0.00  0.00    +0.004 A 
ATOM     18  C   UNL     1      -4.554  -2.206  23.499  0.00  0.00    +0.091 A 
ATOM     19  C   UNL     1      -2.650  -2.210  24.701  0.00  0.00    +0.049 A 
ATOM     20  C   UNL     1      -2.658  -0.034  25.746  0.00  0.00    +0.010 A 
ATOM     22  C   UNL     1      -1.434  -2.548  25.307  0.00  0.00    +0.026 A 
ATOM     23  C   UNL     1      -3.174  -4.275  23.372  0.00  0.00    +0.149 C 
ATOM     24  C   UNL     1      -1.443  -0.358  26.359  0.00  0.00    +0.001 A 
ATOM     25  C   UNL     1      -0.842  -1.596  26.141  0.00  0.00    +0.002 A 
ENDBRANCH  14  16
ENDBRANCH   4  14
ENDBRANCH  15  10
TORSDOF 7
ENDMDL
