MODEL 1
REMARK VINA RESULT:      -6.4      0.000      0.000
REMARK  Name = 75366956
REMARK  10 active torsions:
REMARK  status: ('A' for Active; 'I' for Inactive)
REMARK    1  A    between atoms: O_2  and  C_11
REMARK    2  A    between atoms: O_5  and  C_20
REMARK    3  A    between atoms: O_5  and  C_23
REMARK    4  A    between atoms: N_6  and  C_15
REMARK    5  A    between atoms: N_8  and  C_21
REMARK    6  A    between atoms: C_9  and  C_14
REMARK    7  A    between atoms: C_10  and  C_15
REMARK    8  A    between atoms: C_14  and  C_16
REMARK    9  A    between atoms: C_19  and  C_20
REMARK   10  A    between atoms: C_21  and  C_22
REMARK                            x       y       z     vdW  Elec       q    Type
REMARK                         _______ _______ _______ _____ _____    ______ ____
ROOT
ATOM      1  O   UNL     1      -2.644   0.134  24.970  0.00  0.00    -0.369 OA
ATOM      9  C   UNL     1      -3.768   0.086  24.088  0.00  0.00    +0.125 C 
ATOM     10  C   UNL     1      -1.630  -0.847  24.720  0.00  0.00    +0.164 C 
ATOM     11  C   UNL     1      -2.210  -2.267  24.732  0.00  0.00    +0.145 C 
ATOM     12  C   UNL     1      -4.449  -1.279  24.157  0.00  0.00    +0.034 C 
ATOM     13  C   UNL     1      -3.453  -2.395  23.856  0.00  0.00    +0.036 C 
ENDROOT
BRANCH  11   2
ATOM      2  O   UNL     1      -2.585  -2.599  26.072  0.00  0.00    -0.389 OA
ATOM     24  H   UNL     1      -3.509  -2.321  26.195  0.00  0.00    +0.210 HD
ENDBRANCH  11   2
BRANCH   9  14
ATOM     14  C   UNL     1      -4.727   1.194  24.506  0.00  0.00    +0.090 C 
BRANCH  14  16
ATOM      3  O   UNL     1      -3.513   4.160  26.154  0.00  0.00    -0.357 OA
ATOM      7  N   UNL     1      -4.396   3.093  26.034  0.00  0.00    -0.083 NA
ATOM     16  C   UNL     1      -3.992   2.430  24.946  0.00  0.00    +0.086 A 
ATOM     17  C   UNL     1      -2.871   3.027  24.344  0.00  0.00    +0.073 A 
ATOM     19  C   UNL     1      -2.611   4.110  25.142  0.00  0.00    +0.163 A 
BRANCH  19  20
ATOM     20  C   UNL     1      -1.596   5.172  25.116  0.00  0.00    +0.236 C 
BRANCH  20   5
ATOM      5  O   UNL     1      -0.303   4.615  24.863  0.00  0.00    -0.375 OA
ATOM     23  C   UNL     1      -0.155   3.354  25.495  0.00  0.00    +0.194 C 
ENDBRANCH  20   5
ENDBRANCH  19  20
ENDBRANCH  14  16
ENDBRANCH   9  14
BRANCH  10  15
ATOM     15  C   UNL     1      -0.861  -0.528  23.439  0.00  0.00    +0.140 C 
BRANCH  15   6
ATOM      4  O   UNL     1       1.432  -0.381  21.693  0.00  0.00    -0.253 OA
ATOM      6  N   UNL     1       0.414   0.050  23.736  0.00  0.00    -0.297 N 
ATOM      8  N   UNL     1       2.602   0.703  23.379  0.00  0.00    -0.300 N 
ATOM     18  C   UNL     1       1.481   0.082  22.831  0.00  0.00    +0.300 C 
ATOM     25  H   UNL     1       0.567   0.418  24.670  0.00  0.00    +0.150 HD
ATOM     26  H   UNL     1       2.551   1.050  24.331  0.00  0.00    +0.150 HD
BRANCH   8  21
ATOM     21  C   UNL     1       3.838   0.865  22.651  0.00  0.00    +0.102 C 
ATOM     22  C   UNL     1       5.018   0.328  23.434  0.00  0.00    +0.024 C 
ENDBRANCH   8  21
ENDBRANCH  15   6
ENDBRANCH  10  15
TORSDOF 8
ENDMDL
MODEL 2
REMARK VINA RESULT:      -6.2      1.273      1.683
REMARK  Name = 75366956
REMARK  10 active torsions:
REMARK  status: ('A' for Active; 'I' for Inactive)
REMARK    1  A    between atoms: O_2  and  C_11
REMARK    2  A    between atoms: O_5  and  C_20
REMARK    3  A    between atoms: O_5  and  C_23
REMARK    4  A    between atoms: N_6  and  C_15
REMARK    5  A    between atoms: N_8  and  C_21
REMARK    6  A    between atoms: C_9  and  C_14
REMARK    7  A    between atoms: C_10  and  C_15
REMARK    8  A    between atoms: C_14  and  C_16
REMARK    9  A    between atoms: C_19  and  C_20
REMARK   10  A    between atoms: C_21  and  C_22
REMARK                            x       y       z     vdW  Elec       q    Type
REMARK                         _______ _______ _______ _____ _____    ______ ____
ROOT
ATOM      1  O   UNL     1      -2.259   0.190  25.077  0.00  0.00    -0.369 OA
ATOM      9  C   UNL     1      -3.082  -0.642  24.256  0.00  0.00    +0.125 C 
ATOM     10  C   UNL     1      -0.847  -0.003  24.918  0.00  0.00    +0.164 C 
ATOM     11  C   UNL     1      -0.453  -1.468  25.142  0.00  0.00    +0.145 C 
ATOM     12  C   UNL     1      -2.804  -2.118  24.534  0.00  0.00    +0.034 C 
ATOM     13  C   UNL     1      -1.324  -2.433  24.343  0.00  0.00    +0.036 C 
ENDROOT
BRANCH  11   2
ATOM      2  O   UNL     1      -0.616  -1.780  26.528  0.00  0.00    -0.389 OA
ATOM     24  H   UNL     1       0.178  -1.467  26.995  0.00  0.00    +0.210 HD
ENDBRANCH  11   2
BRANCH   9  14
ATOM     14  C   UNL     1      -4.534  -0.295  24.562  0.00  0.00    +0.090 C 
BRANCH  14  16
ATOM      3  O   UNL     1      -5.578   2.886  25.896  0.00  0.00    -0.357 OA
ATOM      7  N   UNL     1      -5.746   1.521  25.696  0.00  0.00    -0.083 NA
ATOM     16  C   UNL     1      -4.689   1.144  24.971  0.00  0.00    +0.086 A 
ATOM     17  C   UNL     1      -3.829   2.219  24.684  0.00  0.00    +0.073 A 
ATOM     19  C   UNL     1      -4.434   3.289  25.288  0.00  0.00    +0.163 A 
BRANCH  19  20
ATOM     20  C   UNL     1      -4.100   4.716  25.400  0.00  0.00    +0.236 C 
BRANCH  20   5
ATOM      5  O   UNL     1      -2.883   4.884  26.132  0.00  0.00    -0.375 OA
ATOM     23  C   UNL     1      -1.768   4.970  25.259  0.00  0.00    +0.194 C 
ENDBRANCH  20   5
ENDBRANCH  19  20
ENDBRANCH  14  16
ENDBRANCH   9  14
BRANCH  10  15
ATOM     15  C   UNL     1      -0.366   0.546  23.576  0.00  0.00    +0.140 C 
BRANCH  15   6
ATOM      4  O   UNL     1       1.932  -0.487  22.168  0.00  0.00    -0.253 OA
ATOM      6  N   UNL     1       0.983   1.014  23.666  0.00  0.00    -0.297 N 
ATOM      8  N   UNL     1       3.250   1.105  23.224  0.00  0.00    -0.300 N 
ATOM     18  C   UNL     1       2.047   0.457  22.947  0.00  0.00    +0.300 C 
ATOM     25  H   UNL     1       1.187   1.763  24.321  0.00  0.00    +0.150 HD
ATOM     26  H   UNL     1       3.249   1.873  23.887  0.00  0.00    +0.150 HD
BRANCH   8  21
ATOM     21  C   UNL     1       4.501   0.723  22.612  0.00  0.00    +0.102 C 
ATOM     22  C   UNL     1       5.403   0.007  23.594  0.00  0.00    +0.024 C 
ENDBRANCH   8  21
ENDBRANCH  15   6
ENDBRANCH  10  15
TORSDOF 8
ENDMDL
MODEL 3
REMARK VINA RESULT:      -5.2      1.868      4.839
REMARK  Name = 75366956
REMARK  10 active torsions:
REMARK  status: ('A' for Active; 'I' for Inactive)
REMARK    1  A    between atoms: O_2  and  C_11
REMARK    2  A    between atoms: O_5  and  C_20
REMARK    3  A    between atoms: O_5  and  C_23
REMARK    4  A    between atoms: N_6  and  C_15
REMARK    5  A    between atoms: N_8  and  C_21
REMARK    6  A    between atoms: C_9  and  C_14
REMARK    7  A    between atoms: C_10  and  C_15
REMARK    8  A    between atoms: C_14  and  C_16
REMARK    9  A    between atoms: C_19  and  C_20
REMARK   10  A    between atoms: C_21  and  C_22
REMARK                            x       y       z     vdW  Elec       q    Type
REMARK                         _______ _______ _______ _____ _____    ______ ____
ROOT
ATOM      1  O   UNL     1      -2.595   2.601  24.356  0.00  0.00    -0.369 OA
ATOM      9  C   UNL     1      -3.562   2.404  25.390  0.00  0.00    +0.125 C 
ATOM     10  C   UNL     1      -1.443   3.365  24.737  0.00  0.00    +0.164 C 
ATOM     11  C   UNL     1      -1.841   4.730  25.311  0.00  0.00    +0.145 C 
ATOM     12  C   UNL     1      -4.075   3.746  25.910  0.00  0.00    +0.034 C 
ATOM     13  C   UNL     1      -2.917   4.618  26.387  0.00  0.00    +0.036 C 
ENDROOT
BRANCH  11   2
ATOM      2  O   UNL     1      -2.365   5.538  24.253  0.00  0.00    -0.389 OA
ATOM     24  H   UNL     1      -2.812   4.945  23.625  0.00  0.00    +0.210 HD
ENDBRANCH  11   2
BRANCH   9  14
ATOM     14  C   UNL     1      -4.700   1.579  24.801  0.00  0.00    +0.090 C 
BRANCH  14  16
ATOM      3  O   UNL     1      -4.445  -1.904  23.913  0.00  0.00    -0.357 OA
ATOM      7  N   UNL     1      -5.114  -0.686  23.937  0.00  0.00    -0.083 NA
ATOM     16  C   UNL     1      -4.296   0.146  24.586  0.00  0.00    +0.086 A 
ATOM     17  C   UNL     1      -3.107  -0.484  24.994  0.00  0.00    +0.073 A 
ATOM     19  C   UNL     1      -3.252  -1.771  24.546  0.00  0.00    +0.163 A 
BRANCH  19  20
ATOM     20  C   UNL     1      -2.409  -2.972  24.614  0.00  0.00    +0.236 C 
BRANCH  20   5
ATOM      5  O   UNL     1      -1.068  -2.659  24.227  0.00  0.00    -0.375 OA
ATOM     23  C   UNL     1      -0.315  -2.179  25.329  0.00  0.00    +0.194 C 
ENDBRANCH  20   5
ENDBRANCH  19  20
ENDBRANCH  14  16
ENDBRANCH   9  14
BRANCH  10  15
ATOM     15  C   UNL     1      -0.538   2.565  25.673  0.00  0.00    +0.140 C 
BRANCH  15   6
ATOM      4  O   UNL     1      -0.091   0.670  23.543  0.00  0.00    -0.253 OA
ATOM      6  N   UNL     1       0.708   2.254  25.042  0.00  0.00    -0.297 N 
ATOM      8  N   UNL     1       2.165   1.213  23.581  0.00  0.00    -0.300 N 
ATOM     18  C   UNL     1       0.843   1.318  24.011  0.00  0.00    +0.300 C 
ATOM     25  H   UNL     1       1.548   2.706  25.392  0.00  0.00    +0.150 HD
ATOM     26  H   UNL     1       2.871   1.786  24.031  0.00  0.00    +0.150 HD
BRANCH   8  21
ATOM     21  C   UNL     1       2.574   0.316  22.527  0.00  0.00    +0.102 C 
ATOM     22  C   UNL     1       4.050   0.455  22.221  0.00  0.00    +0.024 C 
ENDBRANCH   8  21
ENDBRANCH  15   6
ENDBRANCH  10  15
TORSDOF 8
ENDMDL
MODEL 4
REMARK VINA RESULT:      -4.7      2.051      5.246
REMARK  Name = 75366956
REMARK  10 active torsions:
REMARK  status: ('A' for Active; 'I' for Inactive)
REMARK    1  A    between atoms: O_2  and  C_11
REMARK    2  A    between atoms: O_5  and  C_20
REMARK    3  A    between atoms: O_5  and  C_23
REMARK    4  A    between atoms: N_6  and  C_15
REMARK    5  A    between atoms: N_8  and  C_21
REMARK    6  A    between atoms: C_9  and  C_14
REMARK    7  A    between atoms: C_10  and  C_15
REMARK    8  A    between atoms: C_14  and  C_16
REMARK    9  A    between atoms: C_19  and  C_20
REMARK   10  A    between atoms: C_21  and  C_22
REMARK                            x       y       z     vdW  Elec       q    Type
REMARK                         _______ _______ _______ _____ _____    ______ ____
ROOT
ATOM      1  O   UNL     1      -3.431   1.580  25.659  0.00  0.00    -0.369 OA
ATOM      9  C   UNL     1      -2.861   2.424  24.655  0.00  0.00    +0.125 C 
ATOM     10  C   UNL     1      -4.819   1.268  25.476  0.00  0.00    +0.164 C 
ATOM     11  C   UNL     1      -5.667   2.540  25.357  0.00  0.00    +0.145 C 
ATOM     12  C   UNL     1      -3.606   3.755  24.585  0.00  0.00    +0.034 C 
ATOM     13  C   UNL     1      -5.096   3.528  24.344  0.00  0.00    +0.036 C 
ENDROOT
BRANCH  11   2
ATOM      2  O   UNL     1      -5.699   3.192  26.631  0.00  0.00    -0.389 OA
ATOM     24  H   UNL     1      -6.527   2.933  27.072  0.00  0.00    +0.210 HD
ENDBRANCH  11   2
BRANCH   9  14
ATOM     14  C   UNL     1      -1.396   2.639  25.016  0.00  0.00    +0.090 C 
BRANCH  14  16
ATOM      3  O   UNL     1       0.087   0.219  22.797  0.00  0.00    -0.357 OA
ATOM      7  N   UNL     1      -1.008   0.861  23.362  0.00  0.00    -0.083 NA
ATOM     16  C   UNL     1      -0.488   1.748  24.215  0.00  0.00    +0.086 A 
ATOM     17  C   UNL     1       0.918   1.711  24.231  0.00  0.00    +0.073 A 
ATOM     19  C   UNL     1       1.228   0.734  23.323  0.00  0.00    +0.163 A 
BRANCH  19  20
ATOM     20  C   UNL     1       2.490   0.164  22.833  0.00  0.00    +0.236 C 
BRANCH  20   5
ATOM      5  O   UNL     1       3.554   1.107  22.994  0.00  0.00    -0.375 OA
ATOM     23  C   UNL     1       4.797   0.449  23.182  0.00  0.00    +0.194 C 
ENDBRANCH  20   5
ENDBRANCH  19  20
ENDBRANCH  14  16
ENDBRANCH   9  14
BRANCH  10  15
ATOM     15  C   UNL     1      -5.017   0.307  24.305  0.00  0.00    +0.140 C 
BRANCH  15   6
ATOM      4  O   UNL     1      -3.628  -1.763  25.757  0.00  0.00    -0.253 OA
ATOM      6  N   UNL     1      -3.784  -0.322  23.942  0.00  0.00    -0.297 N 
ATOM      8  N   UNL     1      -1.983  -1.759  24.120  0.00  0.00    -0.300 N 
ATOM     18  C   UNL     1      -3.171  -1.324  24.703  0.00  0.00    +0.300 C 
ATOM     25  H   UNL     1      -3.305   0.007  23.109  0.00  0.00    +0.150 HD
ATOM     26  H   UNL     1      -1.682  -1.333  23.249  0.00  0.00    +0.150 HD
BRANCH   8  21
ATOM     21  C   UNL     1      -1.156  -2.787  24.706  0.00  0.00    +0.102 C 
ATOM     22  C   UNL     1       0.027  -2.196  25.443  0.00  0.00    +0.024 C 
ENDBRANCH   8  21
ENDBRANCH  15   6
ENDBRANCH  10  15
TORSDOF 8
ENDMDL
MODEL 5
REMARK VINA RESULT:      -4.7      1.895      5.965
REMARK  Name = 75366956
REMARK  10 active torsions:
REMARK  status: ('A' for Active; 'I' for Inactive)
REMARK    1  A    between atoms: O_2  and  C_11
REMARK    2  A    between atoms: O_5  and  C_20
REMARK    3  A    between atoms: O_5  and  C_23
REMARK    4  A    between atoms: N_6  and  C_15
REMARK    5  A    between atoms: N_8  and  C_21
REMARK    6  A    between atoms: C_9  and  C_14
REMARK    7  A    between atoms: C_10  and  C_15
REMARK    8  A    between atoms: C_14  and  C_16
REMARK    9  A    between atoms: C_19  and  C_20
REMARK   10  A    between atoms: C_21  and  C_22
REMARK                            x       y       z     vdW  Elec       q    Type
REMARK                         _______ _______ _______ _____ _____    ______ ____
ROOT
ATOM      1  O   UNL     1      -2.883   2.781  25.651  0.00  0.00    -0.369 OA
ATOM      9  C   UNL     1      -2.171   1.848  24.836  0.00  0.00    +0.125 C 
ATOM     10  C   UNL     1      -4.245   3.011  25.266  0.00  0.00    +0.164 C 
ATOM     11  C   UNL     1      -4.345   3.455  23.801  0.00  0.00    +0.145 C 
ATOM     12  C   UNL     1      -2.144   2.314  23.382  0.00  0.00    +0.034 C 
ATOM     13  C   UNL     1      -3.561   2.543  22.863  0.00  0.00    +0.036 C 
ENDROOT
BRANCH  11   2
ATOM      2  O   UNL     1      -3.801   4.773  23.683  0.00  0.00    -0.389 OA
ATOM     24  H   UNL     1      -4.460   5.395  24.036  0.00  0.00    +0.210 HD
ENDBRANCH  11   2
BRANCH   9  14
ATOM     14  C   UNL     1      -0.758   1.735  25.396  0.00  0.00    +0.090 C 
BRANCH  14  16
ATOM      3  O   UNL     1       0.900  -0.643  23.255  0.00  0.00    -0.357 OA
ATOM      7  N   UNL     1      -0.126  -0.267  24.115  0.00  0.00    -0.083 NA
ATOM     16  C   UNL     1       0.155   0.992  24.460  0.00  0.00    +0.086 A 
ATOM     17  C   UNL     1       1.336   1.460  23.855  0.00  0.00    +0.073 A 
ATOM     19  C   UNL     1       1.763   0.394  23.109  0.00  0.00    +0.163 A 
BRANCH  19  20
ATOM     20  C   UNL     1       2.915   0.168  22.226  0.00  0.00    +0.236 C 
BRANCH  20   5
ATOM      5  O   UNL     1       4.016   0.988  22.628  0.00  0.00    -0.375 OA
ATOM     23  C   UNL     1       5.021   0.219  23.268  0.00  0.00    +0.194 C 
ENDBRANCH  20   5
ENDBRANCH  19  20
ENDBRANCH  14  16
ENDBRANCH   9  14
BRANCH  10  15
ATOM     15  C   UNL     1      -5.118   1.798  25.583  0.00  0.00    +0.140 C 
BRANCH  15   6
ATOM      4  O   UNL     1      -3.997  -0.793  26.180  0.00  0.00    -0.253 OA
ATOM      6  N   UNL     1      -4.871   0.732  24.661  0.00  0.00    -0.297 N 
ATOM      8  N   UNL     1      -4.190  -1.354  23.937  0.00  0.00    -0.300 N 
ATOM     18  C   UNL     1      -4.322  -0.501  25.030  0.00  0.00    +0.300 C 
ATOM     25  H   UNL     1      -5.065   0.895  23.677  0.00  0.00    +0.150 HD
ATOM     26  H   UNL     1      -4.480  -1.023  23.022  0.00  0.00    +0.150 HD
BRANCH   8  21
ATOM     21  C   UNL     1      -3.648  -2.688  24.047  0.00  0.00    +0.102 C 
ATOM     22  C   UNL     1      -2.167  -2.661  24.359  0.00  0.00    +0.024 C 
ENDBRANCH   8  21
ENDBRANCH  15   6
ENDBRANCH  10  15
TORSDOF 8
ENDMDL
MODEL 6
REMARK VINA RESULT:      -4.4      2.190      4.865
REMARK  Name = 75366956
REMARK  10 active torsions:
REMARK  status: ('A' for Active; 'I' for Inactive)
REMARK    1  A    between atoms: O_2  and  C_11
REMARK    2  A    between atoms: O_5  and  C_20
REMARK    3  A    between atoms: O_5  and  C_23
REMARK    4  A    between atoms: N_6  and  C_15
REMARK    5  A    between atoms: N_8  and  C_21
REMARK    6  A    between atoms: C_9  and  C_14
REMARK    7  A    between atoms: C_10  and  C_15
REMARK    8  A    between atoms: C_14  and  C_16
REMARK    9  A    between atoms: C_19  and  C_20
REMARK   10  A    between atoms: C_21  and  C_22
REMARK                            x       y       z     vdW  Elec       q    Type
REMARK                         _______ _______ _______ _____ _____    ______ ____
ROOT
ATOM      1  O   UNL     1      -3.755   2.114  25.813  0.00  0.00    -0.369 OA
ATOM      9  C   UNL     1      -3.695   3.342  25.082  0.00  0.00    +0.125 C 
ATOM     10  C   UNL     1      -4.900   1.297  25.539  0.00  0.00    +0.164 C 
ATOM     11  C   UNL     1      -6.206   2.071  25.761  0.00  0.00    +0.145 C 
ATOM     12  C   UNL     1      -4.927   4.199  25.368  0.00  0.00    +0.034 C 
ATOM     13  C   UNL     1      -6.205   3.425  25.060  0.00  0.00    +0.036 C 
ENDROOT
BRANCH  11   2
ATOM      2  O   UNL     1      -6.368   2.305  27.163  0.00  0.00    -0.389 OA
ATOM     24  H   UNL     1      -5.669   2.924  27.439  0.00  0.00    +0.210 HD
ENDBRANCH  11   2
BRANCH   9  14
ATOM     14  C   UNL     1      -2.421   4.064  25.503  0.00  0.00    +0.090 C 
BRANCH  14  16
ATOM      3  O   UNL     1       0.609   2.138  25.812  0.00  0.00    -0.357 OA
ATOM      7  N   UNL     1      -0.397   2.943  26.335  0.00  0.00    -0.083 NA
ATOM     16  C   UNL     1      -1.202   3.206  25.303  0.00  0.00    +0.086 A 
ATOM     17  C   UNL     1      -0.759   2.601  24.113  0.00  0.00    +0.073 A 
ATOM     19  C   UNL     1       0.381   1.942  24.489  0.00  0.00    +0.163 A 
BRANCH  19  20
ATOM     20  C   UNL     1       1.356   1.108  23.773  0.00  0.00    +0.236 C 
BRANCH  20   5
ATOM      5  O   UNL     1       0.681   0.131  22.975  0.00  0.00    -0.375 OA
ATOM     23  C   UNL     1       1.523  -0.362  21.946  0.00  0.00    +0.194 C 
ENDBRANCH  20   5
ENDBRANCH  19  20
ENDBRANCH  14  16
ENDBRANCH   9  14
BRANCH  10  15
ATOM     15  C   UNL     1      -4.808   0.669  24.149  0.00  0.00    +0.140 C 
BRANCH  15   6
ATOM      4  O   UNL     1      -3.779  -1.764  25.310  0.00  0.00    -0.253 OA
ATOM      6  N   UNL     1      -3.518   0.088  23.933  0.00  0.00    -0.297 N 
ATOM      8  N   UNL     1      -1.796  -1.437  24.150  0.00  0.00    -0.300 N 
ATOM     18  C   UNL     1      -3.092  -1.101  24.536  0.00  0.00    +0.300 C 
ATOM     25  H   UNL     1      -2.860   0.589  23.343  0.00  0.00    +0.150 HD
ATOM     26  H   UNL     1      -1.303  -0.824  23.510  0.00  0.00    +0.150 HD
BRANCH   8  21
ATOM     21  C   UNL     1      -1.120  -2.619  24.631  0.00  0.00    +0.102 C 
ATOM     22  C   UNL     1       0.078  -2.265  25.487  0.00  0.00    +0.024 C 
ENDBRANCH   8  21
ENDBRANCH  15   6
ENDBRANCH  10  15
TORSDOF 8
ENDMDL
MODEL 7
REMARK VINA RESULT:      -4.3      1.671      5.453
REMARK  Name = 75366956
REMARK  10 active torsions:
REMARK  status: ('A' for Active; 'I' for Inactive)
REMARK    1  A    between atoms: O_2  and  C_11
REMARK    2  A    between atoms: O_5  and  C_20
REMARK    3  A    between atoms: O_5  and  C_23
REMARK    4  A    between atoms: N_6  and  C_15
REMARK    5  A    between atoms: N_8  and  C_21
REMARK    6  A    between atoms: C_9  and  C_14
REMARK    7  A    between atoms: C_10  and  C_15
REMARK    8  A    between atoms: C_14  and  C_16
REMARK    9  A    between atoms: C_19  and  C_20
REMARK   10  A    between atoms: C_21  and  C_22
REMARK                            x       y       z     vdW  Elec       q    Type
REMARK                         _______ _______ _______ _____ _____    ______ ____
ROOT
ATOM      1  O   UNL     1      -2.584   0.621  24.177  0.00  0.00    -0.369 OA
ATOM      9  C   UNL     1      -2.076   0.645  25.513  0.00  0.00    +0.125 C 
ATOM     10  C   UNL     1      -3.891   0.050  24.032  0.00  0.00    +0.164 C 
ATOM     11  C   UNL     1      -3.950  -1.369  24.611  0.00  0.00    +0.145 C 
ATOM     12  C   UNL     1      -2.006  -0.768  26.089  0.00  0.00    +0.034 C 
ATOM     13  C   UNL     1      -3.372  -1.446  26.021  0.00  0.00    +0.036 C 
ENDROOT
BRANCH  11   2
ATOM      2  O   UNL     1      -3.179  -2.238  23.776  0.00  0.00    -0.389 OA
ATOM     24  H   UNL     1      -2.289  -2.302  24.163  0.00  0.00    +0.210 HD
ENDBRANCH  11   2
BRANCH   9  14
ATOM     14  C   UNL     1      -0.692   1.282  25.466  0.00  0.00    +0.090 C 
BRANCH  14  16
ATOM      3  O   UNL     1       0.836  -0.805  22.957  0.00  0.00    -0.357 OA
ATOM      7  N   UNL     1      -0.150  -0.534  23.898  0.00  0.00    -0.083 NA
ATOM     16  C   UNL     1       0.171   0.660  24.403  0.00  0.00    +0.086 A 
ATOM     17  C   UNL     1       1.340   1.186  23.825  0.00  0.00    +0.073 A 
ATOM     19  C   UNL     1       1.717   0.227  22.924  0.00  0.00    +0.163 A 
BRANCH  19  20
ATOM     20  C   UNL     1       2.833   0.105  21.976  0.00  0.00    +0.236 C 
BRANCH  20   5
ATOM      5  O   UNL     1       3.917   0.947  22.376  0.00  0.00    -0.375 OA
ATOM     23  C   UNL     1       4.865   0.231  23.151  0.00  0.00    +0.194 C 
ENDBRANCH  20   5
ENDBRANCH  19  20
ENDBRANCH  14  16
ENDBRANCH   9  14
BRANCH  10  15
ATOM     15  C   UNL     1      -4.962   0.975  24.609  0.00  0.00    +0.140 C 
BRANCH  15   6
ATOM      4  O   UNL     1      -3.807   3.428  23.622  0.00  0.00    -0.253 OA
ATOM      6  N   UNL     1      -4.372   2.024  25.384  0.00  0.00    -0.297 N 
ATOM      8  N   UNL     1      -3.324   4.039  25.808  0.00  0.00    -0.300 N 
ATOM     18  C   UNL     1      -3.830   3.188  24.828  0.00  0.00    +0.300 C 
ATOM     25  H   UNL     1      -4.303   1.896  26.389  0.00  0.00    +0.150 HD
ATOM     26  H   UNL     1      -3.383   3.754  26.780  0.00  0.00    +0.150 HD
BRANCH   8  21
ATOM     21  C   UNL     1      -2.709   5.308  25.498  0.00  0.00    +0.102 C 
ATOM     22  C   UNL     1      -1.263   5.139  25.081  0.00  0.00    +0.024 C 
ENDBRANCH   8  21
ENDBRANCH  15   6
ENDBRANCH  10  15
TORSDOF 8
ENDMDL
MODEL 8
REMARK VINA RESULT:      -3.3      2.152      5.126
REMARK  Name = 75366956
REMARK  10 active torsions:
REMARK  status: ('A' for Active; 'I' for Inactive)
REMARK    1  A    between atoms: O_2  and  C_11
REMARK    2  A    between atoms: O_5  and  C_20
REMARK    3  A    between atoms: O_5  and  C_23
REMARK    4  A    between atoms: N_6  and  C_15
REMARK    5  A    between atoms: N_8  and  C_21
REMARK    6  A    between atoms: C_9  and  C_14
REMARK    7  A    between atoms: C_10  and  C_15
REMARK    8  A    between atoms: C_14  and  C_16
REMARK    9  A    between atoms: C_19  and  C_20
REMARK   10  A    between atoms: C_21  and  C_22
REMARK                            x       y       z     vdW  Elec       q    Type
REMARK                         _______ _______ _______ _____ _____    ______ ____
ROOT
ATOM      1  O   UNL     1      -4.517   2.623  24.091  0.00  0.00    -0.369 OA
ATOM      9  C   UNL     1      -4.700   1.480  24.931  0.00  0.00    +0.125 C 
ATOM     10  C   UNL     1      -4.165   3.832  24.775  0.00  0.00    +0.164 C 
ATOM     11  C   UNL     1      -5.189   4.177  25.865  0.00  0.00    +0.145 C 
ATOM     12  C   UNL     1      -5.799   1.739  25.960  0.00  0.00    +0.034 C 
ATOM     13  C   UNL     1      -5.488   2.990  26.777  0.00  0.00    +0.036 C 
ENDROOT
BRANCH  11   2
ATOM      2  O   UNL     1      -6.414   4.565  25.237  0.00  0.00    -0.389 OA
ATOM     24  H   UNL     1      -6.317   5.489  24.952  0.00  0.00    +0.210 HD
ENDBRANCH  11   2
BRANCH   9  14
ATOM     14  C   UNL     1      -5.063   0.305  24.032  0.00  0.00    +0.090 C 
BRANCH  14  16
ATOM      3  O   UNL     1      -3.311  -2.843  24.104  0.00  0.00    -0.357 OA
ATOM      7  N   UNL     1      -4.451  -2.074  23.902  0.00  0.00    -0.083 NA
ATOM     16  C   UNL     1      -4.071  -0.819  24.155  0.00  0.00    +0.086 A 
ATOM     17  C   UNL     1      -2.715  -0.735  24.519  0.00  0.00    +0.073 A 
ATOM     19  C   UNL     1      -2.285  -2.035  24.472  0.00  0.00    +0.163 A 
BRANCH  19  20
ATOM     20  C   UNL     1      -0.995  -2.689  24.727  0.00  0.00    +0.236 C 
BRANCH  20   5
ATOM      5  O   UNL     1      -0.122  -1.803  25.434  0.00  0.00    -0.375 OA
ATOM     23  C   UNL     1      -0.844  -0.989  26.344  0.00  0.00    +0.194 C 
ENDBRANCH  20   5
ENDBRANCH  19  20
ENDBRANCH  14  16
ENDBRANCH   9  14
BRANCH  10  15
ATOM     15  C   UNL     1      -2.732   3.770  25.302  0.00  0.00    +0.140 C 
BRANCH  15   6
ATOM      4  O   UNL     1      -0.261   2.425  25.943  0.00  0.00    -0.253 OA
ATOM      6  N   UNL     1      -1.886   3.045  24.403  0.00  0.00    -0.297 N 
ATOM      8  N   UNL     1      -0.073   1.785  23.720  0.00  0.00    -0.300 N 
ATOM     18  C   UNL     1      -0.697   2.418  24.793  0.00  0.00    +0.300 C 
ATOM     25  H   UNL     1      -2.140   3.022  23.420  0.00  0.00    +0.150 HD
ATOM     26  H   UNL     1      -0.506   1.838  22.804  0.00  0.00    +0.150 HD
BRANCH   8  21
ATOM     21  C   UNL     1       1.171   1.065  23.855  0.00  0.00    +0.102 C 
ATOM     22  C   UNL     1       1.284  -0.043  22.829  0.00  0.00    +0.024 C 
ENDBRANCH   8  21
ENDBRANCH  15   6
ENDBRANCH  10  15
TORSDOF 8
ENDMDL
MODEL 9
REMARK VINA RESULT:      -3.2      2.086      5.305
REMARK  Name = 75366956
REMARK  10 active torsions:
REMARK  status: ('A' for Active; 'I' for Inactive)
REMARK    1  A    between atoms: O_2  and  C_11
REMARK    2  A    between atoms: O_5  and  C_20
REMARK    3  A    between atoms: O_5  and  C_23
REMARK    4  A    between atoms: N_6  and  C_15
REMARK    5  A    between atoms: N_8  and  C_21
REMARK    6  A    between atoms: C_9  and  C_14
REMARK    7  A    between atoms: C_10  and  C_15
REMARK    8  A    between atoms: C_14  and  C_16
REMARK    9  A    between atoms: C_19  and  C_20
REMARK   10  A    between atoms: C_21  and  C_22
REMARK                            x       y       z     vdW  Elec       q    Type
REMARK                         _______ _______ _______ _____ _____    ______ ____
ROOT
ATOM      1  O   UNL     1      -2.696  -0.800  23.776  0.00  0.00    -0.369 OA
ATOM      9  C   UNL     1      -1.760  -1.510  24.592  0.00  0.00    +0.125 C 
ATOM     10  C   UNL     1      -4.075  -1.014  24.104  0.00  0.00    +0.164 C 
ATOM     11  C   UNL     1      -4.430  -2.506  24.083  0.00  0.00    +0.145 C 
ATOM     12  C   UNL     1      -2.005  -3.015  24.507  0.00  0.00    +0.034 C 
ATOM     13  C   UNL     1      -3.444  -3.350  24.886  0.00  0.00    +0.036 C 
ENDROOT
BRANCH  11   2
ATOM      2  O   UNL     1      -4.397  -2.967  22.729  0.00  0.00    -0.389 OA
ATOM     24  H   UNL     1      -4.626  -3.913  22.736  0.00  0.00    +0.210 HD
ENDBRANCH  11   2
BRANCH   9  14
ATOM     14  C   UNL     1      -0.362  -1.157  24.097  0.00  0.00    +0.090 C 
BRANCH  14  16
ATOM      3  O   UNL     1       0.954   2.197  24.080  0.00  0.00    -0.357 OA
ATOM      7  N   UNL     1       0.909   0.890  23.609  0.00  0.00    -0.083 NA
ATOM     16  C   UNL     1      -0.035   0.291  24.339  0.00  0.00    +0.086 A 
ATOM     17  C   UNL     1      -0.614   1.160  25.279  0.00  0.00    +0.073 A 
ATOM     19  C   UNL     1       0.043   2.345  25.075  0.00  0.00    +0.163 A 
BRANCH  19  20
ATOM     20  C   UNL     1      -0.044   3.675  25.691  0.00  0.00    +0.236 C 
BRANCH  20   5
ATOM      5  O   UNL     1      -1.356   4.217  25.518  0.00  0.00    -0.375 OA
ATOM     23  C   UNL     1      -1.305   5.504  24.924  0.00  0.00    +0.194 C 
ENDBRANCH  20   5
ENDBRANCH  19  20
ENDBRANCH  14  16
ENDBRANCH   9  14
BRANCH  10  15
ATOM     15  C   UNL     1      -4.439  -0.333  25.422  0.00  0.00    +0.140 C 
BRANCH  15   6
ATOM      4  O   UNL     1      -6.005   1.976  24.682  0.00  0.00    -0.253 OA
ATOM      6  N   UNL     1      -4.016   1.035  25.427  0.00  0.00    -0.297 N 
ATOM      8  N   UNL     1      -4.175   3.323  25.152  0.00  0.00    -0.300 N 
ATOM     18  C   UNL     1      -4.839   2.103  25.052  0.00  0.00    +0.300 C 
ATOM     25  H   UNL     1      -3.052   1.236  25.675  0.00  0.00    +0.150 HD
ATOM     26  H   UNL     1      -3.209   3.329  25.463  0.00  0.00    +0.150 HD
BRANCH   8  21
ATOM     21  C   UNL     1      -4.801   4.582  24.823  0.00  0.00    +0.102 C 
ATOM     22  C   UNL     1      -6.058   4.807  25.637  0.00  0.00    +0.024 C 
ENDBRANCH   8  21
ENDBRANCH  15   6
ENDBRANCH  10  15
TORSDOF 8
ENDMDL
MODEL 10
REMARK VINA RESULT:      -2.7      2.272      4.010
REMARK  Name = 75366956
REMARK  10 active torsions:
REMARK  status: ('A' for Active; 'I' for Inactive)
REMARK    1  A    between atoms: O_2  and  C_11
REMARK    2  A    between atoms: O_5  and  C_20
REMARK    3  A    between atoms: O_5  and  C_23
REMARK    4  A    between atoms: N_6  and  C_15
REMARK    5  A    between atoms: N_8  and  C_21
REMARK    6  A    between atoms: C_9  and  C_14
REMARK    7  A    between atoms: C_10  and  C_15
REMARK    8  A    between atoms: C_14  and  C_16
REMARK    9  A    between atoms: C_19  and  C_20
REMARK   10  A    between atoms: C_21  and  C_22
REMARK                            x       y       z     vdW  Elec       q    Type
REMARK                         _______ _______ _______ _____ _____    ______ ____
ROOT
ATOM      1  O   UNL     1      -3.757   1.861  25.644  0.00  0.00    -0.369 OA
ATOM      9  C   UNL     1      -3.983   2.798  24.587  0.00  0.00    +0.125 C 
ATOM     10  C   UNL     1      -4.619   0.716  25.637  0.00  0.00    +0.164 C 
ATOM     11  C   UNL     1      -6.096   1.127  25.647  0.00  0.00    +0.145 C 
ATOM     12  C   UNL     1      -5.416   3.324  24.632  0.00  0.00    +0.034 C 
ATOM     13  C   UNL     1      -6.416   2.172  24.582  0.00  0.00    +0.036 C 
ENDROOT
BRANCH  11   2
ATOM      2  O   UNL     1      -6.407   1.695  26.922  0.00  0.00    -0.389 OA
ATOM     24  H   UNL     1      -7.018   2.437  26.772  0.00  0.00    +0.210 HD
ENDBRANCH  11   2
BRANCH   9  14
ATOM     14  C   UNL     1      -2.981   3.933  24.758  0.00  0.00    +0.090 C 
BRANCH  14  16
ATOM      3  O   UNL     1       0.384   2.693  25.109  0.00  0.00    -0.357 OA
ATOM      7  N   UNL     1      -0.701   3.107  24.346  0.00  0.00    -0.083 NA
ATOM     16  C   UNL     1      -1.646   3.431  25.234  0.00  0.00    +0.086 A 
ATOM     17  C   UNL     1      -1.218   3.242  26.560  0.00  0.00    +0.073 A 
ATOM     19  C   UNL     1       0.063   2.777  26.425  0.00  0.00    +0.163 A 
BRANCH  19  20
ATOM     20  C   UNL     1       1.104   2.373  27.380  0.00  0.00    +0.236 C 
BRANCH  20   5
ATOM      5  O   UNL     1       0.624   2.505  28.721  0.00  0.00    -0.375 OA
ATOM     23  C   UNL     1       1.687   2.424  29.656  0.00  0.00    +0.194 C 
ENDBRANCH  20   5
ENDBRANCH  19  20
ENDBRANCH  14  16
ENDBRANCH   9  14
BRANCH  10  15
ATOM     15  C   UNL     1      -4.269  -0.229  24.489  0.00  0.00    +0.140 C 
BRANCH  15   6
ATOM      4  O   UNL     1      -1.673  -1.258  25.216  0.00  0.00    -0.253 OA
ATOM      6  N   UNL     1      -3.010   0.117  23.904  0.00  0.00    -0.297 N 
ATOM      8  N   UNL     1      -0.722   0.082  23.577  0.00  0.00    -0.300 N 
ATOM     18  C   UNL     1      -1.788  -0.429  24.315  0.00  0.00    +0.300 C 
ATOM     25  H   UNL     1      -2.997   0.829  23.181  0.00  0.00    +0.150 HD
ATOM     26  H   UNL     1      -0.914   0.768  22.855  0.00  0.00    +0.150 HD
BRANCH   8  21
ATOM     21  C   UNL     1       0.646  -0.318  23.804  0.00  0.00    +0.102 C 
ATOM     22  C   UNL     1       1.438  -0.345  22.513  0.00  0.00    +0.024 C 
ENDBRANCH   8  21
ENDBRANCH  15   6
ENDBRANCH  10  15
TORSDOF 8
ENDMDL
