MODEL 1
REMARK VINA RESULT:      -2.7      0.000      0.000
REMARK  Name = 45783546
REMARK  10 active torsions:
REMARK  status: ('A' for Active; 'I' for Inactive)
REMARK    1  A    between atoms: O_2  and  C_27
REMARK    2  A    between atoms: O_2  and  C_28
REMARK    3  A    between atoms: O_3  and  C_29
REMARK    4  A    between atoms: O_3  and  C_30
REMARK    5  A    between atoms: N_4  and  C_13
REMARK    6  A    between atoms: C_9  and  C_14
REMARK    7  A    between atoms: C_13  and  C_15
REMARK    8  A    between atoms: C_18  and  C_21
REMARK    9  A    between atoms: C_22  and  C_26
REMARK   10  A    between atoms: C_28  and  C_29
REMARK                            x       y       z     vdW  Elec       q    Type
REMARK                         _______ _______ _______ _____ _____    ______ ____
ROOT
ATOM      1  O   UNL     1      15.234 -10.362  31.860  0.00  0.00    -0.336 OA
ATOM      5  N   UNL     1      13.937  -8.546  31.673  0.00  0.00    -0.190 NA
ATOM      6  N   UNL     1      13.933 -10.781  32.159  0.00  0.00    -0.056 NA
ATOM     14  C   UNL     1      15.148  -9.034  31.585  0.00  0.00    +0.245 A 
ATOM     18  C   UNL     1      13.225  -9.655  32.029  0.00  0.00    +0.204 A 
ENDROOT
BRANCH  18  21
ATOM      7  N   UNL     1       9.738 -10.781  32.659  0.00  0.00    -0.221 NA
ATOM     21  C   UNL     1      11.808  -9.603  32.245  0.00  0.00    +0.041 A 
ATOM     23  C   UNL     1      11.129  -8.390  32.256  0.00  0.00    +0.018 A 
ATOM     24  C   UNL     1      11.074 -10.760  32.450  0.00  0.00    +0.126 A 
ATOM     25  C   UNL     1       9.755  -8.371  32.468  0.00  0.00    +0.068 A 
ATOM     27  C   UNL     1       9.112  -9.583  32.663  0.00  0.00    +0.215 A 
BRANCH  27   2
ATOM      2  O   UNL     1       7.757  -9.591  32.873  0.00  0.00    -0.474 OA
BRANCH   2  28
ATOM     28  C   UNL     1       6.950 -10.109  31.823  0.00  0.00    +0.258 C 
BRANCH  28  29
ATOM     29  C   UNL     1       6.838  -9.068  30.727  0.00  0.00    +0.200 C 
BRANCH  29   3
ATOM      3  O   UNL     1       5.791  -8.162  31.051  0.00  0.00    -0.380 OA
ATOM     30  C   UNL     1       6.232  -7.159  31.956  0.00  0.00    +0.194 C 
ENDBRANCH  29   3
ENDBRANCH  28  29
ENDBRANCH   2  28
ENDBRANCH  27   2
ENDBRANCH  18  21
BRANCH  14   9
ATOM      4  N   UNL     1      16.372  -7.651  29.917  0.00  0.00    -0.287 NA
ATOM      9  C   UNL     1      16.442  -8.334  31.225  0.00  0.00    +0.146 C 
ATOM     10  C   UNL     1      16.816  -7.225  32.225  0.00  0.00    +0.030 C 
ATOM     11  C   UNL     1      16.996  -5.971  31.381  0.00  0.00    +0.017 C 
ATOM     12  C   UNL     1      17.288  -6.512  29.997  0.00  0.00    +0.085 C 
BRANCH   4  13
ATOM     13  C   UNL     1      16.683  -8.527  28.795  0.00  0.00    +0.120 C 
BRANCH  13  15
ATOM     15  C   UNL     1      16.811  -7.761  27.505  0.00  0.00    -0.033 A 
ATOM     16  C   UNL     1      16.806  -6.366  27.519  0.00  0.00    +0.006 A 
ATOM     17  C   UNL     1      16.934  -8.446  26.297  0.00  0.00    +0.006 A 
ATOM     19  C   UNL     1      16.926  -5.656  26.324  0.00  0.00    +0.019 A 
ATOM     20  C   UNL     1      17.053  -7.736  25.101  0.00  0.00    +0.019 A 
ATOM     22  C   UNL     1      17.050  -6.341  25.115  0.00  0.00    +0.052 A 
BRANCH  22  26
ATOM      8  N   UNL     1      17.271  -5.026  22.896  0.00  0.00    -0.191 NA
ATOM     26  C   UNL     1      17.171  -5.615  23.891  0.00  0.00    +0.099 C 
ENDBRANCH  22  26
ENDBRANCH  13  15
ENDBRANCH   4  13
ENDBRANCH  14   9
TORSDOF 9
ENDMDL
MODEL 2
REMARK VINA RESULT:      -2.1     14.713     20.067
REMARK  Name = 45783546
REMARK  10 active torsions:
REMARK  status: ('A' for Active; 'I' for Inactive)
REMARK    1  A    between atoms: O_2  and  C_27
REMARK    2  A    between atoms: O_2  and  C_28
REMARK    3  A    between atoms: O_3  and  C_29
REMARK    4  A    between atoms: O_3  and  C_30
REMARK    5  A    between atoms: N_4  and  C_13
REMARK    6  A    between atoms: C_9  and  C_14
REMARK    7  A    between atoms: C_13  and  C_15
REMARK    8  A    between atoms: C_18  and  C_21
REMARK    9  A    between atoms: C_22  and  C_26
REMARK   10  A    between atoms: C_28  and  C_29
REMARK                            x       y       z     vdW  Elec       q    Type
REMARK                         _______ _______ _______ _____ _____    ______ ____
ROOT
ATOM      1  O   UNL     1      -2.509   3.106  25.711  0.00  0.00    -0.336 OA
ATOM      5  N   UNL     1      -2.326   2.035  23.753  0.00  0.00    -0.190 NA
ATOM      6  N   UNL     1      -1.171   2.706  25.610  0.00  0.00    -0.056 NA
ATOM     14  C   UNL     1      -3.119   2.672  24.577  0.00  0.00    +0.245 A 
ATOM     18  C   UNL     1      -1.142   2.081  24.430  0.00  0.00    +0.204 A 
ENDROOT
BRANCH  18  21
ATOM      7  N   UNL     1       2.426   1.662  23.471  0.00  0.00    -0.221 NA
ATOM     21  C   UNL     1       0.053   1.492  23.897  0.00  0.00    +0.041 A 
ATOM     23  C   UNL     1       0.029   0.233  23.307  0.00  0.00    +0.018 A 
ATOM     24  C   UNL     1       1.266   2.160  23.954  0.00  0.00    +0.126 A 
ATOM     25  C   UNL     1       1.203  -0.312  22.800  0.00  0.00    +0.068 A 
ATOM     27  C   UNL     1       2.365   0.436  22.905  0.00  0.00    +0.215 A 
BRANCH  27   2
ATOM      2  O   UNL     1       3.535  -0.080  22.412  0.00  0.00    -0.474 OA
BRANCH   2  28
ATOM     28  C   UNL     1       4.708   0.705  22.595  0.00  0.00    +0.258 C 
BRANCH  28  29
ATOM     29  C   UNL     1       5.782  -0.153  23.235  0.00  0.00    +0.200 C 
BRANCH  29   3
ATOM      3  O   UNL     1       5.236  -0.806  24.375  0.00  0.00    -0.380 OA
ATOM     30  C   UNL     1       4.675  -2.066  24.034  0.00  0.00    +0.194 C 
ENDBRANCH  29   3
ENDBRANCH  28  29
ENDBRANCH   2  28
ENDBRANCH  27   2
ENDBRANCH  18  21
BRANCH  14   9
ATOM      4  N   UNL     1      -5.420   2.264  25.432  0.00  0.00    -0.287 NA
ATOM      9  C   UNL     1      -4.594   2.984  24.442  0.00  0.00    +0.146 C 
ATOM     10  C   UNL     1      -4.910   4.473  24.677  0.00  0.00    +0.030 C 
ATOM     11  C   UNL     1      -5.967   4.486  25.772  0.00  0.00    +0.017 C 
ATOM     12  C   UNL     1      -6.589   3.108  25.686  0.00  0.00    +0.085 C 
BRANCH   4  13
ATOM     13  C   UNL     1      -5.795   0.924  25.001  0.00  0.00    +0.120 C 
BRANCH  13  15
ATOM     15  C   UNL     1      -4.615  -0.012  24.991  0.00  0.00    -0.033 A 
ATOM     16  C   UNL     1      -3.798  -0.114  26.117  0.00  0.00    +0.006 A 
ATOM     17  C   UNL     1      -4.340  -0.776  23.858  0.00  0.00    +0.006 A 
ATOM     19  C   UNL     1      -2.705  -0.981  26.109  0.00  0.00    +0.019 A 
ATOM     20  C   UNL     1      -3.247  -1.643  23.849  0.00  0.00    +0.019 A 
ATOM     22  C   UNL     1      -2.430  -1.746  24.975  0.00  0.00    +0.052 A 
BRANCH  22  26
ATOM      8  N   UNL     1      -0.400  -3.353  24.959  0.00  0.00    -0.191 NA
ATOM     26  C   UNL     1      -1.311  -2.633  24.966  0.00  0.00    +0.099 C 
ENDBRANCH  22  26
ENDBRANCH  13  15
ENDBRANCH   4  13
ENDBRANCH  14   9
TORSDOF 9
ENDMDL
MODEL 3
REMARK VINA RESULT:      -0.8     14.534     19.655
REMARK  Name = 45783546
REMARK  10 active torsions:
REMARK  status: ('A' for Active; 'I' for Inactive)
REMARK    1  A    between atoms: O_2  and  C_27
REMARK    2  A    between atoms: O_2  and  C_28
REMARK    3  A    between atoms: O_3  and  C_29
REMARK    4  A    between atoms: O_3  and  C_30
REMARK    5  A    between atoms: N_4  and  C_13
REMARK    6  A    between atoms: C_9  and  C_14
REMARK    7  A    between atoms: C_13  and  C_15
REMARK    8  A    between atoms: C_18  and  C_21
REMARK    9  A    between atoms: C_22  and  C_26
REMARK   10  A    between atoms: C_28  and  C_29
REMARK                            x       y       z     vdW  Elec       q    Type
REMARK                         _______ _______ _______ _____ _____    ______ ____
ROOT
ATOM      1  O   UNL     1      -2.047   0.271  25.935  0.00  0.00    -0.336 OA
ATOM      5  N   UNL     1      -1.395  -0.774  24.065  0.00  0.00    -0.190 NA
ATOM      6  N   UNL     1      -0.781   0.782  25.625  0.00  0.00    -0.056 NA
ATOM     14  C   UNL     1      -2.333  -0.638  24.967  0.00  0.00    +0.245 A 
ATOM     18  C   UNL     1      -0.462   0.117  24.511  0.00  0.00    +0.204 A 
ENDROOT
BRANCH  18  21
ATOM      7  N   UNL     1       2.730   1.694  23.438  0.00  0.00    -0.221 NA
ATOM     21  C   UNL     1       0.778   0.320  23.819  0.00  0.00    +0.041 A 
ATOM     23  C   UNL     1       1.239  -0.606  22.889  0.00  0.00    +0.018 A 
ATOM     24  C   UNL     1       1.554   1.443  24.056  0.00  0.00    +0.126 A 
ATOM     25  C   UNL     1       2.444  -0.383  22.234  0.00  0.00    +0.068 A 
ATOM     27  C   UNL     1       3.146   0.772  22.541  0.00  0.00    +0.215 A 
BRANCH  27   2
ATOM      2  O   UNL     1       4.337   1.015  21.908  0.00  0.00    -0.474 OA
BRANCH   2  28
ATOM     28  C   UNL     1       5.481   0.338  22.415  0.00  0.00    +0.258 C 
BRANCH  28  29
ATOM     29  C   UNL     1       5.526   0.505  23.922  0.00  0.00    +0.200 C 
BRANCH  29   3
ATOM      3  O   UNL     1       5.714  -0.769  24.525  0.00  0.00    -0.380 OA
ATOM     30  C   UNL     1       4.855  -1.747  23.956  0.00  0.00    +0.194 C 
ENDBRANCH  29   3
ENDBRANCH  28  29
ENDBRANCH   2  28
ENDBRANCH  27   2
ENDBRANCH  18  21
BRANCH  14   9
ATOM      4  N   UNL     1      -4.624  -0.913  24.034  0.00  0.00    -0.287 NA
ATOM      9  C   UNL     1      -3.669  -1.343  25.076  0.00  0.00    +0.146 C 
ATOM     10  C   UNL     1      -3.554  -2.867  24.895  0.00  0.00    +0.030 C 
ATOM     11  C   UNL     1      -4.524  -3.209  23.773  0.00  0.00    +0.017 C 
ATOM     12  C   UNL     1      -5.504  -2.055  23.784  0.00  0.00    +0.085 C 
BRANCH   4  13
ATOM     13  C   UNL     1      -5.370   0.284  24.400  0.00  0.00    +0.120 C 
BRANCH  13  15
ATOM     15  C   UNL     1      -4.472   1.487  24.525  0.00  0.00    -0.033 A 
ATOM     16  C   UNL     1      -4.543   2.294  25.661  0.00  0.00    +0.006 A 
ATOM     17  C   UNL     1      -3.572   1.794  23.505  0.00  0.00    +0.006 A 
ATOM     19  C   UNL     1      -3.711   3.408  25.777  0.00  0.00    +0.019 A 
ATOM     20  C   UNL     1      -2.740   2.909  23.621  0.00  0.00    +0.019 A 
ATOM     22  C   UNL     1      -2.810   3.715  24.758  0.00  0.00    +0.052 A 
BRANCH  22  26
ATOM      8  N   UNL     1      -1.266   5.782  24.972  0.00  0.00    -0.191 NA
ATOM     26  C   UNL     1      -1.958   4.856  24.876  0.00  0.00    +0.099 C 
ENDBRANCH  22  26
ENDBRANCH  13  15
ENDBRANCH   4  13
ENDBRANCH  14   9
TORSDOF 9
ENDMDL
MODEL 4
REMARK VINA RESULT:       0.3      1.442      2.029
REMARK  Name = 45783546
REMARK  10 active torsions:
REMARK  status: ('A' for Active; 'I' for Inactive)
REMARK    1  A    between atoms: O_2  and  C_27
REMARK    2  A    between atoms: O_2  and  C_28
REMARK    3  A    between atoms: O_3  and  C_29
REMARK    4  A    between atoms: O_3  and  C_30
REMARK    5  A    between atoms: N_4  and  C_13
REMARK    6  A    between atoms: C_9  and  C_14
REMARK    7  A    between atoms: C_13  and  C_15
REMARK    8  A    between atoms: C_18  and  C_21
REMARK    9  A    between atoms: C_22  and  C_26
REMARK   10  A    between atoms: C_28  and  C_29
REMARK                            x       y       z     vdW  Elec       q    Type
REMARK                         _______ _______ _______ _____ _____    ______ ____
ROOT
ATOM      1  O   UNL     1      13.785 -10.714  32.524  0.00  0.00    -0.336 OA
ATOM      5  N   UNL     1      12.963  -9.307  30.988  0.00  0.00    -0.190 NA
ATOM      6  N   UNL     1      12.447 -10.496  32.873  0.00  0.00    -0.056 NA
ATOM     14  C   UNL     1      14.007  -9.978  31.404  0.00  0.00    +0.245 A 
ATOM     18  C   UNL     1      12.030  -9.656  31.921  0.00  0.00    +0.204 A 
ENDROOT
BRANCH  18  21
ATOM      7  N   UNL     1       8.557  -9.051  30.738  0.00  0.00    -0.221 NA
ATOM     21  C   UNL     1      10.689  -9.147  31.872  0.00  0.00    +0.041 A 
ATOM     23  C   UNL     1      10.214  -8.288  32.857  0.00  0.00    +0.018 A 
ATOM     24  C   UNL     1       9.830  -9.495  30.843  0.00  0.00    +0.126 A 
ATOM     25  C   UNL     1       8.910  -7.811  32.783  0.00  0.00    +0.068 A 
ATOM     27  C   UNL     1       8.129  -8.218  31.713  0.00  0.00    +0.215 A 
BRANCH  27   2
ATOM      2  O   UNL     1       6.840  -7.761  31.618  0.00  0.00    -0.474 OA
BRANCH   2  28
ATOM     28  C   UNL     1       5.876  -8.668  31.096  0.00  0.00    +0.258 C 
BRANCH  28  29
ATOM     29  C   UNL     1       6.565  -9.972  30.746  0.00  0.00    +0.200 C 
BRANCH  29   3
ATOM      3  O   UNL     1       6.741 -10.738  31.931  0.00  0.00    -0.380 OA
ATOM     30  C   UNL     1       5.641 -10.587  32.818  0.00  0.00    +0.194 C 
ENDBRANCH  29   3
ENDBRANCH  28  29
ENDBRANCH   2  28
ENDBRANCH  27   2
ENDBRANCH  18  21
BRANCH  14   9
ATOM      4  N   UNL     1      15.662  -8.961  29.848  0.00  0.00    -0.287 NA
ATOM      9  C   UNL     1      15.402 -10.045  30.817  0.00  0.00    +0.146 C 
ATOM     10  C   UNL     1      16.502  -9.890  31.883  0.00  0.00    +0.030 C 
ATOM     11  C   UNL     1      17.368  -8.736  31.396  0.00  0.00    +0.017 C 
ATOM     12  C   UNL     1      17.100  -8.693  29.906  0.00  0.00    +0.085 C 
BRANCH   4  13
ATOM     13  C   UNL     1      15.217  -9.280  28.498  0.00  0.00    +0.120 C 
BRANCH  13  15
ATOM     15  C   UNL     1      15.685  -8.256  27.498  0.00  0.00    -0.033 A 
ATOM     16  C   UNL     1      16.307  -8.667  26.318  0.00  0.00    +0.006 A 
ATOM     17  C   UNL     1      15.498  -6.898  27.751  0.00  0.00    +0.006 A 
ATOM     19  C   UNL     1      16.739  -7.719  25.391  0.00  0.00    +0.019 A 
ATOM     20  C   UNL     1      15.931  -5.949  26.824  0.00  0.00    +0.019 A 
ATOM     22  C   UNL     1      16.551  -6.360  25.644  0.00  0.00    +0.052 A 
BRANCH  22  26
ATOM      8  N   UNL     1      17.355  -4.598  23.926  0.00  0.00    -0.191 NA
ATOM     26  C   UNL     1      16.995  -5.388  24.695  0.00  0.00    +0.099 C 
ENDBRANCH  22  26
ENDBRANCH  13  15
ENDBRANCH   4  13
ENDBRANCH  14   9
TORSDOF 9
ENDMDL
