MODEL 1
REMARK VINA RESULT:       5.0      0.000      0.000
REMARK  Name = 11883170
REMARK  10 active torsions:
REMARK  status: ('A' for Active; 'I' for Inactive)
REMARK    1  A    between atoms: O_2  and  C_12
REMARK    2  A    between atoms: O_3  and  C_17
REMARK    3  A    between atoms: N_6  and  C_24
REMARK    4  A    between atoms: C_7  and  C_15
REMARK    5  A    between atoms: C_9  and  C_17
REMARK    6  A    between atoms: C_9  and  C_18
REMARK    7  A    between atoms: C_10  and  C_20
REMARK    8  A    between atoms: C_20  and  C_21
REMARK    9  A    between atoms: C_22  and  C_23
REMARK   10  A    between atoms: C_24  and  C_29
REMARK                            x       y       z     vdW  Elec       q    Type
REMARK                         _______ _______ _______ _____ _____    ______ ____
ROOT
ATOM      1  S   UNL     1       1.321  -1.529  23.795  0.00  0.00    -0.072 S 
ATOM      5  N   UNL     1       1.683   1.033  23.748  0.00  0.00    -0.243 NA
ATOM      7  C   UNL     1      -2.151   1.444  23.730  0.00  0.00    -0.020 C 
ATOM      8  C   UNL     1      -2.377   0.110  24.569  0.00  0.00    +0.011 C 
ATOM      9  C   UNL     1      -3.869  -0.347  24.798  0.00  0.00    +0.021 C 
ATOM     10  C   UNL     1      -0.657   1.945  23.993  0.00  0.00    +0.053 C 
ATOM     11  C   UNL     1      -3.128   2.540  24.229  0.00  0.00    +0.010 C 
ATOM     12  C   UNL     1      -4.716   0.876  25.249  0.00  0.00    +0.123 C 
ATOM     13  C   UNL     1      -1.439  -1.033  24.084  0.00  0.00    +0.049 C 
ATOM     14  C   UNL     1      -4.576   2.079  24.323  0.00  0.00    +0.032 C 
ATOM     15  C   UNL     1      -2.366   1.242  22.209  0.00  0.00    +0.012 C 
ATOM     16  C   UNL     1       0.325   0.807  23.876  0.00  0.00    +0.056 A 
ATOM     18  C   UNL     1      -3.909  -1.388  25.953  0.00  0.00    +0.016 C 
ATOM     19  C   UNL     1      -0.045  -0.521  23.937  0.00  0.00    +0.014 A 
ATOM     22  C   UNL     1       2.305  -0.125  23.688  0.00  0.00    +0.109 A 
ENDROOT
BRANCH  22  23
ATOM     23  C   UNL     1       3.731  -0.291  23.546  0.00  0.00    +0.007 A 
ATOM     25  C   UNL     1       4.330  -1.502  23.893  0.00  0.00    +0.010 A 
ATOM     26  C   UNL     1       4.511   0.760  23.062  0.00  0.00    +0.010 A 
ATOM     27  C   UNL     1       5.708  -1.663  23.756  0.00  0.00    +0.001 A 
ATOM     28  C   UNL     1       5.889   0.599  22.926  0.00  0.00    +0.001 A 
ATOM     30  C   UNL     1       6.489  -0.613  23.272  0.00  0.00    +0.000 A 
ENDBRANCH  22  23
BRANCH  12   2
ATOM      2  O   UNL     1      -6.096   0.526  25.340  0.00  0.00    -0.391 OA
ATOM     32  H   UNL     1      -6.243  -0.264  24.794  0.00  0.00    +0.210 HD
ENDBRANCH  12   2
BRANCH   9  17
ATOM     17  C   UNL     1      -4.518  -1.049  23.584  0.00  0.00    +0.165 C 
BRANCH  17   3
ATOM      3  O   UNL     1      -4.425  -2.440  23.790  0.00  0.00    -0.394 OA
ATOM     33  H   UNL     1      -3.576  -2.743  23.426  0.00  0.00    +0.209 HD
ENDBRANCH  17   3
ENDBRANCH   9  17
BRANCH  10  20
ATOM     20  C   UNL     1      -0.227   3.147  23.140  0.00  0.00    +0.106 C 
BRANCH  20  21
ATOM      4  O   UNL     1      -0.025   5.529  23.509  0.00  0.00    -0.276 OA
ATOM      6  N   UNL     1      -1.508   4.291  24.800  0.00  0.00    -0.304 N 
ATOM     21  C   UNL     1      -0.550   4.462  23.811  0.00  0.00    +0.214 C 
ATOM     34  H   UNL     1      -1.924   3.377  24.948  0.00  0.00    +0.150 HD
BRANCH   6  24
ATOM     24  C   UNL     1      -2.009   5.378  25.610  0.00  0.00    +0.193 C 
BRANCH  24  29
ATOM     29  C   UNL     1      -3.035   4.912  26.543  0.00  0.00    -0.087 C 
ATOM     31  C   UNL     1      -3.879   4.527  27.305  0.00  0.00    +0.005 C 
ENDBRANCH  24  29
ENDBRANCH   6  24
ENDBRANCH  20  21
ENDBRANCH  10  20
TORSDOF 8
ENDMDL
MODEL 2
REMARK VINA RESULT:       5.2      2.947      3.423
REMARK  Name = 11883170
REMARK  10 active torsions:
REMARK  status: ('A' for Active; 'I' for Inactive)
REMARK    1  A    between atoms: O_2  and  C_12
REMARK    2  A    between atoms: O_3  and  C_17
REMARK    3  A    between atoms: N_6  and  C_24
REMARK    4  A    between atoms: C_7  and  C_15
REMARK    5  A    between atoms: C_9  and  C_17
REMARK    6  A    between atoms: C_9  and  C_18
REMARK    7  A    between atoms: C_10  and  C_20
REMARK    8  A    between atoms: C_20  and  C_21
REMARK    9  A    between atoms: C_22  and  C_23
REMARK   10  A    between atoms: C_24  and  C_29
REMARK                            x       y       z     vdW  Elec       q    Type
REMARK                         _______ _______ _______ _____ _____    ______ ____
ROOT
ATOM      1  S   UNL     1       0.614   0.232  22.576  0.00  0.00    -0.072 S 
ATOM      5  N   UNL     1       1.477   1.233  24.800  0.00  0.00    -0.243 NA
ATOM      7  C   UNL     1      -1.990   2.852  25.268  0.00  0.00    -0.020 C 
ATOM      8  C   UNL     1      -2.732   1.674  24.495  0.00  0.00    +0.011 C 
ATOM      9  C   UNL     1      -4.281   1.845  24.246  0.00  0.00    +0.021 C 
ATOM     10  C   UNL     1      -0.587   2.294  25.789  0.00  0.00    +0.053 C 
ATOM     11  C   UNL     1      -2.835   3.275  26.498  0.00  0.00    +0.010 C 
ATOM     12  C   UNL     1      -4.963   2.314  25.561  0.00  0.00    +0.123 C 
ATOM     13  C   UNL     1      -1.938   1.234  23.231  0.00  0.00    +0.049 C 
ATOM     14  C   UNL     1      -4.300   3.539  26.179  0.00  0.00    +0.032 C 
ATOM     15  C   UNL     1      -1.752   4.098  24.379  0.00  0.00    +0.012 C 
ATOM     16  C   UNL     1       0.132   1.537  24.702  0.00  0.00    +0.056 A 
ATOM     18  C   UNL     1      -4.890   0.463  23.875  0.00  0.00    +0.016 C 
ATOM     19  C   UNL     1      -0.497   1.055  23.571  0.00  0.00    +0.014 A 
ATOM     22  C   UNL     1       1.841   0.555  23.733  0.00  0.00    +0.109 A 
ENDROOT
BRANCH  22  23
ATOM     23  C   UNL     1       3.176   0.070  23.477  0.00  0.00    +0.007 A 
ATOM     25  C   UNL     1       3.526  -1.232  23.839  0.00  0.00    +0.010 A 
ATOM     26  C   UNL     1       4.116   0.902  22.869  0.00  0.00    +0.010 A 
ATOM     27  C   UNL     1       4.815  -1.701  23.592  0.00  0.00    +0.001 A 
ATOM     28  C   UNL     1       5.406   0.433  22.623  0.00  0.00    +0.001 A 
ATOM     30  C   UNL     1       5.756  -0.869  22.984  0.00  0.00    +0.000 A 
ENDBRANCH  22  23
BRANCH  12   2
ATOM      2  O   UNL     1      -6.342   2.602  25.337  0.00  0.00    -0.391 OA
ATOM     32  H   UNL     1      -6.866   1.873  25.706  0.00  0.00    +0.210 HD
ENDBRANCH  12   2
BRANCH   9  17
ATOM     17  C   UNL     1      -4.640   2.786  23.074  0.00  0.00    +0.165 C 
BRANCH  17   3
ATOM      3  O   UNL     1      -4.425   4.111  23.503  0.00  0.00    -0.394 OA
ATOM     33  H   UNL     1      -5.232   4.622  23.319  0.00  0.00    +0.209 HD
ENDBRANCH  17   3
ENDBRANCH   9  17
BRANCH  10  20
ATOM     20  C   UNL     1       0.321   3.351  26.432  0.00  0.00    +0.106 C 
BRANCH  20  21
ATOM      4  O   UNL     1       0.101   2.486  28.681  0.00  0.00    -0.276 OA
ATOM      6  N   UNL     1       2.203   3.064  27.876  0.00  0.00    -0.304 N 
ATOM     21  C   UNL     1       0.827   2.913  27.787  0.00  0.00    +0.214 C 
ATOM     34  H   UNL     1       2.729   3.380  27.067  0.00  0.00    +0.150 HD
BRANCH   6  24
ATOM     24  C   UNL     1       2.960   2.726  29.060  0.00  0.00    +0.193 C 
BRANCH  24  29
ATOM     29  C   UNL     1       2.077   2.319  30.152  0.00  0.00    -0.087 C 
ATOM     31  C   UNL     1       1.348   1.985  31.046  0.00  0.00    +0.005 C 
ENDBRANCH  24  29
ENDBRANCH   6  24
ENDBRANCH  20  21
ENDBRANCH  10  20
TORSDOF 8
ENDMDL
MODEL 3
REMARK VINA RESULT:       5.8      2.181      4.635
REMARK  Name = 11883170
REMARK  10 active torsions:
REMARK  status: ('A' for Active; 'I' for Inactive)
REMARK    1  A    between atoms: O_2  and  C_12
REMARK    2  A    between atoms: O_3  and  C_17
REMARK    3  A    between atoms: N_6  and  C_24
REMARK    4  A    between atoms: C_7  and  C_15
REMARK    5  A    between atoms: C_9  and  C_17
REMARK    6  A    between atoms: C_9  and  C_18
REMARK    7  A    between atoms: C_10  and  C_20
REMARK    8  A    between atoms: C_20  and  C_21
REMARK    9  A    between atoms: C_22  and  C_23
REMARK   10  A    between atoms: C_24  and  C_29
REMARK                            x       y       z     vdW  Elec       q    Type
REMARK                         _______ _______ _______ _____ _____    ______ ____
ROOT
ATOM      1  S   UNL     1       0.622   1.988  25.285  0.00  0.00    -0.072 S 
ATOM      5  N   UNL     1      -0.324   0.933  23.120  0.00  0.00    -0.243 NA
ATOM      7  C   UNL     1      -3.852   1.881  24.351  0.00  0.00    -0.020 C 
ATOM      8  C   UNL     1      -3.322   3.166  25.128  0.00  0.00    +0.011 C 
ATOM      9  C   UNL     1      -4.373   3.964  25.992  0.00  0.00    +0.021 C 
ATOM     10  C   UNL     1      -2.779   1.504  23.229  0.00  0.00    +0.053 C 
ATOM     11  C   UNL     1      -5.193   2.219  23.650  0.00  0.00    +0.010 C 
ATOM     12  C   UNL     1      -5.667   4.175  25.158  0.00  0.00    +0.123 C 
ATOM     13  C   UNL     1      -1.990   2.869  25.877  0.00  0.00    +0.049 C 
ATOM     14  C   UNL     1      -6.215   2.885  24.560  0.00  0.00    +0.032 C 
ATOM     15  C   UNL     1      -4.073   0.663  25.283  0.00  0.00    +0.012 C 
ATOM     16  C   UNL     1      -1.380   1.520  23.791  0.00  0.00    +0.056 A 
ATOM     18  C   UNL     1      -3.797   5.371  26.318  0.00  0.00    +0.016 C 
ATOM     19  C   UNL     1      -1.045   2.153  24.971  0.00  0.00    +0.014 A 
ATOM     22  C   UNL     1       0.778   1.111  23.816  0.00  0.00    +0.109 A 
ENDROOT
BRANCH  22  23
ATOM     23  C   UNL     1       2.084   0.630  23.436  0.00  0.00    +0.007 A 
ATOM     25  C   UNL     1       3.043   1.523  22.958  0.00  0.00    +0.010 A 
ATOM     26  C   UNL     1       2.387  -0.727  23.544  0.00  0.00    +0.010 A 
ATOM     27  C   UNL     1       4.306   1.059  22.590  0.00  0.00    +0.001 A 
ATOM     28  C   UNL     1       3.649  -1.191  23.175  0.00  0.00    +0.001 A 
ATOM     30  C   UNL     1       4.609  -0.298  22.698  0.00  0.00    +0.000 A 
ENDBRANCH  22  23
BRANCH  12   2
ATOM      2  O   UNL     1      -6.685   4.781  25.955  0.00  0.00    -0.391 OA
ATOM     32  H   UNL     1      -7.523   4.720  25.468  0.00  0.00    +0.210 HD
ENDBRANCH  12   2
BRANCH   9  17
ATOM     17  C   UNL     1      -4.697   3.322  27.359  0.00  0.00    +0.165 C 
BRANCH  17   3
ATOM      3  O   UNL     1      -5.861   2.542  27.204  0.00  0.00    -0.394 OA
ATOM     33  H   UNL     1      -5.608   1.703  26.783  0.00  0.00    +0.209 HD
ENDBRANCH  17   3
ENDBRANCH   9  17
BRANCH  10  20
ATOM     20  C   UNL     1      -3.069   0.195  22.482  0.00  0.00    +0.106 C 
BRANCH  20  21
ATOM      4  O   UNL     1      -4.339  -1.504  23.644  0.00  0.00    -0.276 OA
ATOM      6  N   UNL     1      -2.051  -1.333  24.011  0.00  0.00    -0.304 N 
ATOM     21  C   UNL     1      -3.256  -0.967  23.429  0.00  0.00    +0.214 C 
ATOM     34  H   UNL     1      -1.194  -0.862  23.735  0.00  0.00    +0.150 HD
BRANCH   6  24
ATOM     24  C   UNL     1      -1.928  -2.414  24.962  0.00  0.00    +0.193 C 
BRANCH  24  29
ATOM     29  C   UNL     1      -0.532  -2.628  25.340  0.00  0.00    -0.087 C 
ATOM     31  C   UNL     1       0.616  -2.802  25.646  0.00  0.00    +0.005 C 
ENDBRANCH  24  29
ENDBRANCH   6  24
ENDBRANCH  20  21
ENDBRANCH  10  20
TORSDOF 8
ENDMDL
MODEL 4
REMARK VINA RESULT:       6.6      2.082      4.819
REMARK  Name = 11883170
REMARK  10 active torsions:
REMARK  status: ('A' for Active; 'I' for Inactive)
REMARK    1  A    between atoms: O_2  and  C_12
REMARK    2  A    between atoms: O_3  and  C_17
REMARK    3  A    between atoms: N_6  and  C_24
REMARK    4  A    between atoms: C_7  and  C_15
REMARK    5  A    between atoms: C_9  and  C_17
REMARK    6  A    between atoms: C_9  and  C_18
REMARK    7  A    between atoms: C_10  and  C_20
REMARK    8  A    between atoms: C_20  and  C_21
REMARK    9  A    between atoms: C_22  and  C_23
REMARK   10  A    between atoms: C_24  and  C_29
REMARK                            x       y       z     vdW  Elec       q    Type
REMARK                         _______ _______ _______ _____ _____    ______ ____
ROOT
ATOM      1  S   UNL     1       1.347   2.130  23.774  0.00  0.00    -0.072 S 
ATOM      5  N   UNL     1       0.870  -0.410  23.892  0.00  0.00    -0.243 NA
ATOM      7  C   UNL     1      -2.705   0.446  25.053  0.00  0.00    -0.020 C 
ATOM      8  C   UNL     1      -2.734   1.806  24.225  0.00  0.00    +0.011 C 
ATOM      9  C   UNL     1      -4.000   2.729  24.408  0.00  0.00    +0.021 C 
ATOM     10  C   UNL     1      -1.599  -0.505  24.403  0.00  0.00    +0.053 C 
ATOM     11  C   UNL     1      -4.083  -0.257  24.938  0.00  0.00    +0.010 C 
ATOM     12  C   UNL     1      -5.285   1.861  24.310  0.00  0.00    +0.123 C 
ATOM     13  C   UNL     1      -1.381   2.567  24.335  0.00  0.00    +0.049 C 
ATOM     14  C   UNL     1      -5.267   0.652  25.237  0.00  0.00    +0.032 C 
ATOM     15  C   UNL     1      -2.383   0.662  26.553  0.00  0.00    +0.012 C 
ATOM     16  C   UNL     1      -0.318   0.248  24.150  0.00  0.00    +0.056 A 
ATOM     18  C   UNL     1      -4.047   3.760  23.245  0.00  0.00    +0.016 C 
ATOM     19  C   UNL     1      -0.246   1.626  24.106  0.00  0.00    +0.014 A 
ATOM     22  C   UNL     1       1.816   0.480  23.687  0.00  0.00    +0.109 A 
ENDROOT
BRANCH  22  23
ATOM     23  C   UNL     1       3.195   0.169  23.397  0.00  0.00    +0.007 A 
ATOM     25  C   UNL     1       3.744  -1.038  23.830  0.00  0.00    +0.010 A 
ATOM     26  C   UNL     1       3.980   1.077  22.684  0.00  0.00    +0.010 A 
ATOM     27  C   UNL     1       5.076  -1.339  23.550  0.00  0.00    +0.001 A 
ATOM     28  C   UNL     1       5.312   0.776  22.405  0.00  0.00    +0.001 A 
ATOM     30  C   UNL     1       5.861  -0.432  22.837  0.00  0.00    +0.000 A 
ENDBRANCH  22  23
BRANCH  12   2
ATOM      2  O   UNL     1      -6.443   2.644  24.600  0.00  0.00    -0.391 OA
ATOM     32  H   UNL     1      -6.894   2.835  23.761  0.00  0.00    +0.210 HD
ENDBRANCH  12   2
BRANCH   9  17
ATOM     17  C   UNL     1      -3.998   3.567  25.706  0.00  0.00    +0.165 C 
BRANCH  17   3
ATOM      3  O   UNL     1      -4.894   4.641  25.527  0.00  0.00    -0.394 OA
ATOM     33  H   UNL     1      -5.628   4.332  24.970  0.00  0.00    +0.209 HD
ENDBRANCH  17   3
ENDBRANCH   9  17
BRANCH  10  20
ATOM     20  C   UNL     1      -1.341  -1.806  25.176  0.00  0.00    +0.106 C 
BRANCH  20  21
ATOM      4  O   UNL     1      -3.223  -3.133  25.916  0.00  0.00    -0.276 OA
ATOM      6  N   UNL     1      -2.527  -3.266  23.703  0.00  0.00    -0.304 N 
ATOM     21  C   UNL     1      -2.469  -2.797  25.007  0.00  0.00    +0.214 C 
ATOM     34  H   UNL     1      -1.891  -2.894  23.004  0.00  0.00    +0.150 HD
BRANCH   6  24
ATOM     24  C   UNL     1      -3.506  -4.229  23.252  0.00  0.00    +0.193 C 
BRANCH  24  29
ATOM     29  C   UNL     1      -4.849  -3.648  23.239  0.00  0.00    -0.087 C 
ATOM     31  C   UNL     1      -5.949  -3.169  23.226  0.00  0.00    +0.005 C 
ENDBRANCH  24  29
ENDBRANCH   6  24
ENDBRANCH  20  21
ENDBRANCH  10  20
TORSDOF 8
ENDMDL
MODEL 5
REMARK VINA RESULT:       7.4      2.336      4.025
REMARK  Name = 11883170
REMARK  10 active torsions:
REMARK  status: ('A' for Active; 'I' for Inactive)
REMARK    1  A    between atoms: O_2  and  C_12
REMARK    2  A    between atoms: O_3  and  C_17
REMARK    3  A    between atoms: N_6  and  C_24
REMARK    4  A    between atoms: C_7  and  C_15
REMARK    5  A    between atoms: C_9  and  C_17
REMARK    6  A    between atoms: C_9  and  C_18
REMARK    7  A    between atoms: C_10  and  C_20
REMARK    8  A    between atoms: C_20  and  C_21
REMARK    9  A    between atoms: C_22  and  C_23
REMARK   10  A    between atoms: C_24  and  C_29
REMARK                            x       y       z     vdW  Elec       q    Type
REMARK                         _______ _______ _______ _____ _____    ______ ____
ROOT
ATOM      1  S   UNL     1       0.672   2.174  23.996  0.00  0.00    -0.072 S 
ATOM      5  N   UNL     1       0.273  -0.344  23.557  0.00  0.00    -0.243 NA
ATOM      7  C   UNL     1      -3.389   0.180  24.642  0.00  0.00    -0.020 C 
ATOM      8  C   UNL     1      -3.415   1.681  24.112  0.00  0.00    +0.011 C 
ATOM      9  C   UNL     1      -4.719   2.520  24.402  0.00  0.00    +0.021 C 
ATOM     10  C   UNL     1      -2.217  -0.593  23.880  0.00  0.00    +0.053 C 
ATOM     11  C   UNL     1      -4.734  -0.512  24.298  0.00  0.00    +0.010 C 
ATOM     12  C   UNL     1      -5.967   1.666  24.046  0.00  0.00    +0.123 C 
ATOM     13  C   UNL     1      -2.096   2.430  24.462  0.00  0.00    +0.049 C 
ATOM     14  C   UNL     1      -5.962   0.290  24.703  0.00  0.00    +0.032 C 
ATOM     15  C   UNL     1      -3.161   0.085  26.171  0.00  0.00    +0.012 C 
ATOM     16  C   UNL     1      -0.949   0.222  23.869  0.00  0.00    +0.056 A 
ATOM     18  C   UNL     1      -4.733   3.769  23.476  0.00  0.00    +0.016 C 
ATOM     19  C   UNL     1      -0.920   1.580  24.116  0.00  0.00    +0.014 A 
ATOM     22  C   UNL     1       1.200   0.588  23.600  0.00  0.00    +0.109 A 
ENDROOT
BRANCH  22  23
ATOM     23  C   UNL     1       2.603   0.373  23.339  0.00  0.00    +0.007 A 
ATOM     25  C   UNL     1       3.197  -0.841  23.685  0.00  0.00    +0.010 A 
ATOM     26  C   UNL     1       3.364   1.378  22.743  0.00  0.00    +0.010 A 
ATOM     27  C   UNL     1       4.553  -1.050  23.434  0.00  0.00    +0.001 A 
ATOM     28  C   UNL     1       4.719   1.169  22.492  0.00  0.00    +0.001 A 
ATOM     30  C   UNL     1       5.315  -0.045  22.837  0.00  0.00    +0.000 A 
ENDBRANCH  22  23
BRANCH  12   2
ATOM      2  O   UNL     1      -7.165   2.348  24.418  0.00  0.00    -0.391 OA
ATOM     32  H   UNL     1      -6.996   3.303  24.364  0.00  0.00    +0.210 HD
ENDBRANCH  12   2
BRANCH   9  17
ATOM     17  C   UNL     1      -4.819   3.070  25.843  0.00  0.00    +0.165 C 
BRANCH  17   3
ATOM      3  O   UNL     1      -5.739   4.138  25.833  0.00  0.00    -0.394 OA
ATOM     33  H   UNL     1      -5.752   4.532  26.722  0.00  0.00    +0.209 HD
ENDBRANCH  17   3
ENDBRANCH   9  17
BRANCH  10  20
ATOM     20  C   UNL     1      -1.961  -2.021  24.383  0.00  0.00    +0.106 C 
BRANCH  20  21
ATOM      4  O   UNL     1      -0.216  -2.986  25.753  0.00  0.00    -0.276 OA
ATOM      6  N   UNL     1      -1.062  -0.887  26.284  0.00  0.00    -0.304 N 
ATOM     21  C   UNL     1      -0.979  -2.049  25.530  0.00  0.00    +0.214 C 
ATOM     34  H   UNL     1      -1.690  -0.143  25.995  0.00  0.00    +0.150 HD
BRANCH   6  24
ATOM     24  C   UNL     1      -0.241  -0.640  27.447  0.00  0.00    +0.193 C 
BRANCH  24  29
ATOM     29  C   UNL     1       0.021   0.790  27.612  0.00  0.00    -0.087 C 
ATOM     31  C   UNL     1       0.235   1.963  27.752  0.00  0.00    +0.005 C 
ENDBRANCH  24  29
ENDBRANCH   6  24
ENDBRANCH  20  21
ENDBRANCH  10  20
TORSDOF 8
ENDMDL
MODEL 6
REMARK VINA RESULT:       7.6      1.696      2.961
REMARK  Name = 11883170
REMARK  10 active torsions:
REMARK  status: ('A' for Active; 'I' for Inactive)
REMARK    1  A    between atoms: O_2  and  C_12
REMARK    2  A    between atoms: O_3  and  C_17
REMARK    3  A    between atoms: N_6  and  C_24
REMARK    4  A    between atoms: C_7  and  C_15
REMARK    5  A    between atoms: C_9  and  C_17
REMARK    6  A    between atoms: C_9  and  C_18
REMARK    7  A    between atoms: C_10  and  C_20
REMARK    8  A    between atoms: C_20  and  C_21
REMARK    9  A    between atoms: C_22  and  C_23
REMARK   10  A    between atoms: C_24  and  C_29
REMARK                            x       y       z     vdW  Elec       q    Type
REMARK                         _______ _______ _______ _____ _____    ______ ____
ROOT
ATOM      1  S   UNL     1       0.129  -0.121  23.164  0.00  0.00    -0.072 S 
ATOM      5  N   UNL     1       1.175   1.739  24.626  0.00  0.00    -0.243 NA
ATOM      7  C   UNL     1      -2.390   3.063  25.265  0.00  0.00    -0.020 C 
ATOM      8  C   UNL     1      -3.034   1.611  25.154  0.00  0.00    +0.011 C 
ATOM      9  C   UNL     1      -4.608   1.519  25.220  0.00  0.00    +0.021 C 
ATOM     10  C   UNL     1      -0.841   2.890  25.616  0.00  0.00    +0.053 C 
ATOM     11  C   UNL     1      -3.068   3.841  26.422  0.00  0.00    +0.010 C 
ATOM     12  C   UNL     1      -5.122   2.389  26.401  0.00  0.00    +0.123 C 
ATOM     13  C   UNL     1      -2.407   0.799  23.984  0.00  0.00    +0.049 C 
ATOM     14  C   UNL     1      -4.590   3.817  26.373  0.00  0.00    +0.032 C 
ATOM     15  C   UNL     1      -2.534   3.887  23.961  0.00  0.00    +0.012 C 
ATOM     16  C   UNL     1      -0.199   1.848  24.736  0.00  0.00    +0.056 A 
ATOM     18  C   UNL     1      -5.017   0.049  25.515  0.00  0.00    +0.016 C 
ATOM     19  C   UNL     1      -0.920   0.908  24.027  0.00  0.00    +0.014 A 
ATOM     22  C   UNL     1       1.462   0.742  23.819  0.00  0.00    +0.109 A 
ENDROOT
BRANCH  22  23
ATOM     23  C   UNL     1       2.796   0.330  23.455  0.00  0.00    +0.007 A 
ATOM     25  C   UNL     1       3.242  -0.952  23.777  0.00  0.00    +0.010 A 
ATOM     26  C   UNL     1       3.640   1.214  22.782  0.00  0.00    +0.010 A 
ATOM     27  C   UNL     1       4.531  -1.350  23.426  0.00  0.00    +0.001 A 
ATOM     28  C   UNL     1       4.929   0.815  22.431  0.00  0.00    +0.001 A 
ATOM     30  C   UNL     1       5.376  -0.467  22.753  0.00  0.00    +0.000 A 
ENDBRANCH  22  23
BRANCH  12   2
ATOM      2  O   UNL     1      -6.549   2.431  26.409  0.00  0.00    -0.391 OA
ATOM     32  H   UNL     1      -6.828   3.241  25.951  0.00  0.00    +0.210 HD
ENDBRANCH  12   2
BRANCH   9  17
ATOM     17  C   UNL     1      -5.326   1.895  23.905  0.00  0.00    +0.165 C 
BRANCH  17   3
ATOM      3  O   UNL     1      -6.711   1.717  24.104  0.00  0.00    -0.394 OA
ATOM     33  H   UNL     1      -6.857   1.522  25.045  0.00  0.00    +0.209 HD
ENDBRANCH  17   3
ENDBRANCH   9  17
BRANCH  10  20
ATOM     20  C   UNL     1      -0.036   4.197  25.615  0.00  0.00    +0.106 C 
BRANCH  20  21
ATOM      4  O   UNL     1      -1.325   5.967  24.586  0.00  0.00    -0.276 OA
ATOM      6  N   UNL     1       0.295   4.857  23.343  0.00  0.00    -0.304 N 
ATOM     21  C   UNL     1      -0.447   5.114  24.487  0.00  0.00    +0.214 C 
ATOM     34  H   UNL     1       1.036   4.163  23.368  0.00  0.00    +0.150 HD
BRANCH   6  24
ATOM     24  C   UNL     1       0.115   5.581  22.105  0.00  0.00    +0.193 C 
BRANCH  24  29
ATOM     29  C   UNL     1       1.395   5.805  21.435  0.00  0.00    -0.087 C 
ATOM     31  C   UNL     1       2.445   5.986  20.882  0.00  0.00    +0.005 C 
ENDBRANCH  24  29
ENDBRANCH   6  24
ENDBRANCH  20  21
ENDBRANCH  10  20
TORSDOF 8
ENDMDL
MODEL 7
REMARK VINA RESULT:       7.6      2.799      7.667
REMARK  Name = 11883170
REMARK  10 active torsions:
REMARK  status: ('A' for Active; 'I' for Inactive)
REMARK    1  A    between atoms: O_2  and  C_12
REMARK    2  A    between atoms: O_3  and  C_17
REMARK    3  A    between atoms: N_6  and  C_24
REMARK    4  A    between atoms: C_7  and  C_15
REMARK    5  A    between atoms: C_9  and  C_17
REMARK    6  A    between atoms: C_9  and  C_18
REMARK    7  A    between atoms: C_10  and  C_20
REMARK    8  A    between atoms: C_20  and  C_21
REMARK    9  A    between atoms: C_22  and  C_23
REMARK   10  A    between atoms: C_24  and  C_29
REMARK                            x       y       z     vdW  Elec       q    Type
REMARK                         _______ _______ _______ _____ _____    ______ ____
ROOT
ATOM      1  S   UNL     1      -0.080   3.422  23.889  0.00  0.00    -0.072 S 
ATOM      5  N   UNL     1      -1.172   1.179  24.573  0.00  0.00    -0.243 NA
ATOM      7  C   UNL     1       2.041  -0.597  23.395  0.00  0.00    -0.020 C 
ATOM      8  C   UNL     1       2.961   0.647  23.772  0.00  0.00    +0.011 C 
ATOM      9  C   UNL     1       4.487   0.553  23.383  0.00  0.00    +0.021 C 
ATOM     10  C   UNL     1       0.692  -0.489  24.245  0.00  0.00    +0.053 C 
ATOM     11  C   UNL     1       2.763  -1.911  23.790  0.00  0.00    +0.010 C 
ATOM     12  C   UNL     1       5.038  -0.838  23.807  0.00  0.00    +0.123 C 
ATOM     13  C   UNL     1       2.292   1.993  23.365  0.00  0.00    +0.049 C 
ATOM     14  C   UNL     1       4.198  -2.000  23.291  0.00  0.00    +0.032 C 
ATOM     15  C   UNL     1       1.696  -0.654  21.886  0.00  0.00    +0.012 C 
ATOM     16  C   UNL     1       0.128   0.908  24.190  0.00  0.00    +0.056 A 
ATOM     18  C   UNL     1       5.280   1.627  24.180  0.00  0.00    +0.016 C 
ATOM     19  C   UNL     1       0.869   2.009  23.810  0.00  0.00    +0.014 A 
ATOM     22  C   UNL     1      -1.395   2.469  24.448  0.00  0.00    +0.109 A 
ENDROOT
BRANCH  22  23
ATOM     23  C   UNL     1      -2.645   3.125  24.746  0.00  0.00    +0.007 A 
ATOM     25  C   UNL     1      -2.881   3.626  26.027  0.00  0.00    +0.010 A 
ATOM     26  C   UNL     1      -3.618   3.257  23.756  0.00  0.00    +0.010 A 
ATOM     27  C   UNL     1      -4.088   4.260  26.316  0.00  0.00    +0.001 A 
ATOM     28  C   UNL     1      -4.826   3.890  24.045  0.00  0.00    +0.001 A 
ATOM     30  C   UNL     1      -5.062   4.393  25.325  0.00  0.00    +0.000 A 
ENDBRANCH  22  23
BRANCH  12   2
ATOM      2  O   UNL     1       6.381  -1.005  23.354  0.00  0.00    -0.391 OA
ATOM     32  H   UNL     1       6.685  -0.155  22.996  0.00  0.00    +0.210 HD
ENDBRANCH  12   2
BRANCH   9  17
ATOM     17  C   UNL     1       4.787   0.834  21.894  0.00  0.00    +0.165 C 
BRANCH  17   3
ATOM      3  O   UNL     1       3.574   0.731  21.183  0.00  0.00    -0.394 OA
ATOM     33  H   UNL     1       3.045   0.024  21.589  0.00  0.00    +0.209 HD
ENDBRANCH  17   3
ENDBRANCH   9  17
BRANCH  10  20
ATOM     20  C   UNL     1      -0.371  -1.538  23.890  0.00  0.00    +0.106 C 
BRANCH  20  21
ATOM      4  O   UNL     1      -1.312  -1.512  26.119  0.00  0.00    -0.276 OA
ATOM      6  N   UNL     1      -2.723  -1.690  24.281  0.00  0.00    -0.304 N 
ATOM     21  C   UNL     1      -1.489  -1.575  24.906  0.00  0.00    +0.214 C 
ATOM     34  H   UNL     1      -2.777  -1.686  23.267  0.00  0.00    +0.150 HD
BRANCH   6  24
ATOM     24  C   UNL     1      -3.972  -1.752  25.005  0.00  0.00    +0.193 C 
BRANCH  24  29
ATOM     29  C   UNL     1      -4.557  -0.420  25.162  0.00  0.00    -0.087 C 
ATOM     31  C   UNL     1      -5.040   0.671  25.292  0.00  0.00    +0.005 C 
ENDBRANCH  24  29
ENDBRANCH   6  24
ENDBRANCH  20  21
ENDBRANCH  10  20
TORSDOF 8
ENDMDL
MODEL 8
REMARK VINA RESULT:       7.7      1.707      1.794
REMARK  Name = 11883170
REMARK  10 active torsions:
REMARK  status: ('A' for Active; 'I' for Inactive)
REMARK    1  A    between atoms: O_2  and  C_12
REMARK    2  A    between atoms: O_3  and  C_17
REMARK    3  A    between atoms: N_6  and  C_24
REMARK    4  A    between atoms: C_7  and  C_15
REMARK    5  A    between atoms: C_9  and  C_17
REMARK    6  A    between atoms: C_9  and  C_18
REMARK    7  A    between atoms: C_10  and  C_20
REMARK    8  A    between atoms: C_20  and  C_21
REMARK    9  A    between atoms: C_22  and  C_23
REMARK   10  A    between atoms: C_24  and  C_29
REMARK                            x       y       z     vdW  Elec       q    Type
REMARK                         _______ _______ _______ _____ _____    ______ ____
ROOT
ATOM      1  S   UNL     1       1.112  -1.435  23.445  0.00  0.00    -0.072 S 
ATOM      5  N   UNL     1       1.468   1.055  24.051  0.00  0.00    -0.243 NA
ATOM      7  C   UNL     1      -2.366   1.436  24.187  0.00  0.00    -0.020 C 
ATOM      8  C   UNL     1      -2.578  -0.069  24.660  0.00  0.00    +0.011 C 
ATOM      9  C   UNL     1      -4.067  -0.578  24.784  0.00  0.00    +0.021 C 
ATOM     10  C   UNL     1      -0.870   1.862  24.551  0.00  0.00    +0.053 C 
ATOM     11  C   UNL     1      -3.339   2.363  24.962  0.00  0.00    +0.010 C 
ATOM     12  C   UNL     1      -4.909   0.485  25.543  0.00  0.00    +0.123 C 
ATOM     13  C   UNL     1      -1.644  -1.045  23.886  0.00  0.00    +0.049 C 
ATOM     14  C   UNL     1      -4.784   1.885  24.953  0.00  0.00    +0.032 C 
ATOM     15  C   UNL     1      -2.603   1.629  22.668  0.00  0.00    +0.012 C 
ATOM     16  C   UNL     1       0.113   0.797  24.133  0.00  0.00    +0.056 A 
ATOM     18  C   UNL     1      -4.088  -1.879  25.634  0.00  0.00    +0.016 C 
ATOM     19  C   UNL     1      -0.254  -0.505  23.857  0.00  0.00    +0.014 A 
ATOM     22  C   UNL     1       2.092  -0.045  23.689  0.00  0.00    +0.109 A 
ENDROOT
BRANCH  22  23
ATOM     23  C   UNL     1       3.516  -0.161  23.490  0.00  0.00    +0.007 A 
ATOM     25  C   UNL     1       4.184  -1.317  23.894  0.00  0.00    +0.010 A 
ATOM     26  C   UNL     1       4.225   0.883  22.896  0.00  0.00    +0.010 A 
ATOM     27  C   UNL     1       5.561  -1.430  23.703  0.00  0.00    +0.001 A 
ATOM     28  C   UNL     1       5.602   0.770  22.705  0.00  0.00    +0.001 A 
ATOM     30  C   UNL     1       6.270  -0.386  23.108  0.00  0.00    +0.000 A 
ENDBRANCH  22  23
BRANCH  12   2
ATOM      2  O   UNL     1      -6.288   0.115  25.559  0.00  0.00    -0.391 OA
ATOM     32  H   UNL     1      -6.482  -0.355  24.732  0.00  0.00    +0.210 HD
ENDBRANCH  12   2
BRANCH   9  17
ATOM     17  C   UNL     1      -4.730  -0.949  23.439  0.00  0.00    +0.165 C 
BRANCH  17   3
ATOM      3  O   UNL     1      -4.730  -2.355  23.332  0.00  0.00    -0.394 OA
ATOM     33  H   UNL     1      -3.819  -2.644  23.154  0.00  0.00    +0.209 HD
ENDBRANCH  17   3
ENDBRANCH   9  17
BRANCH  10  20
ATOM     20  C   UNL     1      -0.454   3.244  24.028  0.00  0.00    +0.106 C 
BRANCH  20  21
ATOM      4  O   UNL     1       0.053   5.344  25.117  0.00  0.00    -0.276 OA
ATOM      6  N   UNL     1       0.691   3.348  26.122  0.00  0.00    -0.304 N 
ATOM     21  C   UNL     1       0.110   4.118  25.124  0.00  0.00    +0.214 C 
ATOM     34  H   UNL     1       0.648   2.335  26.068  0.00  0.00    +0.150 HD
BRANCH   6  24
ATOM     24  C   UNL     1       1.314   3.917  27.296  0.00  0.00    +0.193 C 
BRANCH  24  29
ATOM     29  C   UNL     1       1.419   2.927  28.368  0.00  0.00    -0.087 C 
ATOM     31  C   UNL     1       1.507   2.118  29.251  0.00  0.00    +0.005 C 
ENDBRANCH  24  29
ENDBRANCH   6  24
ENDBRANCH  20  21
ENDBRANCH  10  20
TORSDOF 8
ENDMDL
