MODEL 1
REMARK VINA RESULT:       2.2      0.000      0.000
REMARK  Name = 7144193
REMARK  8 active torsions:
REMARK  status: ('A' for Active; 'I' for Inactive)
REMARK    1  A    between atoms: O_6  and  C_25
REMARK    2  A    between atoms: O_6  and  C_31
REMARK    3  A    between atoms: O_7  and  C_30
REMARK    4  A    between atoms: O_7  and  C_33
REMARK    5  A    between atoms: O_8  and  C_32
REMARK    6  A    between atoms: C_19  and  C_24
REMARK    7  A    between atoms: C_21  and  C_25
REMARK    8  A    between atoms: C_31  and  C_32
REMARK                            x       y       z     vdW  Elec       q    Type
REMARK                         _______ _______ _______ _____ _____    ______ ____
ROOT
ATOM      4  O   UNL     1      -3.284   4.918  26.613  0.00  0.00    -0.268 OA
ATOM      5  O   UNL     1      -5.410   0.168  25.796  0.00  0.00    -0.273 OA
ATOM     10  N   UNL     1      -3.976   0.696  24.047  0.00  0.00    -0.299 N 
ATOM     11  N   UNL     1      -2.689   3.493  24.850  0.00  0.00    -0.311 N 
ATOM     12  C   UNL     1      -4.341   2.916  22.977  0.00  0.00    +0.027 C 
ATOM     13  C   UNL     1      -2.092   1.924  22.978  0.00  0.00    +0.054 C 
ATOM     14  C   UNL     1      -3.092   2.713  22.135  0.00  0.00    +0.018 C 
ATOM     15  C   UNL     1      -4.951   1.564  23.385  0.00  0.00    +0.113 C 
ATOM     16  C   UNL     1      -3.975   3.767  24.193  0.00  0.00    +0.130 C 
ATOM     17  C   UNL     1      -2.696   0.552  23.339  0.00  0.00    +0.117 C 
ATOM     18  C   UNL     1      -1.704   2.683  24.251  0.00  0.00    +0.034 A 
ATOM     19  C   UNL     1      -0.475   2.579  24.821  0.00  0.00    +0.002 A 
ATOM     20  C   UNL     1      -2.465   4.187  26.054  0.00  0.00    +0.252 A 
ATOM     21  C   UNL     1      -4.328   0.030  25.220  0.00  0.00    +0.241 C 
ATOM     22  C   UNL     1      -0.209   3.279  26.063  0.00  0.00    +0.015 A 
ATOM     23  C   UNL     1      -1.129   4.028  26.670  0.00  0.00    +0.071 A 
ENDROOT
BRANCH  19  24
ATOM     24  C   UNL     1       0.596   1.757  24.218  0.00  0.00    -0.016 A 
ATOM     26  C   UNL     1       0.476   0.367  24.190  0.00  0.00    +0.012 A 
ATOM     27  C   UNL     1       1.726   2.370  23.676  0.00  0.00    +0.012 A 
ATOM     28  C   UNL     1       1.486  -0.409  23.622  0.00  0.00    +0.046 A 
ATOM     29  C   UNL     1       2.736   1.594  23.108  0.00  0.00    +0.046 A 
ATOM     30  C   UNL     1       2.616   0.204  23.080  0.00  0.00    +0.130 A 
BRANCH  30   7
ATOM      7  O   UNL     1       3.602  -0.553  22.526  0.00  0.00    -0.406 OA
BRANCH   7  33
ATOM      1  F   UNL     1       4.853   0.258  24.222  0.00  0.00    -0.133 F 
ATOM      2  F   UNL     1       5.052  -1.860  23.718  0.00  0.00    -0.133 F 
ATOM      3  F   UNL     1       5.871  -0.309  22.373  0.00  0.00    -0.133 F 
ATOM     33  C   UNL     1       4.853  -0.629  23.201  0.00  0.00    +0.575 C 
ENDBRANCH   7  33
ENDBRANCH  30   7
ENDBRANCH  19  24
BRANCH  21  25
ATOM     25  C   UNL     1      -3.296  -0.903  25.803  0.00  0.00    +0.256 C 
BRANCH  25   6
ATOM      6  O   UNL     1      -3.793  -2.208  25.633  0.00  0.00    -0.359 OA
BRANCH   6  31
ATOM     31  C   UNL     1      -3.165  -2.883  24.545  0.00  0.00    +0.280 C 
BRANCH  31  32
ATOM      9  O   UNL     1      -1.006  -2.428  25.562  0.00  0.00    -0.248 OA
ATOM     32  C   UNL     1      -1.686  -2.612  24.565  0.00  0.00    +0.331 C 
BRANCH  32   8
ATOM      8  O   UNL     1      -1.195  -2.602  23.300  0.00  0.00    -0.479 OA
ATOM     34  H   UNL     1      -1.867  -2.306  22.649  0.00  0.00    +0.295 HD
ENDBRANCH  32   8
ENDBRANCH  31  32
ENDBRANCH   6  31
ENDBRANCH  25   6
ENDBRANCH  21  25
TORSDOF 8
ENDMDL
MODEL 2
REMARK VINA RESULT:       4.7      1.884      3.847
REMARK  Name = 7144193
REMARK  8 active torsions:
REMARK  status: ('A' for Active; 'I' for Inactive)
REMARK    1  A    between atoms: O_6  and  C_25
REMARK    2  A    between atoms: O_6  and  C_31
REMARK    3  A    between atoms: O_7  and  C_30
REMARK    4  A    between atoms: O_7  and  C_33
REMARK    5  A    between atoms: O_8  and  C_32
REMARK    6  A    between atoms: C_19  and  C_24
REMARK    7  A    between atoms: C_21  and  C_25
REMARK    8  A    between atoms: C_31  and  C_32
REMARK                            x       y       z     vdW  Elec       q    Type
REMARK                         _______ _______ _______ _____ _____    ______ ____
ROOT
ATOM      4  O   UNL     1      -5.083   1.428  23.982  0.00  0.00    -0.268 OA
ATOM      5  O   UNL     1      -3.113  -1.371  27.985  0.00  0.00    -0.273 OA
ATOM     10  N   UNL     1      -2.070  -1.995  26.006  0.00  0.00    -0.299 N 
ATOM     11  N   UNL     1      -3.283  -0.059  23.789  0.00  0.00    -0.311 N 
ATOM     12  C   UNL     1      -3.588  -2.583  24.120  0.00  0.00    +0.027 C 
ATOM     13  C   UNL     1      -1.357  -1.668  23.643  0.00  0.00    +0.054 C 
ATOM     14  C   UNL     1      -2.388  -2.703  23.194  0.00  0.00    +0.018 C 
ATOM     15  C   UNL     1      -3.181  -2.847  25.579  0.00  0.00    +0.113 C 
ATOM     16  C   UNL     1      -4.203  -1.194  23.941  0.00  0.00    +0.130 C 
ATOM     17  C   UNL     1      -0.921  -1.973  25.091  0.00  0.00    +0.117 C 
ATOM     18  C   UNL     1      -1.907  -0.243  23.545  0.00  0.00    +0.034 A 
ATOM     19  C   UNL     1      -1.122   0.829  23.262  0.00  0.00    +0.002 A 
ATOM     20  C   UNL     1      -3.886   1.212  23.788  0.00  0.00    +0.252 A 
ATOM     21  C   UNL     1      -2.135  -1.338  27.234  0.00  0.00    +0.241 C 
ATOM     22  C   UNL     1      -1.709   2.155  23.253  0.00  0.00    +0.015 A 
ATOM     23  C   UNL     1      -3.000   2.364  23.511  0.00  0.00    +0.071 A 
ENDROOT
BRANCH  19  24
ATOM     24  C   UNL     1       0.323   0.683  22.979  0.00  0.00    -0.016 A 
ATOM     26  C   UNL     1       1.251   1.471  23.660  0.00  0.00    +0.012 A 
ATOM     27  C   UNL     1       0.758  -0.243  22.030  0.00  0.00    +0.012 A 
ATOM     28  C   UNL     1       2.612   1.334  23.394  0.00  0.00    +0.046 A 
ATOM     29  C   UNL     1       2.120  -0.380  21.764  0.00  0.00    +0.046 A 
ATOM     30  C   UNL     1       3.048   0.408  22.445  0.00  0.00    +0.130 A 
BRANCH  30   7
ATOM      7  O   UNL     1       4.377   0.274  22.184  0.00  0.00    -0.406 OA
BRANCH   7  33
ATOM      1  F   UNL     1       6.459  -0.389  22.750  0.00  0.00    -0.133 F 
ATOM      2  F   UNL     1       5.393   0.937  24.123  0.00  0.00    -0.133 F 
ATOM      3  F   UNL     1       4.778  -1.176  23.906  0.00  0.00    -0.133 F 
ATOM     33  C   UNL     1       5.241  -0.086  23.255  0.00  0.00    +0.575 C 
ENDBRANCH   7  33
ENDBRANCH  30   7
ENDBRANCH  19  24
BRANCH  21  25
ATOM     25  C   UNL     1      -0.922  -0.537  27.637  0.00  0.00    +0.256 C 
BRANCH  25   6
ATOM      6  O   UNL     1      -0.617   0.304  26.551  0.00  0.00    -0.359 OA
BRANCH   6  31
ATOM     31  C   UNL     1      -1.254   1.575  26.663  0.00  0.00    +0.280 C 
BRANCH  31  32
ATOM      9  O   UNL     1      -0.480   3.664  25.693  0.00  0.00    -0.248 OA
ATOM     32  C   UNL     1      -0.265   2.668  26.365  0.00  0.00    +0.331 C 
BRANCH  32   8
ATOM      8  O   UNL     1       0.925   2.395  26.958  0.00  0.00    -0.479 OA
ATOM     34  H   UNL     1       1.540   3.159  26.913  0.00  0.00    +0.295 HD
ENDBRANCH  32   8
ENDBRANCH  31  32
ENDBRANCH   6  31
ENDBRANCH  25   6
ENDBRANCH  21  25
TORSDOF 8
ENDMDL
