MODEL 1
REMARK VINA RESULT:       8.7      0.000      0.000
REMARK  Name = 11883011
REMARK  11 active torsions:
REMARK  status: ('A' for Active; 'I' for Inactive)
REMARK    1  A    between atoms: O_2  and  C_15
REMARK    2  A    between atoms: O_3  and  C_20
REMARK    3  A    between atoms: C_10  and  C_18
REMARK    4  A    between atoms: C_12  and  C_20
REMARK    5  A    between atoms: C_12  and  C_21
REMARK    6  A    between atoms: C_13  and  C_23
REMARK    7  A    between atoms: C_23  and  C_24
REMARK    8  A    between atoms: C_30  and  C_31
REMARK    9  A    between atoms: C_31  and  C_32
REMARK   10  A    between atoms: C_31  and  C_33
REMARK   11  A    between atoms: C_31  and  C_34
REMARK                            x       y       z     vdW  Elec       q    Type
REMARK                         _______ _______ _______ _____ _____    ______ ____
ROOT
ATOM      1  S   UNL     1       0.651   2.228  25.720  0.00  0.00    -0.057 S 
ATOM      6  O   UNL     1       2.075  -0.031  21.925  0.00  0.00    -0.275 OA
ATOM      7  N   UNL     1      -0.092   1.253  23.442  0.00  0.00    -0.229 NA
ATOM      9  N   UNL     1       2.231   0.993  24.030  0.00  0.00    -0.264 N 
ATOM     10  C   UNL     1      -3.722   2.141  24.391  0.00  0.00    -0.019 C 
ATOM     11  C   UNL     1      -3.270   3.398  25.260  0.00  0.00    +0.011 C 
ATOM     12  C   UNL     1      -4.398   4.159  26.057  0.00  0.00    +0.021 C 
ATOM     13  C   UNL     1      -2.551   1.811  23.356  0.00  0.00    +0.054 C 
ATOM     14  C   UNL     1      -4.998   2.503  23.588  0.00  0.00    +0.010 C 
ATOM     15  C   UNL     1      -5.616   4.399  25.121  0.00  0.00    +0.123 C 
ATOM     16  C   UNL     1      -2.007   3.077  26.112  0.00  0.00    +0.049 C 
ATOM     17  C   UNL     1      -6.100   3.130  24.429  0.00  0.00    +0.032 C 
ATOM     18  C   UNL     1      -4.015   0.890  25.254  0.00  0.00    +0.012 C 
ATOM     19  C   UNL     1      -1.207   1.810  24.039  0.00  0.00    +0.058 A 
ATOM     21  C   UNL     1      -3.862   5.556  26.485  0.00  0.00    +0.016 C 
ATOM     22  C   UNL     1      -0.982   2.399  25.267  0.00  0.00    +0.015 A 
ATOM     25  C   UNL     1       0.942   1.408  24.240  0.00  0.00    +0.165 A 
ATOM     30  C   UNL     1       2.732   0.307  22.908  0.00  0.00    +0.224 C 
ATOM     37  H   UNL     1       2.870   1.221  24.785  0.00  0.00    +0.157 HD
ENDROOT
BRANCH  30  31
ATOM     31  C   UNL     1       4.246  -0.014  22.996  0.00  0.00    +0.039 C 
ATOM     32  C   UNL     1       4.873  -0.005  21.593  0.00  0.00    +0.020 C 
ATOM     33  C   UNL     1       4.461  -1.381  23.664  0.00  0.00    +0.020 C 
ATOM     34  C   UNL     1       4.949   1.058  23.850  0.00  0.00    +0.020 C 
ENDBRANCH  30  31
BRANCH  15   2
ATOM      2  O   UNL     1      -6.704   4.971  25.847  0.00  0.00    -0.391 OA
ATOM     35  H   UNL     1      -6.964   4.345  26.542  0.00  0.00    +0.210 HD
ENDBRANCH  15   2
BRANCH  12  20
ATOM     20  C   UNL     1      -4.838   3.466  27.365  0.00  0.00    +0.165 C 
BRANCH  20   3
ATOM      3  O   UNL     1      -5.951   2.652  27.070  0.00  0.00    -0.394 OA
ATOM     36  H   UNL     1      -6.258   2.248  27.899  0.00  0.00    +0.209 HD
ENDBRANCH  20   3
ENDBRANCH  12  20
BRANCH  13  23
ATOM     23  C   UNL     1      -2.765   0.532  22.537  0.00  0.00    +0.106 C 
BRANCH  23  24
ATOM      4  O   UNL     1      -4.675  -0.667  23.269  0.00  0.00    -0.276 OA
ATOM      5  O   UNL     1      -1.351  -3.302  25.662  0.00  0.00    -0.377 OA
ATOM      8  N   UNL     1      -2.651  -1.238  24.253  0.00  0.00    -0.297 N 
ATOM     24  C   UNL     1      -3.457  -0.507  23.382  0.00  0.00    +0.216 C 
ATOM     26  C   UNL     1      -1.209  -1.453  24.098  0.00  0.00    +0.136 C 
ATOM     27  C   UNL     1      -3.204  -1.751  25.506  0.00  0.00    +0.136 C 
ATOM     28  C   UNL     1      -0.861  -2.910  24.378  0.00  0.00    +0.179 C 
ATOM     29  C   UNL     1      -2.777  -3.195  25.723  0.00  0.00    +0.179 C 
ENDBRANCH  23  24
ENDBRANCH  13  23
TORSDOF 6
ENDMDL
MODEL 2
REMARK VINA RESULT:      10.4      1.590      2.471
REMARK  Name = 11883011
REMARK  11 active torsions:
REMARK  status: ('A' for Active; 'I' for Inactive)
REMARK    1  A    between atoms: O_2  and  C_15
REMARK    2  A    between atoms: O_3  and  C_20
REMARK    3  A    between atoms: C_10  and  C_18
REMARK    4  A    between atoms: C_12  and  C_20
REMARK    5  A    between atoms: C_12  and  C_21
REMARK    6  A    between atoms: C_13  and  C_23
REMARK    7  A    between atoms: C_23  and  C_24
REMARK    8  A    between atoms: C_30  and  C_31
REMARK    9  A    between atoms: C_31  and  C_32
REMARK   10  A    between atoms: C_31  and  C_33
REMARK   11  A    between atoms: C_31  and  C_34
REMARK                            x       y       z     vdW  Elec       q    Type
REMARK                         _______ _______ _______ _____ _____    ______ ____
ROOT
ATOM      1  S   UNL     1       1.138   2.835  23.361  0.00  0.00    -0.057 S 
ATOM      6  O   UNL     1       3.208  -1.264  24.031  0.00  0.00    -0.275 OA
ATOM      7  N   UNL     1       0.802   0.416  24.215  0.00  0.00    -0.229 NA
ATOM      9  N   UNL     1       2.995   0.984  23.395  0.00  0.00    -0.264 N 
ATOM     10  C   UNL     1      -2.730   1.451  25.367  0.00  0.00    -0.019 C 
ATOM     11  C   UNL     1      -2.881   2.524  24.198  0.00  0.00    +0.011 C 
ATOM     12  C   UNL     1      -4.178   3.421  24.215  0.00  0.00    +0.021 C 
ATOM     13  C   UNL     1      -1.621   0.391  24.922  0.00  0.00    +0.054 C 
ATOM     14  C   UNL     1      -4.074   0.702  25.556  0.00  0.00    +0.010 C 
ATOM     15  C   UNL     1      -5.423   2.521  24.461  0.00  0.00    +0.123 C 
ATOM     16  C   UNL     1      -1.565   3.327  23.988  0.00  0.00    +0.049 C 
ATOM     17  C   UNL     1      -5.280   1.621  25.683  0.00  0.00    +0.032 C 
ATOM     18  C   UNL     1      -2.321   2.089  26.717  0.00  0.00    +0.012 C 
ATOM     19  C   UNL     1      -0.399   1.083  24.371  0.00  0.00    +0.058 A 
ATOM     21  C   UNL     1      -4.355   4.083  22.819  0.00  0.00    +0.016 C 
ATOM     22  C   UNL     1      -0.401   2.395  23.942  0.00  0.00    +0.015 A 
ATOM     25  C   UNL     1       1.685   1.243  23.699  0.00  0.00    +0.165 A 
ATOM     30  C   UNL     1       3.687  -0.230  23.569  0.00  0.00    +0.224 C 
ATOM     37  H   UNL     1       3.496   1.776  23.002  0.00  0.00    +0.157 HD
ENDROOT
BRANCH  30  31
ATOM     31  C   UNL     1       5.169  -0.175  23.119  0.00  0.00    +0.039 C 
ATOM     32  C   UNL     1       5.256   0.045  21.601  0.00  0.00    +0.020 C 
ATOM     33  C   UNL     1       5.889  -1.476  23.508  0.00  0.00    +0.020 C 
ATOM     34  C   UNL     1       5.876   0.998  23.823  0.00  0.00    +0.020 C 
ENDBRANCH  30  31
BRANCH  15   2
ATOM      2  O   UNL     1      -6.598   3.317  24.610  0.00  0.00    -0.391 OA
ATOM     35  H   UNL     1      -6.362   4.110  25.119  0.00  0.00    +0.210 HD
ENDBRANCH  15   2
BRANCH  12  20
ATOM     20  C   UNL     1      -4.136   4.589  25.225  0.00  0.00    +0.165 C 
BRANCH  20   3
ATOM      3  O   UNL     1      -4.765   4.158  26.412  0.00  0.00    -0.394 OA
ATOM     36  H   UNL     1      -5.417   3.476  26.176  0.00  0.00    +0.209 HD
ENDBRANCH  20   3
ENDBRANCH  12  20
BRANCH  13  23
ATOM     23  C   UNL     1      -1.246  -0.633  26.001  0.00  0.00    +0.106 C 
BRANCH  23  24
ATOM      4  O   UNL     1      -0.245  -2.767  25.749  0.00  0.00    -0.276 OA
ATOM      5  O   UNL     1      -4.162  -3.605  22.978  0.00  0.00    -0.377 OA
ATOM      8  N   UNL     1      -2.115  -2.337  24.443  0.00  0.00    -0.297 N 
ATOM     24  C   UNL     1      -1.149  -2.008  25.392  0.00  0.00    +0.216 C 
ATOM     26  C   UNL     1      -3.443  -1.724  24.333  0.00  0.00    +0.136 C 
ATOM     27  C   UNL     1      -1.794  -3.272  23.365  0.00  0.00    +0.136 C 
ATOM     28  C   UNL     1      -4.501  -2.798  24.109  0.00  0.00    +0.179 C 
ATOM     29  C   UNL     1      -2.918  -4.282  23.186  0.00  0.00    +0.179 C 
ENDBRANCH  23  24
ENDBRANCH  13  23
TORSDOF 6
ENDMDL
MODEL 3
REMARK VINA RESULT:      12.2      0.909      1.168
REMARK  Name = 11883011
REMARK  11 active torsions:
REMARK  status: ('A' for Active; 'I' for Inactive)
REMARK    1  A    between atoms: O_2  and  C_15
REMARK    2  A    between atoms: O_3  and  C_20
REMARK    3  A    between atoms: C_10  and  C_18
REMARK    4  A    between atoms: C_12  and  C_20
REMARK    5  A    between atoms: C_12  and  C_21
REMARK    6  A    between atoms: C_13  and  C_23
REMARK    7  A    between atoms: C_23  and  C_24
REMARK    8  A    between atoms: C_30  and  C_31
REMARK    9  A    between atoms: C_31  and  C_32
REMARK   10  A    between atoms: C_31  and  C_33
REMARK   11  A    between atoms: C_31  and  C_34
REMARK                            x       y       z     vdW  Elec       q    Type
REMARK                         _______ _______ _______ _____ _____    ______ ____
ROOT
ATOM      1  S   UNL     1       0.698   2.084  25.810  0.00  0.00    -0.057 S 
ATOM      6  O   UNL     1       2.129  -0.005  21.920  0.00  0.00    -0.275 OA
ATOM      7  N   UNL     1      -0.036   1.233  23.479  0.00  0.00    -0.229 NA
ATOM      9  N   UNL     1       2.277   0.912  24.075  0.00  0.00    -0.264 N 
ATOM     10  C   UNL     1      -3.662   2.125  24.439  0.00  0.00    -0.019 C 
ATOM     11  C   UNL     1      -3.202   3.330  25.373  0.00  0.00    +0.011 C 
ATOM     12  C   UNL     1      -4.327   4.067  26.197  0.00  0.00    +0.021 C 
ATOM     13  C   UNL     1      -2.486   1.830  23.399  0.00  0.00    +0.054 C 
ATOM     14  C   UNL     1      -4.926   2.543  23.643  0.00  0.00    +0.010 C 
ATOM     15  C   UNL     1      -5.533   4.370  25.262  0.00  0.00    +0.123 C 
ATOM     16  C   UNL     1      -1.952   2.950  26.219  0.00  0.00    +0.049 C 
ATOM     17  C   UNL     1      -6.027   3.143  24.505  0.00  0.00    +0.032 C 
ATOM     18  C   UNL     1      -3.981   0.836  25.237  0.00  0.00    +0.012 C 
ATOM     19  C   UNL     1      -1.149   1.776  24.093  0.00  0.00    +0.058 A 
ATOM     21  C   UNL     1      -3.777   5.433  26.698  0.00  0.00    +0.016 C 
ATOM     22  C   UNL     1      -0.927   2.300  25.351  0.00  0.00    +0.015 A 
ATOM     25  C   UNL     1       0.993   1.335  24.293  0.00  0.00    +0.165 A 
ATOM     30  C   UNL     1       2.781   0.276  22.924  0.00  0.00    +0.224 C 
ATOM     37  H   UNL     1       2.913   1.094  24.846  0.00  0.00    +0.157 HD
ENDROOT
BRANCH  30  31
ATOM     31  C   UNL     1       4.289  -0.070  23.010  0.00  0.00    +0.039 C 
ATOM     32  C   UNL     1       4.945   0.066  21.627  0.00  0.00    +0.020 C 
ATOM     33  C   UNL     1       4.477  -1.498  23.547  0.00  0.00    +0.020 C 
ATOM     34  C   UNL     1       4.985   0.906  23.977  0.00  0.00    +0.020 C 
ENDBRANCH  30  31
BRANCH  15   2
ATOM      2  O   UNL     1      -6.620   4.921  26.006  0.00  0.00    -0.391 OA
ATOM     35  H   UNL     1      -7.251   5.304  25.376  0.00  0.00    +0.210 HD
ENDBRANCH  15   2
BRANCH  12  20
ATOM     20  C   UNL     1      -4.789   3.316  27.465  0.00  0.00    +0.165 C 
BRANCH  20   3
ATOM      3  O   UNL     1      -5.796   2.405  27.085  0.00  0.00    -0.394 OA
ATOM     36  H   UNL     1      -6.637   2.711  27.465  0.00  0.00    +0.209 HD
ENDBRANCH  20   3
ENDBRANCH  12  20
BRANCH  13  23
ATOM     23  C   UNL     1      -2.710   0.595  22.516  0.00  0.00    +0.106 C 
BRANCH  23  24
ATOM      4  O   UNL     1      -0.720  -0.689  22.629  0.00  0.00    -0.276 OA
ATOM      5  O   UNL     1      -3.126  -2.985  26.188  0.00  0.00    -0.377 OA
ATOM      8  N   UNL     1      -2.498  -1.412  23.936  0.00  0.00    -0.297 N 
ATOM     24  C   UNL     1      -1.881  -0.556  23.025  0.00  0.00    +0.216 C 
ATOM     26  C   UNL     1      -3.633  -1.063  24.796  0.00  0.00    +0.136 C 
ATOM     27  C   UNL     1      -2.110  -2.821  23.996  0.00  0.00    +0.136 C 
ATOM     28  C   UNL     1      -3.402  -1.582  26.210  0.00  0.00    +0.179 C 
ATOM     29  C   UNL     1      -1.938  -3.263  25.441  0.00  0.00    +0.179 C 
ENDBRANCH  23  24
ENDBRANCH  13  23
TORSDOF 6
ENDMDL
