MODEL 1
REMARK VINA RESULT:       5.3      0.000      0.000
REMARK  Name = 40780134
REMARK  8 active torsions:
REMARK  status: ('A' for Active; 'I' for Inactive)
REMARK    1  A    between atoms: O_2  and  C_32
REMARK    2  A    between atoms: O_2  and  C_33
REMARK    3  A    between atoms: N_4  and  C_19
REMARK    4  A    between atoms: N_5  and  C_16
REMARK    5  A    between atoms: N_7  and  C_24
REMARK    6  A    between atoms: C_9  and  C_15
REMARK    7  A    between atoms: C_10  and  C_16
REMARK    8  A    between atoms: C_18  and  C_21
REMARK                            x       y       z     vdW  Elec       q    Type
REMARK                         _______ _______ _______ _____ _____    ______ ____
ROOT
ATOM      3  N   UNL     1      -4.696   1.849  23.834  0.00  0.00    -0.297 NA
ATOM      8  C   UNL     1      -4.402   3.083  26.108  0.00  0.00    +0.002 C 
ATOM      9  C   UNL     1      -3.196   3.374  25.172  0.00  0.00    +0.055 C 
ATOM     10  C   UNL     1      -4.910   0.900  24.959  0.00  0.00    +0.074 C 
ATOM     11  C   UNL     1      -4.538   1.559  26.305  0.00  0.00    +0.024 C 
ATOM     12  C   UNL     1      -5.668   3.561  25.366  0.00  0.00    +0.019 C 
ATOM     13  C   UNL     1      -3.343   2.451  23.928  0.00  0.00    +0.094 C 
ATOM     14  C   UNL     1      -5.696   2.935  23.960  0.00  0.00    +0.085 C 
ENDROOT
BRANCH   9  15
ATOM      4  N   UNL     1      -0.688   3.754  25.096  0.00  0.00    -0.270 N 
ATOM      6  N   UNL     1       0.452   3.624  25.794  0.00  0.00    -0.171 NA
ATOM     15  C   UNL     1      -1.796   3.324  25.766  0.00  0.00    +0.044 A 
ATOM     17  C   UNL     1      -1.349   2.882  26.987  0.00  0.00    +0.053 A 
ATOM     18  C   UNL     1       0.043   3.091  26.948  0.00  0.00    +0.093 A 
ATOM     19  C   UNL     1      -0.641   4.308  23.763  0.00  0.00    +0.172 C 
BRANCH  18  21
ATOM     21  C   UNL     1       0.988   2.790  27.991  0.00  0.00    +0.002 A 
ATOM     22  C   UNL     1       0.544   2.268  29.206  0.00  0.00    +0.010 A 
ATOM     23  C   UNL     1       2.349   3.022  27.788  0.00  0.00    +0.010 A 
ATOM     25  C   UNL     1       1.460   1.977  30.217  0.00  0.00    +0.001 A 
ATOM     26  C   UNL     1       3.265   2.730  28.800  0.00  0.00    +0.001 A 
ATOM     27  C   UNL     1       2.820   2.208  30.014  0.00  0.00    +0.000 A 
ENDBRANCH  18  21
ENDBRANCH   9  15
BRANCH  10  16
ATOM     16  C   UNL     1      -4.175  -0.426  24.751  0.00  0.00    +0.124 C 
BRANCH  16   5
ATOM      1  O   UNL     1      -1.384  -0.054  25.285  0.00  0.00    -0.253 OA
ATOM      5  N   UNL     1      -3.130  -0.284  23.783  0.00  0.00    -0.298 N 
ATOM      7  N   UNL     1      -0.989   0.004  22.971  0.00  0.00    -0.269 N 
ATOM     20  C   UNL     1      -1.777  -0.104  24.121  0.00  0.00    +0.304 C 
ATOM     34  H   UNL     1      -3.381  -0.311  22.800  0.00  0.00    +0.150 HD
ATOM     35  H   UNL     1      -1.473  -0.059  22.080  0.00  0.00    +0.156 HD
BRANCH   7  24
ATOM     24  C   UNL     1       0.411   0.191  22.892  0.00  0.00    +0.035 A 
ATOM     28  C   UNL     1       1.156  -0.507  21.943  0.00  0.00    +0.027 A 
ATOM     29  C   UNL     1       1.046   1.075  23.765  0.00  0.00    +0.027 A 
ATOM     30  C   UNL     1       2.536  -0.321  21.864  0.00  0.00    +0.047 A 
ATOM     31  C   UNL     1       2.426   1.260  23.687  0.00  0.00    +0.047 A 
ATOM     32  C   UNL     1       3.171   0.563  22.736  0.00  0.00    +0.120 A 
BRANCH  32   2
ATOM      2  O   UNL     1       4.518   0.745  22.658  0.00  0.00    -0.495 OA
ATOM     33  C   UNL     1       5.313   0.146  23.682  0.00  0.00    +0.277 C 
ENDBRANCH  32   2
ENDBRANCH   7  24
ENDBRANCH  16   5
ENDBRANCH  10  16
TORSDOF 6
ENDMDL
MODEL 2
REMARK VINA RESULT:       8.3      2.066      5.496
REMARK  Name = 40780134
REMARK  8 active torsions:
REMARK  status: ('A' for Active; 'I' for Inactive)
REMARK    1  A    between atoms: O_2  and  C_32
REMARK    2  A    between atoms: O_2  and  C_33
REMARK    3  A    between atoms: N_4  and  C_19
REMARK    4  A    between atoms: N_5  and  C_16
REMARK    5  A    between atoms: N_7  and  C_24
REMARK    6  A    between atoms: C_9  and  C_15
REMARK    7  A    between atoms: C_10  and  C_16
REMARK    8  A    between atoms: C_18  and  C_21
REMARK                            x       y       z     vdW  Elec       q    Type
REMARK                         _______ _______ _______ _____ _____    ______ ____
ROOT
ATOM      3  N   UNL     1      -3.959   2.546  25.141  0.00  0.00    -0.297 NA
ATOM      8  C   UNL     1      -3.704   0.722  23.300  0.00  0.00    +0.002 C 
ATOM      9  C   UNL     1      -2.801   0.393  24.521  0.00  0.00    +0.055 C 
ATOM     10  C   UNL     1      -3.703   3.186  23.824  0.00  0.00    +0.074 C 
ATOM     11  C   UNL     1      -3.344   2.123  22.763  0.00  0.00    +0.024 C 
ATOM     12  C   UNL     1      -5.153   0.796  23.825  0.00  0.00    +0.019 C 
ATOM     13  C   UNL     1      -2.852   1.617  25.479  0.00  0.00    +0.094 C 
ATOM     14  C   UNL     1      -5.208   1.756  25.027  0.00  0.00    +0.085 C 
ENDROOT
BRANCH   9  15
ATOM      4  N   UNL     1      -0.997  -1.382  24.322  0.00  0.00    -0.270 N 
ATOM      6  N   UNL     1       0.304  -1.585  24.054  0.00  0.00    -0.171 NA
ATOM     15  C   UNL     1      -1.376  -0.073  24.255  0.00  0.00    +0.044 A 
ATOM     17  C   UNL     1      -0.244   0.629  23.922  0.00  0.00    +0.053 A 
ATOM     18  C   UNL     1       0.759  -0.353  23.811  0.00  0.00    +0.093 A 
ATOM     19  C   UNL     1      -1.837  -2.513  24.642  0.00  0.00    +0.172 C 
BRANCH  18  21
ATOM     21  C   UNL     1       2.143  -0.137  23.479  0.00  0.00    +0.002 A 
ATOM     22  C   UNL     1       3.079  -1.145  23.700  0.00  0.00    +0.010 A 
ATOM     23  C   UNL     1       2.548   1.084  22.937  0.00  0.00    +0.010 A 
ATOM     25  C   UNL     1       4.421  -0.935  23.380  0.00  0.00    +0.001 A 
ATOM     26  C   UNL     1       3.889   1.294  22.615  0.00  0.00    +0.001 A 
ATOM     27  C   UNL     1       4.826   0.284  22.837  0.00  0.00    +0.000 A 
ENDBRANCH  18  21
ENDBRANCH   9  15
BRANCH  10  16
ATOM     16  C   UNL     1      -2.644   4.288  23.908  0.00  0.00    +0.124 C 
BRANCH  16   5
ATOM      1  O   UNL     1      -2.024   3.898  26.678  0.00  0.00    -0.253 OA
ATOM      5  N   UNL     1      -1.420   3.780  24.448  0.00  0.00    -0.298 N 
ATOM      7  N   UNL     1       0.093   3.100  26.053  0.00  0.00    -0.269 N 
ATOM     20  C   UNL     1      -1.187   3.614  25.825  0.00  0.00    +0.304 C 
ATOM     34  H   UNL     1      -0.680   3.527  23.801  0.00  0.00    +0.150 HD
ATOM     35  H   UNL     1       0.664   2.920  25.232  0.00  0.00    +0.156 HD
BRANCH   7  24
ATOM     24  C   UNL     1       0.699   2.796  27.295  0.00  0.00    +0.035 A 
ATOM     28  C   UNL     1       2.041   3.103  27.510  0.00  0.00    +0.027 A 
ATOM     29  C   UNL     1      -0.050   2.192  28.304  0.00  0.00    +0.027 A 
ATOM     30  C   UNL     1       2.638   2.805  28.735  0.00  0.00    +0.047 A 
ATOM     31  C   UNL     1       0.546   1.893  29.530  0.00  0.00    +0.047 A 
ATOM     32  C   UNL     1       1.889   2.200  29.745  0.00  0.00    +0.120 A 
BRANCH  32   2
ATOM      2  O   UNL     1       2.472   1.910  30.941  0.00  0.00    -0.495 OA
ATOM     33  C   UNL     1       1.608   1.798  32.072  0.00  0.00    +0.277 C 
ENDBRANCH  32   2
ENDBRANCH   7  24
ENDBRANCH  16   5
ENDBRANCH  10  16
TORSDOF 6
ENDMDL
MODEL 3
REMARK VINA RESULT:       8.8      2.653      4.548
REMARK  Name = 40780134
REMARK  8 active torsions:
REMARK  status: ('A' for Active; 'I' for Inactive)
REMARK    1  A    between atoms: O_2  and  C_32
REMARK    2  A    between atoms: O_2  and  C_33
REMARK    3  A    between atoms: N_4  and  C_19
REMARK    4  A    between atoms: N_5  and  C_16
REMARK    5  A    between atoms: N_7  and  C_24
REMARK    6  A    between atoms: C_9  and  C_15
REMARK    7  A    between atoms: C_10  and  C_16
REMARK    8  A    between atoms: C_18  and  C_21
REMARK                            x       y       z     vdW  Elec       q    Type
REMARK                         _______ _______ _______ _____ _____    ______ ____
ROOT
ATOM      3  N   UNL     1      -3.944   4.906  26.379  0.00  0.00    -0.297 NA
ATOM      8  C   UNL     1      -5.013   3.637  24.372  0.00  0.00    +0.002 C 
ATOM      9  C   UNL     1      -4.794   2.672  25.570  0.00  0.00    +0.055 C 
ATOM     10  C   UNL     1      -3.176   5.182  25.136  0.00  0.00    +0.074 C 
ATOM     11  C   UNL     1      -3.666   4.280  23.982  0.00  0.00    +0.024 C 
ATOM     12  C   UNL     1      -5.930   4.772  24.876  0.00  0.00    +0.019 C 
ATOM     13  C   UNL     1      -3.975   3.446  26.644  0.00  0.00    +0.094 C 
ATOM     14  C   UNL     1      -5.336   5.367  26.165  0.00  0.00    +0.085 C 
ENDROOT
BRANCH   9  15
ATOM      4  N   UNL     1      -4.940   0.286  24.719  0.00  0.00    -0.270 N 
ATOM      6  N   UNL     1      -4.247  -0.853  24.552  0.00  0.00    -0.171 NA
ATOM     15  C   UNL     1      -4.216   1.293  25.286  0.00  0.00    +0.044 A 
ATOM     17  C   UNL     1      -2.962   0.777  25.506  0.00  0.00    +0.053 A 
ATOM     18  C   UNL     1      -3.040  -0.547  25.034  0.00  0.00    +0.093 A 
ATOM     19  C   UNL     1      -6.323   0.338  24.304  0.00  0.00    +0.172 C 
BRANCH  18  21
ATOM     21  C   UNL     1      -1.984  -1.525  25.038  0.00  0.00    +0.002 A 
ATOM     22  C   UNL     1      -2.070  -2.648  24.215  0.00  0.00    +0.010 A 
ATOM     23  C   UNL     1      -0.875  -1.352  25.867  0.00  0.00    +0.010 A 
ATOM     25  C   UNL     1      -1.047  -3.597  24.219  0.00  0.00    +0.001 A 
ATOM     26  C   UNL     1       0.148  -2.301  25.871  0.00  0.00    +0.001 A 
ATOM     27  C   UNL     1       0.062  -3.423  25.047  0.00  0.00    +0.000 A 
ENDBRANCH  18  21
ENDBRANCH   9  15
BRANCH  10  16
ATOM     16  C   UNL     1      -1.665   5.066  25.347  0.00  0.00    +0.124 C 
BRANCH  16   5
ATOM      1  O   UNL     1       0.321   3.048  25.786  0.00  0.00    -0.253 OA
ATOM      5  N   UNL     1      -1.075   4.217  24.358  0.00  0.00    -0.298 N 
ATOM      7  N   UNL     1       0.287   2.569  23.488  0.00  0.00    -0.269 N 
ATOM     20  C   UNL     1      -0.102   3.244  24.649  0.00  0.00    +0.304 C 
ATOM     34  H   UNL     1      -1.374   4.325  23.394  0.00  0.00    +0.150 HD
ATOM     35  H   UNL     1      -0.163   2.855  22.623  0.00  0.00    +0.156 HD
BRANCH   7  24
ATOM     24  C   UNL     1       1.237   1.529  23.366  0.00  0.00    +0.035 A 
ATOM     28  C   UNL     1       2.592   1.832  23.239  0.00  0.00    +0.027 A 
ATOM     29  C   UNL     1       0.818   0.198  23.373  0.00  0.00    +0.027 A 
ATOM     30  C   UNL     1       3.529   0.806  23.120  0.00  0.00    +0.047 A 
ATOM     31  C   UNL     1       1.755  -0.828  23.254  0.00  0.00    +0.047 A 
ATOM     32  C   UNL     1       3.110  -0.525  23.128  0.00  0.00    +0.120 A 
BRANCH  32   2
ATOM      2  O   UNL     1       4.025  -1.526  23.013  0.00  0.00    -0.495 OA
ATOM     33  C   UNL     1       5.144  -1.486  23.898  0.00  0.00    +0.277 C 
ENDBRANCH  32   2
ENDBRANCH   7  24
ENDBRANCH  16   5
ENDBRANCH  10  16
TORSDOF 6
ENDMDL
MODEL 4
REMARK VINA RESULT:       9.2      1.543      2.262
REMARK  Name = 40780134
REMARK  8 active torsions:
REMARK  status: ('A' for Active; 'I' for Inactive)
REMARK    1  A    between atoms: O_2  and  C_32
REMARK    2  A    between atoms: O_2  and  C_33
REMARK    3  A    between atoms: N_4  and  C_19
REMARK    4  A    between atoms: N_5  and  C_16
REMARK    5  A    between atoms: N_7  and  C_24
REMARK    6  A    between atoms: C_9  and  C_15
REMARK    7  A    between atoms: C_10  and  C_16
REMARK    8  A    between atoms: C_18  and  C_21
REMARK                            x       y       z     vdW  Elec       q    Type
REMARK                         _______ _______ _______ _____ _____    ______ ____
ROOT
ATOM      3  N   UNL     1      -2.416   1.645  22.281  0.00  0.00    -0.297 NA
ATOM      8  C   UNL     1      -3.796   2.671  24.237  0.00  0.00    +0.002 C 
ATOM      9  C   UNL     1      -2.323   3.161  24.295  0.00  0.00    +0.055 C 
ATOM     10  C   UNL     1      -3.165   0.575  22.990  0.00  0.00    +0.074 C 
ATOM     11  C   UNL     1      -3.822   1.128  24.274  0.00  0.00    +0.024 C 
ATOM     12  C   UNL     1      -4.355   3.102  22.865  0.00  0.00    +0.019 C 
ATOM     13  C   UNL     1      -1.524   2.355  23.230  0.00  0.00    +0.094 C 
ATOM     14  C   UNL     1      -3.403   2.618  21.756  0.00  0.00    +0.085 C 
ENDROOT
BRANCH   9  15
ATOM      4  N   UNL     1      -2.199   3.691  26.774  0.00  0.00    -0.270 N 
ATOM      6  N   UNL     1      -1.418   3.613  27.864  0.00  0.00    -0.171 NA
ATOM     15  C   UNL     1      -1.624   3.180  25.648  0.00  0.00    +0.044 A 
ATOM     17  C   UNL     1      -0.381   2.737  26.028  0.00  0.00    +0.053 A 
ATOM     18  C   UNL     1      -0.309   3.030  27.403  0.00  0.00    +0.093 A 
ATOM     19  C   UNL     1      -3.512   4.282  26.886  0.00  0.00    +0.172 C 
BRANCH  18  21
ATOM     21  C   UNL     1       0.799   2.765  28.283  0.00  0.00    +0.002 A 
ATOM     22  C   UNL     1       0.569   2.250  29.558  0.00  0.00    +0.010 A 
ATOM     23  C   UNL     1       2.103   3.026  27.860  0.00  0.00    +0.010 A 
ATOM     25  C   UNL     1       1.643   1.994  30.411  0.00  0.00    +0.001 A 
ATOM     26  C   UNL     1       3.177   2.769  28.713  0.00  0.00    +0.001 A 
ATOM     27  C   UNL     1       2.947   2.254  29.989  0.00  0.00    +0.000 A 
ENDBRANCH  18  21
ENDBRANCH   9  15
BRANCH  10  16
ATOM     16  C   UNL     1      -2.296  -0.652  23.278  0.00  0.00    +0.124 C 
BRANCH  16   5
ATOM      1  O   UNL     1       0.219  -0.628  24.650  0.00  0.00    -0.253 OA
ATOM      5  N   UNL     1      -1.001  -0.510  22.687  0.00  0.00    -0.298 N 
ATOM      7  N   UNL     1       1.300  -0.353  22.584  0.00  0.00    -0.269 N 
ATOM     20  C   UNL     1       0.195  -0.508  23.427  0.00  0.00    +0.304 C 
ATOM     34  H   UNL     1      -0.943  -0.402  21.680  0.00  0.00    +0.150 HD
ATOM     35  H   UNL     1       1.105  -0.266  21.590  0.00  0.00    +0.156 HD
BRANCH   7  24
ATOM     24  C   UNL     1       2.667  -0.301  22.944  0.00  0.00    +0.035 A 
ATOM     28  C   UNL     1       3.416   0.843  22.677  0.00  0.00    +0.027 A 
ATOM     29  C   UNL     1       3.264  -1.397  23.567  0.00  0.00    +0.027 A 
ATOM     30  C   UNL     1       4.763   0.894  23.034  0.00  0.00    +0.047 A 
ATOM     31  C   UNL     1       4.612  -1.347  23.923  0.00  0.00    +0.047 A 
ATOM     32  C   UNL     1       5.361  -0.201  23.657  0.00  0.00    +0.120 A 
BRANCH  32   2
ATOM      2  O   UNL     1       6.676  -0.150  24.006  0.00  0.00    -0.495 OA
ATOM     33  C   UNL     1       7.630  -0.407  22.975  0.00  0.00    +0.277 C 
ENDBRANCH  32   2
ENDBRANCH   7  24
ENDBRANCH  16   5
ENDBRANCH  10  16
TORSDOF 6
ENDMDL
