MODEL 1
REMARK VINA RESULT:      -1.7      0.000      0.000
REMARK  Name = 11884081
REMARK  10 active torsions:
REMARK  status: ('A' for Active; 'I' for Inactive)
REMARK    1  A    between atoms: S_1  and  N_9
REMARK    2  A    between atoms: S_1  and  C_17
REMARK    3  A    between atoms: O_4  and  C_14
REMARK    4  A    between atoms: O_4  and  C_18
REMARK    5  A    between atoms: O_8  and  C_26
REMARK    6  A    between atoms: O_8  and  C_27
REMARK    7  A    between atoms: N_9  and  C_13
REMARK    8  A    between atoms: N_10  and  C_21
REMARK    9  A    between atoms: C_17  and  C_19
REMARK   10  A    between atoms: C_19  and  C_20
REMARK                            x       y       z     vdW  Elec       q    Type
REMARK                         _______ _______ _______ _____ _____    ______ ____
ROOT
ATOM      2  O   UNL     1      -2.366   0.215  24.116  0.00  0.00    -0.369 OA
ATOM      3  O   UNL     1      -5.200  -0.973  24.247  0.00  0.00    -0.368 OA
ATOM     11  C   UNL     1      -4.490  -0.081  25.131  0.00  0.00    +0.171 C 
ATOM     12  C   UNL     1      -3.042  -0.532  25.140  0.00  0.00    +0.191 C 
ATOM     13  C   UNL     1      -4.437   1.303  24.533  0.00  0.00    +0.133 C 
ATOM     14  C   UNL     1      -3.152  -1.995  24.786  0.00  0.00    +0.235 C 
ATOM     15  C   UNL     1      -3.250   1.218  23.594  0.00  0.00    +0.183 C 
ATOM     16  C   UNL     1      -4.301  -2.000  23.805  0.00  0.00    +0.207 C 
ENDROOT
BRANCH  13   9
ATOM      9  N   UNL     1      -4.166   2.303  25.594  0.00  0.00    -0.187 NA
ATOM     28  H   UNL     1      -4.284   1.997  26.567  0.00  0.00    +0.148 HD
BRANCH   9   1
ATOM      1  S   UNL     1      -4.314   3.957  25.222  0.00  0.00    +0.030 S 
ATOM      5  O   UNL     1      -5.534   4.489  25.799  0.00  0.00    -0.158 OA
ATOM      6  O   UNL     1      -4.023   4.133  23.812  0.00  0.00    -0.158 OA
BRANCH   1  17
ATOM     17  C   UNL     1      -2.941   4.624  26.134  0.00  0.00    +0.185 C 
BRANCH  17  19
ATOM     19  C   UNL     1      -1.715   4.786  25.250  0.00  0.00    +0.021 C 
ATOM     20  C   UNL     1      -0.804   3.573  25.336  0.00  0.00    +0.005 C 
ENDBRANCH  17  19
ENDBRANCH   1  17
ENDBRANCH   9   1
ENDBRANCH  13   9
BRANCH  14   4
ATOM      4  O   UNL     1      -1.973  -2.528  24.227  0.00  0.00    -0.442 OA
BRANCH   4  18
ATOM      7  O   UNL     1      -0.376  -1.867  25.725  0.00  0.00    -0.226 OA
ATOM     10  N   UNL     1      -0.185  -1.402  23.439  0.00  0.00    -0.251 N 
ATOM     18  C   UNL     1      -0.786  -1.916  24.571  0.00  0.00    +0.405 C 
ATOM     29  H   UNL     1      -0.681  -1.544  22.563  0.00  0.00    +0.158 HD
BRANCH  10  21
ATOM     21  C   UNL     1       1.039  -0.700  23.345  0.00  0.00    +0.037 A 
ATOM     22  C   UNL     1       1.042   0.695  23.309  0.00  0.00    +0.027 A 
ATOM     23  C   UNL     1       2.243  -1.402  23.290  0.00  0.00    +0.027 A 
ATOM     24  C   UNL     1       2.249   1.388  23.218  0.00  0.00    +0.047 A 
ATOM     25  C   UNL     1       3.450  -0.709  23.198  0.00  0.00    +0.047 A 
ATOM     26  C   UNL     1       3.453   0.686  23.162  0.00  0.00    +0.120 A 
BRANCH  26   8
ATOM      8  O   UNL     1       4.631   1.362  23.076  0.00  0.00    -0.495 OA
ATOM     27  C   UNL     1       5.775   0.751  23.671  0.00  0.00    +0.277 C 
ENDBRANCH  26   8
ENDBRANCH  10  21
ENDBRANCH   4  18
ENDBRANCH  14   4
TORSDOF 8
ENDMDL
MODEL 2
REMARK VINA RESULT:      -1.1      1.666      1.964
REMARK  Name = 11884081
REMARK  10 active torsions:
REMARK  status: ('A' for Active; 'I' for Inactive)
REMARK    1  A    between atoms: S_1  and  N_9
REMARK    2  A    between atoms: S_1  and  C_17
REMARK    3  A    between atoms: O_4  and  C_14
REMARK    4  A    between atoms: O_4  and  C_18
REMARK    5  A    between atoms: O_8  and  C_26
REMARK    6  A    between atoms: O_8  and  C_27
REMARK    7  A    between atoms: N_9  and  C_13
REMARK    8  A    between atoms: N_10  and  C_21
REMARK    9  A    between atoms: C_17  and  C_19
REMARK   10  A    between atoms: C_19  and  C_20
REMARK                            x       y       z     vdW  Elec       q    Type
REMARK                         _______ _______ _______ _____ _____    ______ ____
ROOT
ATOM      2  O   UNL     1      -3.004   1.531  23.171  0.00  0.00    -0.369 OA
ATOM      3  O   UNL     1      -5.127   1.535  25.398  0.00  0.00    -0.368 OA
ATOM     11  C   UNL     1      -3.994   2.393  25.148  0.00  0.00    +0.171 C 
ATOM     12  C   UNL     1      -2.887   1.512  24.603  0.00  0.00    +0.191 C 
ATOM     13  C   UNL     1      -4.303   3.336  24.011  0.00  0.00    +0.133 C 
ATOM     14  C   UNL     1      -3.233   0.158  25.175  0.00  0.00    +0.235 C 
ATOM     15  C   UNL     1      -3.994   2.497  22.786  0.00  0.00    +0.183 C 
ATOM     16  C   UNL     1      -4.744   0.176  25.143  0.00  0.00    +0.207 C 
ENDROOT
BRANCH  13   9
ATOM      9  N   UNL     1      -3.392   4.505  24.061  0.00  0.00    -0.187 NA
ATOM     28  H   UNL     1      -3.164   4.959  23.168  0.00  0.00    +0.148 HD
BRANCH   9   1
ATOM      1  S   UNL     1      -2.307   4.647  25.365  0.00  0.00    +0.030 S 
ATOM      5  O   UNL     1      -2.921   4.143  26.578  0.00  0.00    -0.158 OA
ATOM      6  O   UNL     1      -1.723   5.973  25.325  0.00  0.00    -0.158 OA
BRANCH   1  17
ATOM     17  C   UNL     1      -1.046   3.496  24.871  0.00  0.00    +0.185 C 
BRANCH  17  19
ATOM     19  C   UNL     1       0.073   3.426  25.897  0.00  0.00    +0.021 C 
ATOM     20  C   UNL     1      -0.056   2.195  26.778  0.00  0.00    +0.005 C 
ENDBRANCH  17  19
ENDBRANCH   1  17
ENDBRANCH   9   1
ENDBRANCH  13   9
BRANCH  14   4
ATOM      4  O   UNL     1      -2.698  -0.918  24.438  0.00  0.00    -0.442 OA
BRANCH   4  18
ATOM      7  O   UNL     1      -0.717  -1.850  25.100  0.00  0.00    -0.226 OA
ATOM     10  N   UNL     1      -0.797  -0.122  23.522  0.00  0.00    -0.251 N 
ATOM     18  C   UNL     1      -1.323  -1.036  24.413  0.00  0.00    +0.405 C 
ATOM     29  H   UNL     1      -1.465   0.473  23.041  0.00  0.00    +0.158 HD
BRANCH  10  21
ATOM     21  C   UNL     1       0.563   0.091  23.195  0.00  0.00    +0.037 A 
ATOM     22  C   UNL     1       1.308   1.039  23.896  0.00  0.00    +0.027 A 
ATOM     23  C   UNL     1       1.158  -0.648  22.173  0.00  0.00    +0.027 A 
ATOM     24  C   UNL     1       2.650   1.248  23.575  0.00  0.00    +0.047 A 
ATOM     25  C   UNL     1       2.499  -0.438  21.852  0.00  0.00    +0.047 A 
ATOM     26  C   UNL     1       3.245   0.509  22.553  0.00  0.00    +0.120 A 
BRANCH  26   8
ATOM      8  O   UNL     1       4.554   0.712  22.241  0.00  0.00    -0.495 OA
ATOM     27  C   UNL     1       5.525   0.167  23.133  0.00  0.00    +0.277 C 
ENDBRANCH  26   8
ENDBRANCH  10  21
ENDBRANCH   4  18
ENDBRANCH  14   4
TORSDOF 8
ENDMDL
MODEL 3
REMARK VINA RESULT:      -0.8      2.411      7.184
REMARK  Name = 11884081
REMARK  10 active torsions:
REMARK  status: ('A' for Active; 'I' for Inactive)
REMARK    1  A    between atoms: S_1  and  N_9
REMARK    2  A    between atoms: S_1  and  C_17
REMARK    3  A    between atoms: O_4  and  C_14
REMARK    4  A    between atoms: O_4  and  C_18
REMARK    5  A    between atoms: O_8  and  C_26
REMARK    6  A    between atoms: O_8  and  C_27
REMARK    7  A    between atoms: N_9  and  C_13
REMARK    8  A    between atoms: N_10  and  C_21
REMARK    9  A    between atoms: C_17  and  C_19
REMARK   10  A    between atoms: C_19  and  C_20
REMARK                            x       y       z     vdW  Elec       q    Type
REMARK                         _______ _______ _______ _____ _____    ______ ____
ROOT
ATOM      2  O   UNL     1      -1.507  -0.141  23.484  0.00  0.00    -0.369 OA
ATOM      3  O   UNL     1       0.197  -1.777  25.455  0.00  0.00    -0.368 OA
ATOM     11  C   UNL     1       0.375  -1.467  24.056  0.00  0.00    +0.171 C 
ATOM     12  C   UNL     1      -1.002  -1.485  23.423  0.00  0.00    +0.191 C 
ATOM     13  C   UNL     1       0.831  -0.037  23.899  0.00  0.00    +0.133 C 
ATOM     14  C   UNL     1      -1.770  -2.414  24.333  0.00  0.00    +0.235 C 
ATOM     15  C   UNL     1      -0.472   0.738  23.951  0.00  0.00    +0.183 C 
ATOM     16  C   UNL     1      -1.184  -2.088  25.688  0.00  0.00    +0.207 C 
ENDROOT
BRANCH  13   9
ATOM      9  N   UNL     1       1.472   0.148  22.576  0.00  0.00    -0.187 NA
ATOM     28  H   UNL     1       1.009  -0.282  21.766  0.00  0.00    +0.148 HD
BRANCH   9   1
ATOM      1  S   UNL     1       3.146   0.450  22.508  0.00  0.00    +0.030 S 
ATOM      5  O   UNL     1       3.464   1.651  23.256  0.00  0.00    -0.158 OA
ATOM      6  O   UNL     1       3.579   0.296  21.133  0.00  0.00    -0.158 OA
BRANCH   1  17
ATOM     17  C   UNL     1       3.769  -0.943  23.420  0.00  0.00    +0.185 C 
BRANCH  17  19
ATOM     19  C   UNL     1       5.035  -0.586  24.182  0.00  0.00    +0.021 C 
ATOM     20  C   UNL     1       6.167  -0.218  23.238  0.00  0.00    +0.005 C 
ENDBRANCH  17  19
ENDBRANCH   1  17
ENDBRANCH   9   1
ENDBRANCH  13   9
BRANCH  14   4
ATOM      4  O   UNL     1      -3.164  -2.212  24.295  0.00  0.00    -0.442 OA
BRANCH   4  18
ATOM      7  O   UNL     1      -3.800  -1.355  26.318  0.00  0.00    -0.226 OA
ATOM     10  N   UNL     1      -3.995  -0.116  24.340  0.00  0.00    -0.251 N 
ATOM     18  C   UNL     1      -3.675  -1.220  25.106  0.00  0.00    +0.405 C 
ATOM     29  H   UNL     1      -3.816  -0.194  23.343  0.00  0.00    +0.158 HD
BRANCH  10  21
ATOM     21  C   UNL     1      -4.542   1.114  24.773  0.00  0.00    +0.037 A 
ATOM     22  C   UNL     1      -5.821   1.151  25.329  0.00  0.00    +0.027 A 
ATOM     23  C   UNL     1      -3.803   2.290  24.645  0.00  0.00    +0.027 A 
ATOM     24  C   UNL     1      -6.360   2.364  25.757  0.00  0.00    +0.047 A 
ATOM     25  C   UNL     1      -4.343   3.503  25.072  0.00  0.00    +0.047 A 
ATOM     26  C   UNL     1      -5.622   3.540  25.628  0.00  0.00    +0.120 A 
BRANCH  26   8
ATOM      8  O   UNL     1      -6.148   4.722  26.048  0.00  0.00    -0.495 OA
ATOM     27  C   UNL     1      -6.373   5.721  25.054  0.00  0.00    +0.277 C 
ENDBRANCH  26   8
ENDBRANCH  10  21
ENDBRANCH   4  18
ENDBRANCH  14   4
TORSDOF 8
ENDMDL
MODEL 4
REMARK VINA RESULT:      -0.3      2.310      4.484
REMARK  Name = 11884081
REMARK  10 active torsions:
REMARK  status: ('A' for Active; 'I' for Inactive)
REMARK    1  A    between atoms: S_1  and  N_9
REMARK    2  A    between atoms: S_1  and  C_17
REMARK    3  A    between atoms: O_4  and  C_14
REMARK    4  A    between atoms: O_4  and  C_18
REMARK    5  A    between atoms: O_8  and  C_26
REMARK    6  A    between atoms: O_8  and  C_27
REMARK    7  A    between atoms: N_9  and  C_13
REMARK    8  A    between atoms: N_10  and  C_21
REMARK    9  A    between atoms: C_17  and  C_19
REMARK   10  A    between atoms: C_19  and  C_20
REMARK                            x       y       z     vdW  Elec       q    Type
REMARK                         _______ _______ _______ _____ _____    ______ ____
ROOT
ATOM      2  O   UNL     1      -2.778   1.155  25.417  0.00  0.00    -0.369 OA
ATOM      3  O   UNL     1      -5.581   2.299  24.872  0.00  0.00    -0.368 OA
ATOM     11  C   UNL     1      -4.761   1.370  24.132  0.00  0.00    +0.171 C 
ATOM     12  C   UNL     1      -3.326   1.837  24.278  0.00  0.00    +0.191 C 
ATOM     13  C   UNL     1      -4.775   0.021  24.808  0.00  0.00    +0.133 C 
ATOM     14  C   UNL     1      -3.487   3.317  24.534  0.00  0.00    +0.235 C 
ATOM     15  C   UNL     1      -3.715   0.171  25.881  0.00  0.00    +0.183 C 
ATOM     16  C   UNL     1      -4.750   3.360  25.364  0.00  0.00    +0.207 C 
ENDROOT
BRANCH  13   9
ATOM      9  N   UNL     1      -4.369  -1.032  23.846  0.00  0.00    -0.187 NA
ATOM     28  H   UNL     1      -4.867  -1.062  22.947  0.00  0.00    +0.148 HD
BRANCH   9   1
ATOM      1  S   UNL     1      -3.641  -2.451  24.438  0.00  0.00    +0.030 S 
ATOM      5  O   UNL     1      -4.158  -3.607  23.731  0.00  0.00    -0.158 OA
ATOM      6  O   UNL     1      -3.660  -2.400  25.887  0.00  0.00    -0.158 OA
BRANCH   1  17
ATOM     17  C   UNL     1      -1.959  -2.199  23.919  0.00  0.00    +0.185 C 
BRANCH  17  19
ATOM     19  C   UNL     1      -0.978  -2.587  25.014  0.00  0.00    +0.021 C 
ATOM     20  C   UNL     1      -0.512  -1.374  25.799  0.00  0.00    +0.005 C 
ENDBRANCH  17  19
ENDBRANCH   1  17
ENDBRANCH   9   1
ENDBRANCH  13   9
BRANCH  14   4
ATOM      4  O   UNL     1      -2.390   3.894  25.205  0.00  0.00    -0.442 OA
BRANCH   4  18
ATOM      7  O   UNL     1      -0.654   2.933  26.344  0.00  0.00    -0.226 OA
ATOM     10  N   UNL     1      -0.896   2.681  24.029  0.00  0.00    -0.251 N 
ATOM     18  C   UNL     1      -1.240   3.137  25.287  0.00  0.00    +0.405 C 
ATOM     29  H   UNL     1      -1.511   2.956  23.268  0.00  0.00    +0.158 HD
BRANCH  10  21
ATOM     21  C   UNL     1       0.208   1.876  23.667  0.00  0.00    +0.037 A 
ATOM     22  C   UNL     1       1.504   2.381  23.771  0.00  0.00    +0.027 A 
ATOM     23  C   UNL     1       0.002   0.575  23.206  0.00  0.00    +0.027 A 
ATOM     24  C   UNL     1       2.594   1.586  23.416  0.00  0.00    +0.047 A 
ATOM     25  C   UNL     1       1.091  -0.219  22.849  0.00  0.00    +0.047 A 
ATOM     26  C   UNL     1       2.387   0.287  22.954  0.00  0.00    +0.120 A 
BRANCH  26   8
ATOM      8  O   UNL     1       3.450  -0.489  22.609  0.00  0.00    -0.495 OA
ATOM     27  C   UNL     1       4.747  -0.009  22.963  0.00  0.00    +0.277 C 
ENDBRANCH  26   8
ENDBRANCH  10  21
ENDBRANCH   4  18
ENDBRANCH  14   4
TORSDOF 8
ENDMDL
MODEL 5
REMARK VINA RESULT:       0.4      1.712      2.068
REMARK  Name = 11884081
REMARK  10 active torsions:
REMARK  status: ('A' for Active; 'I' for Inactive)
REMARK    1  A    between atoms: S_1  and  N_9
REMARK    2  A    between atoms: S_1  and  C_17
REMARK    3  A    between atoms: O_4  and  C_14
REMARK    4  A    between atoms: O_4  and  C_18
REMARK    5  A    between atoms: O_8  and  C_26
REMARK    6  A    between atoms: O_8  and  C_27
REMARK    7  A    between atoms: N_9  and  C_13
REMARK    8  A    between atoms: N_10  and  C_21
REMARK    9  A    between atoms: C_17  and  C_19
REMARK   10  A    between atoms: C_19  and  C_20
REMARK                            x       y       z     vdW  Elec       q    Type
REMARK                         _______ _______ _______ _____ _____    ______ ____
ROOT
ATOM      2  O   UNL     1      -1.874   0.747  23.143  0.00  0.00    -0.369 OA
ATOM      3  O   UNL     1      -4.329   0.557  24.987  0.00  0.00    -0.368 OA
ATOM     11  C   UNL     1      -3.255   1.518  24.911  0.00  0.00    +0.171 C 
ATOM     12  C   UNL     1      -1.995   0.745  24.574  0.00  0.00    +0.191 C 
ATOM     13  C   UNL     1      -3.458   2.423  23.720  0.00  0.00    +0.133 C 
ATOM     14  C   UNL     1      -2.303  -0.633  25.109  0.00  0.00    +0.235 C 
ATOM     15  C   UNL     1      -2.872   1.612  22.580  0.00  0.00    +0.183 C 
ATOM     16  C   UNL     1      -3.783  -0.760  24.827  0.00  0.00    +0.207 C 
ENDROOT
BRANCH  13   9
ATOM      9  N   UNL     1      -2.682   3.674  23.897  0.00  0.00    -0.187 NA
ATOM     28  H   UNL     1      -2.151   4.014  23.086  0.00  0.00    +0.148 HD
BRANCH   9   1
ATOM      1  S   UNL     1      -2.179   4.116  25.461  0.00  0.00    +0.030 S 
ATOM      5  O   UNL     1      -1.769   5.507  25.476  0.00  0.00    -0.158 OA
ATOM      6  O   UNL     1      -1.300   3.078  25.965  0.00  0.00    -0.158 OA
BRANCH   1  17
ATOM     17  C   UNL     1      -3.714   3.989  26.349  0.00  0.00    +0.185 C 
BRANCH  17  19
ATOM     19  C   UNL     1      -4.898   4.330  25.459  0.00  0.00    +0.021 C 
ATOM     20  C   UNL     1      -6.070   3.397  25.709  0.00  0.00    +0.005 C 
ENDBRANCH  17  19
ENDBRANCH   1  17
ENDBRANCH   9   1
ENDBRANCH  13   9
BRANCH  14   4
ATOM      4  O   UNL     1      -1.554  -1.655  24.491  0.00  0.00    -0.442 OA
BRANCH   4  18
ATOM      7  O   UNL     1       0.387  -2.217  25.562  0.00  0.00    -0.226 OA
ATOM     10  N   UNL     1       0.378  -0.823  23.681  0.00  0.00    -0.251 N 
ATOM     18  C   UNL     1      -0.186  -1.616  24.661  0.00  0.00    +0.405 C 
ATOM     29  H   UNL     1      -0.265  -0.406  23.014  0.00  0.00    +0.158 HD
BRANCH  10  21
ATOM     21  C   UNL     1       1.746  -0.517  23.490  0.00  0.00    +0.037 A 
ATOM     22  C   UNL     1       2.118   0.733  22.996  0.00  0.00    +0.027 A 
ATOM     23  C   UNL     1       2.722  -1.465  23.797  0.00  0.00    +0.027 A 
ATOM     24  C   UNL     1       3.467   1.036  22.809  0.00  0.00    +0.047 A 
ATOM     25  C   UNL     1       4.071  -1.162  23.609  0.00  0.00    +0.047 A 
ATOM     26  C   UNL     1       4.443   0.088  23.115  0.00  0.00    +0.120 A 
BRANCH  26   8
ATOM      8  O   UNL     1       5.759   0.384  22.934  0.00  0.00    -0.495 OA
ATOM     27  C   UNL     1       6.709  -0.584  23.376  0.00  0.00    +0.277 C 
ENDBRANCH  26   8
ENDBRANCH  10  21
ENDBRANCH   4  18
ENDBRANCH  14   4
TORSDOF 8
ENDMDL
MODEL 6
REMARK VINA RESULT:       0.7      2.536      3.807
REMARK  Name = 11884081
REMARK  10 active torsions:
REMARK  status: ('A' for Active; 'I' for Inactive)
REMARK    1  A    between atoms: S_1  and  N_9
REMARK    2  A    between atoms: S_1  and  C_17
REMARK    3  A    between atoms: O_4  and  C_14
REMARK    4  A    between atoms: O_4  and  C_18
REMARK    5  A    between atoms: O_8  and  C_26
REMARK    6  A    between atoms: O_8  and  C_27
REMARK    7  A    between atoms: N_9  and  C_13
REMARK    8  A    between atoms: N_10  and  C_21
REMARK    9  A    between atoms: C_17  and  C_19
REMARK   10  A    between atoms: C_19  and  C_20
REMARK                            x       y       z     vdW  Elec       q    Type
REMARK                         _______ _______ _______ _____ _____    ______ ____
ROOT
ATOM      2  O   UNL     1      -2.255  -0.091  24.254  0.00  0.00    -0.369 OA
ATOM      3  O   UNL     1      -3.539  -2.794  24.968  0.00  0.00    -0.368 OA
ATOM     11  C   UNL     1      -3.491  -1.536  25.673  0.00  0.00    +0.171 C 
ATOM     12  C   UNL     1      -2.124  -0.935  25.410  0.00  0.00    +0.191 C 
ATOM     13  C   UNL     1      -4.449  -0.555  25.041  0.00  0.00    +0.133 C 
ATOM     14  C   UNL     1      -1.281  -2.153  25.122  0.00  0.00    +0.235 C 
ATOM     15  C   UNL     1      -3.640   0.009  23.889  0.00  0.00    +0.183 C 
ATOM     16  C   UNL     1      -2.252  -3.047  24.385  0.00  0.00    +0.207 C 
ENDROOT
BRANCH  13   9
ATOM      9  N   UNL     1      -4.775   0.526  26.002  0.00  0.00    -0.187 NA
ATOM     28  H   UNL     1      -4.465   0.398  26.973  0.00  0.00    +0.148 HD
BRANCH   9   1
ATOM      1  S   UNL     1      -6.106   1.536  25.682  0.00  0.00    +0.030 S 
ATOM      5  O   UNL     1      -7.038   1.496  26.793  0.00  0.00    -0.158 OA
ATOM      6  O   UNL     1      -6.555   1.280  24.328  0.00  0.00    -0.158 OA
BRANCH   1  17
ATOM     17  C   UNL     1      -5.318   3.130  25.688  0.00  0.00    +0.185 C 
BRANCH  17  19
ATOM     19  C   UNL     1      -3.925   3.061  25.084  0.00  0.00    +0.021 C 
ATOM     20  C   UNL     1      -3.886   3.687  23.701  0.00  0.00    +0.005 C 
ENDBRANCH  17  19
ENDBRANCH   1  17
ENDBRANCH   9   1
ENDBRANCH  13   9
BRANCH  14   4
ATOM      4  O   UNL     1      -0.131  -1.873  24.356  0.00  0.00    -0.442 OA
BRANCH   4  18
ATOM      7  O   UNL     1       0.512  -0.278  22.847  0.00  0.00    -0.226 OA
ATOM     10  N   UNL     1      -0.399   0.292  24.927  0.00  0.00    -0.251 N 
ATOM     18  C   UNL     1       0.039  -0.568  23.940  0.00  0.00    +0.405 C 
ATOM     29  H   UNL     1      -0.763  -0.140  25.771  0.00  0.00    +0.158 HD
BRANCH  10  21
ATOM     21  C   UNL     1      -0.403   1.706  24.909  0.00  0.00    +0.037 A 
ATOM     22  C   UNL     1      -0.304   2.389  23.697  0.00  0.00    +0.027 A 
ATOM     23  C   UNL     1      -0.509   2.418  26.104  0.00  0.00    +0.027 A 
ATOM     24  C   UNL     1      -0.310   3.784  23.679  0.00  0.00    +0.047 A 
ATOM     25  C   UNL     1      -0.514   3.813  26.086  0.00  0.00    +0.047 A 
ATOM     26  C   UNL     1      -0.415   4.496  24.874  0.00  0.00    +0.120 A 
BRANCH  26   8
ATOM      8  O   UNL     1      -0.423   5.856  24.856  0.00  0.00    -0.495 OA
ATOM     27  C   UNL     1      -1.697   6.498  24.865  0.00  0.00    +0.277 C 
ENDBRANCH  26   8
ENDBRANCH  10  21
ENDBRANCH   4  18
ENDBRANCH  14   4
TORSDOF 8
ENDMDL
MODEL 7
REMARK VINA RESULT:       1.0      1.922      2.809
REMARK  Name = 11884081
REMARK  10 active torsions:
REMARK  status: ('A' for Active; 'I' for Inactive)
REMARK    1  A    between atoms: S_1  and  N_9
REMARK    2  A    between atoms: S_1  and  C_17
REMARK    3  A    between atoms: O_4  and  C_14
REMARK    4  A    between atoms: O_4  and  C_18
REMARK    5  A    between atoms: O_8  and  C_26
REMARK    6  A    between atoms: O_8  and  C_27
REMARK    7  A    between atoms: N_9  and  C_13
REMARK    8  A    between atoms: N_10  and  C_21
REMARK    9  A    between atoms: C_17  and  C_19
REMARK   10  A    between atoms: C_19  and  C_20
REMARK                            x       y       z     vdW  Elec       q    Type
REMARK                         _______ _______ _______ _____ _____    ______ ____
ROOT
ATOM      2  O   UNL     1      -2.678   0.972  23.272  0.00  0.00    -0.369 OA
ATOM      3  O   UNL     1      -2.189  -1.523  25.005  0.00  0.00    -0.368 OA
ATOM     11  C   UNL     1      -2.366  -0.132  25.349  0.00  0.00    +0.171 C 
ATOM     12  C   UNL     1      -1.682   0.679  24.266  0.00  0.00    +0.191 C 
ATOM     13  C   UNL     1      -3.821   0.247  25.226  0.00  0.00    +0.133 C 
ATOM     14  C   UNL     1      -0.637  -0.279  23.748  0.00  0.00    +0.235 C 
ATOM     15  C   UNL     1      -3.965   0.548  23.747  0.00  0.00    +0.183 C 
ATOM     16  C   UNL     1      -1.349  -1.609  23.845  0.00  0.00    +0.207 C 
ENDROOT
BRANCH  13   9
ATOM      9  N   UNL     1      -4.095   1.471  26.016  0.00  0.00    -0.187 NA
ATOM     28  H   UNL     1      -3.651   1.541  26.940  0.00  0.00    +0.148 HD
BRANCH   9   1
ATOM      1  S   UNL     1      -5.527   2.341  25.717  0.00  0.00    +0.030 S 
ATOM      5  O   UNL     1      -6.322   2.418  26.927  0.00  0.00    -0.158 OA
ATOM      6  O   UNL     1      -6.104   1.851  24.480  0.00  0.00    -0.158 OA
BRANCH   1  17
ATOM     17  C   UNL     1      -4.867   3.959  25.391  0.00  0.00    +0.185 C 
BRANCH  17  19
ATOM     19  C   UNL     1      -3.453   4.100  25.932  0.00  0.00    +0.021 C 
ATOM     20  C   UNL     1      -2.447   4.310  24.814  0.00  0.00    +0.005 C 
ENDBRANCH  17  19
ENDBRANCH   1  17
ENDBRANCH   9   1
ENDBRANCH  13   9
BRANCH  14   4
ATOM      4  O   UNL     1      -0.217   0.005  22.433  0.00  0.00    -0.442 OA
BRANCH   4  18
ATOM      7  O   UNL     1       1.505  -0.500  21.014  0.00  0.00    -0.226 OA
ATOM     10  N   UNL     1       1.869  -0.065  23.286  0.00  0.00    -0.251 N 
ATOM     18  C   UNL     1       1.113  -0.216  22.140  0.00  0.00    +0.405 C 
ATOM     29  H   UNL     1       1.360   0.175  24.132  0.00  0.00    +0.158 HD
BRANCH  10  21
ATOM     21  C   UNL     1       3.269  -0.202  23.429  0.00  0.00    +0.037 A 
ATOM     22  C   UNL     1       3.810  -1.409  23.872  0.00  0.00    +0.027 A 
ATOM     23  C   UNL     1       4.110   0.869  23.125  0.00  0.00    +0.027 A 
ATOM     24  C   UNL     1       5.191  -1.546  24.012  0.00  0.00    +0.047 A 
ATOM     25  C   UNL     1       5.491   0.732  23.265  0.00  0.00    +0.047 A 
ATOM     26  C   UNL     1       6.031  -0.475  23.708  0.00  0.00    +0.120 A 
BRANCH  26   8
ATOM      8  O   UNL     1       7.379  -0.609  23.842  0.00  0.00    -0.495 OA
ATOM     27  C   UNL     1       8.177  -0.328  22.693  0.00  0.00    +0.277 C 
ENDBRANCH  26   8
ENDBRANCH  10  21
ENDBRANCH   4  18
ENDBRANCH  14   4
TORSDOF 8
ENDMDL
MODEL 8
REMARK VINA RESULT:       2.2      2.544      5.554
REMARK  Name = 11884081
REMARK  10 active torsions:
REMARK  status: ('A' for Active; 'I' for Inactive)
REMARK    1  A    between atoms: S_1  and  N_9
REMARK    2  A    between atoms: S_1  and  C_17
REMARK    3  A    between atoms: O_4  and  C_14
REMARK    4  A    between atoms: O_4  and  C_18
REMARK    5  A    between atoms: O_8  and  C_26
REMARK    6  A    between atoms: O_8  and  C_27
REMARK    7  A    between atoms: N_9  and  C_13
REMARK    8  A    between atoms: N_10  and  C_21
REMARK    9  A    between atoms: C_17  and  C_19
REMARK   10  A    between atoms: C_19  and  C_20
REMARK                            x       y       z     vdW  Elec       q    Type
REMARK                         _______ _______ _______ _____ _____    ______ ____
ROOT
ATOM      2  O   UNL     1      -1.800   2.946  25.771  0.00  0.00    -0.369 OA
ATOM      3  O   UNL     1      -0.711   5.721  25.008  0.00  0.00    -0.368 OA
ATOM     11  C   UNL     1      -1.858   4.977  24.545  0.00  0.00    +0.171 C 
ATOM     12  C   UNL     1      -1.448   3.518  24.501  0.00  0.00    +0.191 C 
ATOM     13  C   UNL     1      -2.952   5.017  25.583  0.00  0.00    +0.133 C 
ATOM     14  C   UNL     1       0.049   3.603  24.321  0.00  0.00    +0.235 C 
ATOM     15  C   UNL     1      -2.556   3.902  26.531  0.00  0.00    +0.183 C 
ATOM     16  C   UNL     1       0.399   4.822  25.143  0.00  0.00    +0.207 C 
ENDROOT
BRANCH  13   9
ATOM      9  N   UNL     1      -4.258   4.702  24.956  0.00  0.00    -0.187 NA
ATOM     28  H   UNL     1      -4.692   5.436  24.384  0.00  0.00    +0.148 HD
BRANCH   9   1
ATOM      1  S   UNL     1      -5.246   3.513  25.668  0.00  0.00    +0.030 S 
ATOM      5  O   UNL     1      -6.634   3.929  25.622  0.00  0.00    -0.158 OA
ATOM      6  O   UNL     1      -4.635   3.103  26.917  0.00  0.00    -0.158 OA
BRANCH   1  17
ATOM     17  C   UNL     1      -5.038   2.178  24.512  0.00  0.00    +0.185 C 
BRANCH  17  19
ATOM     19  C   UNL     1      -4.379   2.654  23.228  0.00  0.00    +0.021 C 
ATOM     20  C   UNL     1      -3.291   1.697  22.772  0.00  0.00    +0.005 C 
ENDBRANCH  17  19
ENDBRANCH   1  17
ENDBRANCH   9   1
ENDBRANCH  13   9
BRANCH  14   4
ATOM      4  O   UNL     1       0.735   2.452  24.759  0.00  0.00    -0.442 OA
BRANCH   4  18
ATOM      7  O   UNL     1       0.754   0.657  23.341  0.00  0.00    -0.226 OA
ATOM     10  N   UNL     1      -0.787   0.823  25.096  0.00  0.00    -0.251 N 
ATOM     18  C   UNL     1       0.267   1.236  24.305  0.00  0.00    +0.405 C 
ATOM     29  H   UNL     1      -1.050   1.443  25.857  0.00  0.00    +0.158 HD
BRANCH  10  21
ATOM     21  C   UNL     1      -1.551  -0.362  24.978  0.00  0.00    +0.037 A 
ATOM     22  C   UNL     1      -0.977  -1.510  24.433  0.00  0.00    +0.027 A 
ATOM     23  C   UNL     1      -2.877  -0.383  25.410  0.00  0.00    +0.027 A 
ATOM     24  C   UNL     1      -1.729  -2.680  24.318  0.00  0.00    +0.047 A 
ATOM     25  C   UNL     1      -3.630  -1.551  25.294  0.00  0.00    +0.047 A 
ATOM     26  C   UNL     1      -3.056  -2.700  24.749  0.00  0.00    +0.120 A 
BRANCH  26   8
ATOM      8  O   UNL     1      -3.789  -3.841  24.639  0.00  0.00    -0.495 OA
ATOM     27  C   UNL     1      -4.731  -3.907  23.569  0.00  0.00    +0.277 C 
ENDBRANCH  26   8
ENDBRANCH  10  21
ENDBRANCH   4  18
ENDBRANCH  14   4
TORSDOF 8
ENDMDL
