MODEL 1
REMARK VINA RESULT:      11.0      0.000      0.000
REMARK  Name = 11882081
REMARK  11 active torsions:
REMARK  status: ('A' for Active; 'I' for Inactive)
REMARK    1  A    between atoms: S_1  and  C_36
REMARK    2  A    between atoms: S_1  and  C_39
REMARK    3  A    between atoms: N_7  and  C_12
REMARK    4  A    between atoms: N_8  and  C_19
REMARK    5  A    between atoms: N_9  and  C_27
REMARK    6  A    between atoms: N_10  and  C_28
REMARK    7  A    between atoms: C_13  and  C_16
REMARK    8  A    between atoms: C_17  and  C_18
REMARK    9  A    between atoms: C_19  and  C_21
REMARK   10  A    between atoms: C_19  and  C_23
REMARK   11  A    between atoms: C_21  and  C_26
REMARK                            x       y       z     vdW  Elec       q    Type
REMARK                         _______ _______ _______ _____ _____    ______ ____
ROOT
ATOM      3  O   UNL     1      -1.791  -0.472  26.342  0.00  0.00    -0.268 OA
ATOM      6  N   UNL     1      -1.820   0.542  24.271  0.00  0.00    -0.283 N 
ATOM     12  C   UNL     1      -0.490   2.247  23.294  0.00  0.00    +0.105 C 
ATOM     13  C   UNL     1      -0.892   1.612  24.627  0.00  0.00    +0.182 C 
ATOM     14  C   UNL     1      -1.706   1.991  22.401  0.00  0.00    +0.043 C 
ATOM     15  C   UNL     1      -2.214   0.632  22.865  0.00  0.00    +0.111 C 
ATOM     17  C   UNL     1      -2.166  -0.470  25.169  0.00  0.00    +0.264 C 
ENDROOT
BRANCH  12   7
ATOM      4  O   UNL     1       1.689   1.129  24.779  0.00  0.00    -0.252 OA
ATOM      7  N   UNL     1       0.692   1.620  22.752  0.00  0.00    -0.294 N 
ATOM     10  N   UNL     1       2.725   0.556  22.753  0.00  0.00    -0.269 N 
ATOM     20  C   UNL     1       1.714   1.097  23.551  0.00  0.00    +0.304 C 
ATOM     40  H   UNL     1       0.757   1.494  21.746  0.00  0.00    +0.151 HD
ATOM     42  H   UNL     1       2.592   0.612  21.746  0.00  0.00    +0.156 HD
BRANCH  10  28
ATOM     28  C   UNL     1       3.926  -0.065  23.173  0.00  0.00    +0.036 A 
ATOM     31  C   UNL     1       5.115   0.663  23.199  0.00  0.00    +0.038 A 
ATOM     32  C   UNL     1       3.919  -1.405  23.560  0.00  0.00    +0.023 A 
ATOM     36  C   UNL     1       6.299   0.051  23.612  0.00  0.00    +0.009 A 
ATOM     37  C   UNL     1       5.102  -2.017  23.973  0.00  0.00    +0.003 A 
ATOM     38  C   UNL     1       6.292  -1.290  23.999  0.00  0.00    +0.015 A 
BRANCH  36   1
ATOM      1  S   UNL     1       7.819   0.980  23.647  0.00  0.00    -0.129 S 
ATOM     39  C   UNL     1       9.013  -0.245  23.040  0.00  0.00    +0.090 C 
ENDBRANCH  36   1
ENDBRANCH  10  28
ENDBRANCH  12   7
BRANCH  17  18
ATOM      9  N   UNL     1      -2.614  -2.795  24.354  0.00  0.00    -0.346 N 
ATOM     18  C   UNL     1      -3.030  -1.527  24.657  0.00  0.00    +0.104 A 
ATOM     22  C   UNL     1      -4.379  -1.450  24.388  0.00  0.00    +0.032 A 
ATOM     24  C   UNL     1      -3.675  -3.532  23.897  0.00  0.00    +0.086 A 
ATOM     25  C   UNL     1      -4.787  -2.719  23.907  0.00  0.00    +0.020 A 
ATOM     27  C   UNL     1      -1.265  -3.299  24.490  0.00  0.00    +0.149 C 
ENDBRANCH  17  18
BRANCH  13  16
ATOM      2  O   UNL     1      -2.033   2.288  26.612  0.00  0.00    -0.274 OA
ATOM      8  N   UNL     1      -1.881   3.784  24.834  0.00  0.00    -0.302 N 
ATOM     16  C   UNL     1      -1.655   2.580  25.480  0.00  0.00    +0.236 C 
ATOM     41  H   UNL     1      -1.475   3.933  23.916  0.00  0.00    +0.150 HD
BRANCH   8  19
ATOM     19  C   UNL     1      -2.614   4.877  25.432  0.00  0.00    +0.163 C 
BRANCH  19  23
ATOM      5  O   UNL     1      -2.364   7.280  25.170  0.00  0.00    -0.274 OA
ATOM     11  N   UNL     1      -0.563   5.932  24.704  0.00  0.00    -0.328 N 
ATOM     23  C   UNL     1      -1.871   6.158  25.082  0.00  0.00    +0.231 C 
ATOM     43  H   UNL     1       0.047   6.703  24.456  0.00  0.00    +0.145 HD
ATOM     44  H   UNL     1      -0.162   5.000  24.658  0.00  0.00    +0.145 HD
ENDBRANCH  19  23
BRANCH  19  21
ATOM     21  C   UNL     1      -4.061   4.945  24.933  0.00  0.00    +0.067 C 
BRANCH  21  26
ATOM     26  C   UNL     1      -4.811   3.651  25.139  0.00  0.00    -0.045 A 
ATOM     29  C   UNL     1      -4.839   2.693  24.125  0.00  0.00    +0.004 A 
ATOM     30  C   UNL     1      -5.477   3.414  26.341  0.00  0.00    +0.004 A 
ATOM     33  C   UNL     1      -5.532   1.498  24.314  0.00  0.00    +0.000 A 
ATOM     34  C   UNL     1      -6.169   2.218  26.530  0.00  0.00    +0.000 A 
ATOM     35  C   UNL     1      -6.196   1.260  25.516  0.00  0.00    +0.000 A 
ENDBRANCH  21  26
ENDBRANCH  19  21
ENDBRANCH   8  19
ENDBRANCH  13  16
TORSDOF 9
ENDMDL
MODEL 2
REMARK VINA RESULT:      13.3      1.416      1.887
REMARK  Name = 11882081
REMARK  11 active torsions:
REMARK  status: ('A' for Active; 'I' for Inactive)
REMARK    1  A    between atoms: S_1  and  C_36
REMARK    2  A    between atoms: S_1  and  C_39
REMARK    3  A    between atoms: N_7  and  C_12
REMARK    4  A    between atoms: N_8  and  C_19
REMARK    5  A    between atoms: N_9  and  C_27
REMARK    6  A    between atoms: N_10  and  C_28
REMARK    7  A    between atoms: C_13  and  C_16
REMARK    8  A    between atoms: C_17  and  C_18
REMARK    9  A    between atoms: C_19  and  C_21
REMARK   10  A    between atoms: C_19  and  C_23
REMARK   11  A    between atoms: C_21  and  C_26
REMARK                            x       y       z     vdW  Elec       q    Type
REMARK                         _______ _______ _______ _____ _____    ______ ____
ROOT
ATOM      3  O   UNL     1      -1.805   0.503  26.240  0.00  0.00    -0.268 OA
ATOM      6  N   UNL     1      -0.654   0.354  24.247  0.00  0.00    -0.283 N 
ATOM     12  C   UNL     1       1.198   1.545  23.364  0.00  0.00    +0.105 C 
ATOM     13  C   UNL     1       0.101   1.590  24.429  0.00  0.00    +0.182 C 
ATOM     14  C   UNL     1       0.574   0.698  22.251  0.00  0.00    +0.043 C 
ATOM     15  C   UNL     1      -0.272  -0.319  23.006  0.00  0.00    +0.111 C 
ATOM     17  C   UNL     1      -1.535  -0.128  25.218  0.00  0.00    +0.264 C 
ENDROOT
BRANCH  12   7
ATOM      4  O   UNL     1       3.654   1.143  21.947  0.00  0.00    -0.252 OA
ATOM      7  N   UNL     1       2.398   0.926  23.875  0.00  0.00    -0.294 N 
ATOM     10  N   UNL     1       4.554   0.140  23.869  0.00  0.00    -0.269 N 
ATOM     20  C   UNL     1       3.560   0.768  23.113  0.00  0.00    +0.304 C 
ATOM     40  H   UNL     1       2.423   0.650  24.853  0.00  0.00    +0.151 HD
ATOM     42  H   UNL     1       4.312  -0.109  24.825  0.00  0.00    +0.156 HD
BRANCH  10  28
ATOM     28  C   UNL     1       5.867  -0.200  23.467  0.00  0.00    +0.036 A 
ATOM     31  C   UNL     1       6.939   0.619  23.822  0.00  0.00    +0.038 A 
ATOM     32  C   UNL     1       6.090  -1.353  22.715  0.00  0.00    +0.023 A 
ATOM     36  C   UNL     1       8.234   0.285  23.425  0.00  0.00    +0.009 A 
ATOM     37  C   UNL     1       7.384  -1.688  22.318  0.00  0.00    +0.003 A 
ATOM     38  C   UNL     1       8.456  -0.870  22.673  0.00  0.00    +0.015 A 
BRANCH  36   1
ATOM      1  S   UNL     1       9.605   1.329  23.878  0.00  0.00    -0.129 S 
ATOM     39  C   UNL     1      10.327   1.713  22.258  0.00  0.00    +0.090 C 
ENDBRANCH  36   1
ENDBRANCH  10  28
ENDBRANCH  12   7
BRANCH  17  18
ATOM      9  N   UNL     1      -1.507  -2.625  25.016  0.00  0.00    -0.346 N 
ATOM     18  C   UNL     1      -2.155  -1.420  24.949  0.00  0.00    +0.104 A 
ATOM     22  C   UNL     1      -3.462  -1.664  24.587  0.00  0.00    +0.032 A 
ATOM     24  C   UNL     1      -2.379  -3.635  24.705  0.00  0.00    +0.086 A 
ATOM     25  C   UNL     1      -3.603  -3.066  24.432  0.00  0.00    +0.020 A 
ATOM     27  C   UNL     1      -0.116  -2.820  25.363  0.00  0.00    +0.149 C 
ENDBRANCH  17  18
BRANCH  13  16
ATOM      2  O   UNL     1      -1.117   3.105  23.041  0.00  0.00    -0.274 OA
ATOM      8  N   UNL     1      -1.352   3.256  25.353  0.00  0.00    -0.302 N 
ATOM     16  C   UNL     1      -0.853   2.720  24.178  0.00  0.00    +0.236 C 
ATOM     41  H   UNL     1      -1.103   2.822  26.236  0.00  0.00    +0.150 HD
BRANCH   8  19
ATOM     19  C   UNL     1      -2.272   4.369  25.386  0.00  0.00    +0.163 C 
BRANCH  19  23
ATOM      5  O   UNL     1      -1.930   6.758  25.101  0.00  0.00    -0.274 OA
ATOM     11  N   UNL     1      -0.173   5.339  24.679  0.00  0.00    -0.328 N 
ATOM     23  C   UNL     1      -1.478   5.618  25.033  0.00  0.00    +0.231 C 
ATOM     43  H   UNL     1       0.469   6.084  24.433  0.00  0.00    +0.145 HD
ATOM     44  H   UNL     1       0.194   4.393  24.651  0.00  0.00    +0.145 HD
ENDBRANCH  19  23
BRANCH  19  21
ATOM     21  C   UNL     1      -3.439   4.185  24.409  0.00  0.00    +0.067 C 
BRANCH  21  26
ATOM     26  C   UNL     1      -4.413   3.121  24.856  0.00  0.00    -0.045 A 
ATOM     29  C   UNL     1      -5.331   3.398  25.868  0.00  0.00    +0.004 A 
ATOM     30  C   UNL     1      -4.393   1.862  24.257  0.00  0.00    +0.004 A 
ATOM     33  C   UNL     1      -6.231   2.416  26.282  0.00  0.00    +0.000 A 
ATOM     34  C   UNL     1      -5.293   0.880  24.670  0.00  0.00    +0.000 A 
ATOM     35  C   UNL     1      -6.212   1.157  25.682  0.00  0.00    +0.000 A 
ENDBRANCH  21  26
ENDBRANCH  19  21
ENDBRANCH   8  19
ENDBRANCH  13  16
TORSDOF 9
ENDMDL
MODEL 3
REMARK VINA RESULT:      14.1      1.450      2.904
REMARK  Name = 11882081
REMARK  11 active torsions:
REMARK  status: ('A' for Active; 'I' for Inactive)
REMARK    1  A    between atoms: S_1  and  C_36
REMARK    2  A    between atoms: S_1  and  C_39
REMARK    3  A    between atoms: N_7  and  C_12
REMARK    4  A    between atoms: N_8  and  C_19
REMARK    5  A    between atoms: N_9  and  C_27
REMARK    6  A    between atoms: N_10  and  C_28
REMARK    7  A    between atoms: C_13  and  C_16
REMARK    8  A    between atoms: C_17  and  C_18
REMARK    9  A    between atoms: C_19  and  C_21
REMARK   10  A    between atoms: C_19  and  C_23
REMARK   11  A    between atoms: C_21  and  C_26
REMARK                            x       y       z     vdW  Elec       q    Type
REMARK                         _______ _______ _______ _____ _____    ______ ____
ROOT
ATOM      3  O   UNL     1      -2.399  -0.778  26.088  0.00  0.00    -0.268 OA
ATOM      6  N   UNL     1      -2.489   0.239  24.020  0.00  0.00    -0.283 N 
ATOM     12  C   UNL     1      -1.522   2.227  23.159  0.00  0.00    +0.105 C 
ATOM     13  C   UNL     1      -1.875   1.491  24.452  0.00  0.00    +0.182 C 
ATOM     14  C   UNL     1      -2.562   1.708  22.163  0.00  0.00    +0.043 C 
ATOM     15  C   UNL     1      -2.771   0.259  22.584  0.00  0.00    +0.111 C 
ATOM     17  C   UNL     1      -2.662  -0.843  24.887  0.00  0.00    +0.264 C 
ENDROOT
BRANCH  12   7
ATOM      4  O   UNL     1       0.356   0.534  24.503  0.00  0.00    -0.252 OA
ATOM      7  N   UNL     1      -0.184   1.907  22.724  0.00  0.00    -0.294 N 
ATOM     10  N   UNL     1       1.898   0.942  22.782  0.00  0.00    -0.269 N 
ATOM     20  C   UNL     1       0.673   1.067  23.444  0.00  0.00    +0.304 C 
ATOM     40  H   UNL     1       0.130   2.255  21.823  0.00  0.00    +0.151 HD
ATOM     42  H   UNL     1       2.000   1.454  21.910  0.00  0.00    +0.156 HD
BRANCH  10  28
ATOM     28  C   UNL     1       3.027   0.187  23.179  0.00  0.00    +0.036 A 
ATOM     31  C   UNL     1       4.280   0.794  23.257  0.00  0.00    +0.038 A 
ATOM     32  C   UNL     1       2.886  -1.165  23.493  0.00  0.00    +0.023 A 
ATOM     36  C   UNL     1       5.393   0.050  23.647  0.00  0.00    +0.009 A 
ATOM     37  C   UNL     1       3.998  -1.910  23.883  0.00  0.00    +0.003 A 
ATOM     38  C   UNL     1       5.252  -1.303  23.961  0.00  0.00    +0.015 A 
BRANCH  36   1
ATOM      1  S   UNL     1       6.995   0.824  23.747  0.00  0.00    -0.129 S 
ATOM     39  C   UNL     1       8.059  -0.430  22.979  0.00  0.00    +0.090 C 
ENDBRANCH  36   1
ENDBRANCH  10  28
ENDBRANCH  12   7
BRANCH  17  18
ATOM      9  N   UNL     1      -2.454  -3.140  23.912  0.00  0.00    -0.346 N 
ATOM     18  C   UNL     1      -3.205  -2.064  24.303  0.00  0.00    +0.104 A 
ATOM     22  C   UNL     1      -4.526  -2.354  24.042  0.00  0.00    +0.032 A 
ATOM     24  C   UNL     1      -3.275  -4.114  23.406  0.00  0.00    +0.086 A 
ATOM     25  C   UNL     1      -4.570  -3.651  23.474  0.00  0.00    +0.020 A 
ATOM     27  C   UNL     1      -1.015  -3.251  24.011  0.00  0.00    +0.149 C 
ENDBRANCH  17  18
BRANCH  13  16
ATOM      2  O   UNL     1      -2.735   2.572  26.401  0.00  0.00    -0.274 OA
ATOM      8  N   UNL     1      -4.066   2.460  24.494  0.00  0.00    -0.302 N 
ATOM     16  C   UNL     1      -2.917   2.236  25.234  0.00  0.00    +0.236 C 
ATOM     41  H   UNL     1      -4.085   2.182  23.518  0.00  0.00    +0.150 HD
BRANCH   8  19
ATOM     19  C   UNL     1      -5.227   3.137  25.023  0.00  0.00    +0.163 C 
BRANCH  19  23
ATOM      5  O   UNL     1      -6.294   2.573  27.133  0.00  0.00    -0.274 OA
ATOM     11  N   UNL     1      -5.956   0.903  25.593  0.00  0.00    -0.328 N 
ATOM     23  C   UNL     1      -5.864   2.204  26.043  0.00  0.00    +0.231 C 
ATOM     43  H   UNL     1      -6.372   0.181  26.170  0.00  0.00    +0.145 HD
ATOM     44  H   UNL     1      -5.617   0.617  24.679  0.00  0.00    +0.145 HD
ENDBRANCH  19  23
BRANCH  19  21
ATOM     21  C   UNL     1      -4.869   4.477  25.676  0.00  0.00    +0.067 C 
BRANCH  21  26
ATOM     26  C   UNL     1      -3.550   5.028  25.191  0.00  0.00    -0.045 A 
ATOM     29  C   UNL     1      -2.391   4.819  25.939  0.00  0.00    +0.004 A 
ATOM     30  C   UNL     1      -3.490   5.746  23.997  0.00  0.00    +0.004 A 
ATOM     33  C   UNL     1      -1.171   5.329  25.492  0.00  0.00    +0.000 A 
ATOM     34  C   UNL     1      -2.271   6.254  23.551  0.00  0.00    +0.000 A 
ATOM     35  C   UNL     1      -1.112   6.046  24.298  0.00  0.00    +0.000 A 
ENDBRANCH  21  26
ENDBRANCH  19  21
ENDBRANCH   8  19
ENDBRANCH  13  16
TORSDOF 9
ENDMDL
