MODEL 1
REMARK VINA RESULT:       3.1      0.000      0.000
REMARK  Name = 45784332
REMARK  5 active torsions:
REMARK  status: ('A' for Active; 'I' for Inactive)
REMARK    1  A    between atoms: S_1  and  C_22
REMARK    2  A    between atoms: S_1  and  C_24
REMARK    3  A    between atoms: N_5  and  C_7
REMARK    4  A    between atoms: C_8  and  C_17
REMARK    5  A    between atoms: C_24  and  C_25
REMARK                            x       y       z     vdW  Elec       q    Type
REMARK                         _______ _______ _______ _____ _____    ______ ____
ROOT
ATOM      2  O   UNL     1      -1.607  -1.385  24.262  0.00  0.00    -0.439 OA
ATOM      6  N   UNL     1      -1.439   0.690  23.367  0.00  0.00    -0.213 NA
ATOM     17  C   UNL     1      -0.911  -0.507  23.487  0.00  0.00    +0.201 A 
ATOM     18  C   UNL     1      -2.583   0.609  24.123  0.00  0.00    +0.111 A 
ATOM     19  C   UNL     1      -2.690  -0.660  24.673  0.00  0.00    +0.155 A 
ATOM     20  C   UNL     1      -3.584   1.552  24.397  0.00  0.00    +0.058 A 
ATOM     21  C   UNL     1      -3.730  -1.084  25.492  0.00  0.00    +0.050 A 
ATOM     22  C   UNL     1      -4.651   1.162  25.220  0.00  0.00    +0.090 A 
ATOM     23  C   UNL     1      -4.719  -0.130  25.756  0.00  0.00    +0.030 A 
ENDROOT
BRANCH  17   8
ATOM      5  N   UNL     1       2.701  -0.827  22.965  0.00  0.00    -0.299 NA
ATOM      8  C   UNL     1       0.368  -1.035  22.879  0.00  0.00    +0.090 C 
ATOM      9  C   UNL     1       1.552  -1.005  23.854  0.00  0.00    +0.097 C 
ATOM     10  C   UNL     1       2.275   0.180  21.993  0.00  0.00    +0.085 C 
ATOM     13  C   UNL     1       0.862  -0.265  21.642  0.00  0.00    +0.029 C 
BRANCH   5   7
ATOM      7  C   UNL     1       3.908  -0.428  23.687  0.00  0.00    +0.057 C 
ATOM     11  C   UNL     1       4.574   0.754  22.974  0.00  0.00    +0.019 C 
ATOM     12  C   UNL     1       4.868  -1.618  23.797  0.00  0.00    +0.019 C 
ATOM     14  C   UNL     1       5.883   1.151  23.658  0.00  0.00    +0.002 C 
ATOM     15  C   UNL     1       6.174  -1.219  24.479  0.00  0.00    +0.002 C 
ATOM     16  C   UNL     1       6.836  -0.034  23.779  0.00  0.00    +0.000 C 
ENDBRANCH   5   7
ENDBRANCH  17   8
BRANCH  22   1
ATOM      1  S   UNL     1      -5.915   2.313  25.587  0.00  0.00    -0.003 S 
ATOM      3  O   UNL     1      -6.983   2.164  24.609  0.00  0.00    -0.169 OA
ATOM      4  O   UNL     1      -6.212   2.211  27.008  0.00  0.00    -0.169 OA
BRANCH   1  24
ATOM     24  C   UNL     1      -5.163   3.898  25.296  0.00  0.00    +0.168 C 
ATOM     25  C   UNL     1      -3.886   4.060  26.090  0.00  0.00    +0.028 C 
ENDBRANCH   1  24
ENDBRANCH  22   1
TORSDOF 4
ENDMDL
MODEL 2
REMARK VINA RESULT:       3.9      1.534      2.455
REMARK  Name = 45784332
REMARK  5 active torsions:
REMARK  status: ('A' for Active; 'I' for Inactive)
REMARK    1  A    between atoms: S_1  and  C_22
REMARK    2  A    between atoms: S_1  and  C_24
REMARK    3  A    between atoms: N_5  and  C_7
REMARK    4  A    between atoms: C_8  and  C_17
REMARK    5  A    between atoms: C_24  and  C_25
REMARK                            x       y       z     vdW  Elec       q    Type
REMARK                         _______ _______ _______ _____ _____    ______ ____
ROOT
ATOM      2  O   UNL     1      -0.176   1.540  23.884  0.00  0.00    -0.439 OA
ATOM      6  N   UNL     1      -1.949   0.134  23.752  0.00  0.00    -0.213 NA
ATOM     17  C   UNL     1      -0.667   0.318  23.533  0.00  0.00    +0.201 A 
ATOM     18  C   UNL     1      -2.352   1.330  24.295  0.00  0.00    +0.111 A 
ATOM     19  C   UNL     1      -1.269   2.194  24.378  0.00  0.00    +0.155 A 
ATOM     20  C   UNL     1      -3.606   1.771  24.744  0.00  0.00    +0.058 A 
ATOM     21  C   UNL     1      -1.325   3.488  24.880  0.00  0.00    +0.050 A 
ATOM     22  C   UNL     1      -3.702   3.072  25.259  0.00  0.00    +0.090 A 
ATOM     23  C   UNL     1      -2.583   3.912  25.323  0.00  0.00    +0.030 A 
ENDROOT
BRANCH  17   8
ATOM      5  N   UNL     1       2.620  -0.935  22.505  0.00  0.00    -0.299 NA
ATOM      8  C   UNL     1       0.334  -0.648  22.942  0.00  0.00    +0.090 C 
ATOM      9  C   UNL     1       1.719  -0.549  23.594  0.00  0.00    +0.097 C 
ATOM     10  C   UNL     1       2.101  -0.246  21.324  0.00  0.00    +0.085 C 
ATOM     13  C   UNL     1       0.598  -0.466  21.437  0.00  0.00    +0.029 C 
BRANCH   5   7
ATOM      7  C   UNL     1       4.012  -0.588  22.785  0.00  0.00    +0.057 C 
ATOM     11  C   UNL     1       4.529  -1.421  23.963  0.00  0.00    +0.019 C 
ATOM     12  C   UNL     1       4.127   0.913  23.077  0.00  0.00    +0.019 C 
ATOM     14  C   UNL     1       5.960  -1.031  24.334  0.00  0.00    +0.002 C 
ATOM     15  C   UNL     1       5.557   1.299  23.449  0.00  0.00    +0.002 C 
ATOM     16  C   UNL     1       6.081   0.464  24.614  0.00  0.00    +0.000 C 
ENDBRANCH   5   7
ENDBRANCH  17   8
BRANCH  22   1
ATOM      1  S   UNL     1      -5.250   3.656  25.826  0.00  0.00    -0.003 S 
ATOM      3  O   UNL     1      -5.208   3.764  27.276  0.00  0.00    -0.169 OA
ATOM      4  O   UNL     1      -5.609   4.815  25.022  0.00  0.00    -0.169 OA
BRANCH   1  24
ATOM     24  C   UNL     1      -6.383   2.344  25.434  0.00  0.00    +0.168 C 
ATOM     25  C   UNL     1      -6.616   1.438  26.624  0.00  0.00    +0.028 C 
ENDBRANCH   1  24
ENDBRANCH  22   1
TORSDOF 4
ENDMDL
MODEL 3
REMARK VINA RESULT:       5.3      3.458      8.806
REMARK  Name = 45784332
REMARK  5 active torsions:
REMARK  status: ('A' for Active; 'I' for Inactive)
REMARK    1  A    between atoms: S_1  and  C_22
REMARK    2  A    between atoms: S_1  and  C_24
REMARK    3  A    between atoms: N_5  and  C_7
REMARK    4  A    between atoms: C_8  and  C_17
REMARK    5  A    between atoms: C_24  and  C_25
REMARK                            x       y       z     vdW  Elec       q    Type
REMARK                         _______ _______ _______ _____ _____    ______ ____
ROOT
ATOM      2  O   UNL     1      -0.411  -0.517  22.292  0.00  0.00    -0.439 OA
ATOM      6  N   UNL     1       0.221  -0.618  24.466  0.00  0.00    -0.213 NA
ATOM     17  C   UNL     1      -0.764  -0.676  23.598  0.00  0.00    +0.201 A 
ATOM     18  C   UNL     1       1.325  -0.402  23.678  0.00  0.00    +0.111 A 
ATOM     19  C   UNL     1       0.942  -0.339  22.345  0.00  0.00    +0.155 A 
ATOM     20  C   UNL     1       2.681  -0.248  24.001  0.00  0.00    +0.058 A 
ATOM     21  C   UNL     1       1.811  -0.132  21.281  0.00  0.00    +0.050 A 
ATOM     22  C   UNL     1       3.589  -0.037  22.953  0.00  0.00    +0.090 A 
ATOM     23  C   UNL     1       3.160   0.021  21.621  0.00  0.00    +0.030 A 
ENDROOT
BRANCH  17   8
ATOM      5  N   UNL     1      -4.216   0.217  24.443  0.00  0.00    -0.299 NA
ATOM      8  C   UNL     1      -2.236  -0.896  23.860  0.00  0.00    +0.090 C 
ATOM      9  C   UNL     1      -3.097   0.324  23.504  0.00  0.00    +0.097 C 
ATOM     10  C   UNL     1      -3.604  -0.143  25.722  0.00  0.00    +0.085 C 
ATOM     13  C   UNL     1      -2.592  -1.210  25.323  0.00  0.00    +0.029 C 
BRANCH   5   7
ATOM      7  C   UNL     1      -4.992   1.453  24.527  0.00  0.00    +0.057 C 
ATOM     11  C   UNL     1      -4.094   2.654  24.210  0.00  0.00    +0.019 C 
ATOM     12  C   UNL     1      -5.617   1.583  25.920  0.00  0.00    +0.019 C 
ATOM     14  C   UNL     1      -4.853   3.972  24.363  0.00  0.00    +0.002 C 
ATOM     15  C   UNL     1      -6.374   2.901  26.070  0.00  0.00    +0.002 C 
ATOM     16  C   UNL     1      -5.486   4.100  25.745  0.00  0.00    +0.000 C 
ENDBRANCH   5   7
ENDBRANCH  17   8
BRANCH  22   1
ATOM      1  S   UNL     1       5.287   0.162  23.319  0.00  0.00    -0.003 S 
ATOM      3  O   UNL     1       6.055  -0.021  22.096  0.00  0.00    -0.169 OA
ATOM      4  O   UNL     1       5.436   1.386  24.092  0.00  0.00    -0.169 OA
BRANCH   1  24
ATOM     24  C   UNL     1       5.670  -1.209  24.383  0.00  0.00    +0.168 C 
ATOM     25  C   UNL     1       4.798  -2.408  24.080  0.00  0.00    +0.028 C 
ENDBRANCH   1  24
ENDBRANCH  22   1
TORSDOF 4
ENDMDL
MODEL 4
REMARK VINA RESULT:       7.0      3.591      9.008
REMARK  Name = 45784332
REMARK  5 active torsions:
REMARK  status: ('A' for Active; 'I' for Inactive)
REMARK    1  A    between atoms: S_1  and  C_22
REMARK    2  A    between atoms: S_1  and  C_24
REMARK    3  A    between atoms: N_5  and  C_7
REMARK    4  A    between atoms: C_8  and  C_17
REMARK    5  A    between atoms: C_24  and  C_25
REMARK                            x       y       z     vdW  Elec       q    Type
REMARK                         _______ _______ _______ _____ _____    ______ ____
ROOT
ATOM      2  O   UNL     1      -1.077   1.648  24.352  0.00  0.00    -0.439 OA
ATOM      6  N   UNL     1       0.655   3.071  24.681  0.00  0.00    -0.213 NA
ATOM     17  C   UNL     1      -0.634   2.850  24.813  0.00  0.00    +0.201 A 
ATOM     18  C   UNL     1       1.113   1.923  24.081  0.00  0.00    +0.111 A 
ATOM     19  C   UNL     1       0.055   1.049  23.878  0.00  0.00    +0.155 A 
ATOM     20  C   UNL     1       2.399   1.536  23.675  0.00  0.00    +0.058 A 
ATOM     21  C   UNL     1       0.166  -0.207  23.293  0.00  0.00    +0.050 A 
ATOM     22  C   UNL     1       2.551   0.275  23.080  0.00  0.00    +0.090 A 
ATOM     23  C   UNL     1       1.455  -0.577  22.893  0.00  0.00    +0.030 A 
ENDROOT
BRANCH  17   8
ATOM      5  N   UNL     1      -4.001   3.993  25.698  0.00  0.00    -0.299 NA
ATOM      8  C   UNL     1      -1.686   3.756  25.411  0.00  0.00    +0.090 C 
ATOM      9  C   UNL     1      -2.939   2.997  25.867  0.00  0.00    +0.097 C 
ATOM     10  C   UNL     1      -3.720   4.630  24.412  0.00  0.00    +0.085 C 
ATOM     13  C   UNL     1      -2.213   4.847  24.464  0.00  0.00    +0.029 C 
BRANCH   5   7
ATOM      7  C   UNL     1      -5.335   3.397  25.745  0.00  0.00    +0.057 C 
ATOM     11  C   UNL     1      -5.504   2.599  27.042  0.00  0.00    +0.019 C 
ATOM     12  C   UNL     1      -5.552   2.507  24.516  0.00  0.00    +0.019 C 
ATOM     14  C   UNL     1      -6.861   1.898  27.091  0.00  0.00    +0.002 C 
ATOM     15  C   UNL     1      -6.908   1.807  24.568  0.00  0.00    +0.002 C 
ATOM     16  C   UNL     1      -7.085   1.020  25.864  0.00  0.00    +0.000 C 
ENDBRANCH   5   7
ENDBRANCH  17   8
BRANCH  22   1
ATOM      1  S   UNL     1       4.139  -0.239  22.559  0.00  0.00    -0.003 S 
ATOM      3  O   UNL     1       4.319  -1.639  22.914  0.00  0.00    -0.169 OA
ATOM      4  O   UNL     1       4.315   0.188  21.179  0.00  0.00    -0.169 OA
BRANCH   1  24
ATOM     24  C   UNL     1       5.258   0.701  23.571  0.00  0.00    +0.168 C 
ATOM     25  C   UNL     1       5.820  -0.134  24.701  0.00  0.00    +0.028 C 
ENDBRANCH   1  24
ENDBRANCH  22   1
TORSDOF 4
ENDMDL
