MODEL 1
REMARK VINA RESULT:      -5.4      0.000      0.000
REMARK  Name = 40778248
REMARK  11 active torsions:
REMARK  status: ('A' for Active; 'I' for Inactive)
REMARK    1  A    between atoms: O_2  and  C_10
REMARK    2  A    between atoms: O_3  and  C_11
REMARK    3  A    between atoms: N_6  and  C_15
REMARK    4  A    between atoms: N_7  and  C_18
REMARK    5  A    between atoms: N_8  and  C_19
REMARK    6  A    between atoms: C_12  and  C_14
REMARK    7  A    between atoms: C_13  and  C_15
REMARK    8  A    between atoms: C_14  and  C_16
REMARK    9  A    between atoms: C_18  and  C_20
REMARK   10  A    between atoms: C_19  and  C_21
REMARK   11  A    between atoms: C_19  and  C_22
REMARK                            x       y       z     vdW  Elec       q    Type
REMARK                         _______ _______ _______ _____ _____    ______ ____
ROOT
ATOM      1  O   UNL     1      -2.591   3.375  23.400  0.00  0.00    -0.366 OA
ATOM     10  C   UNL     1      -3.026   3.699  25.694  0.00  0.00    +0.175 C 
ATOM     11  C   UNL     1      -1.573   4.044  25.444  0.00  0.00    +0.176 C 
ATOM     12  C   UNL     1      -3.615   3.831  24.300  0.00  0.00    +0.158 C 
ATOM     13  C   UNL     1      -1.320   3.387  24.091  0.00  0.00    +0.167 C 
ENDROOT
BRANCH  10   2
ATOM      2  O   UNL     1      -3.655   4.561  26.618  0.00  0.00    -0.387 OA
ATOM     27  H   UNL     1      -4.283   5.112  26.121  0.00  0.00    +0.210 HD
ENDBRANCH  10   2
BRANCH  11   3
ATOM      3  O   UNL     1      -1.418   5.453  25.288  0.00  0.00    -0.387 OA
ATOM     28  H   UNL     1      -1.807   5.695  24.430  0.00  0.00    +0.210 HD
ENDBRANCH  11   3
BRANCH  12  14
ATOM     14  C   UNL     1      -4.877   3.010  24.097  0.00  0.00    +0.130 C 
BRANCH  14  16
ATOM      4  O   UNL     1      -5.657   1.961  26.132  0.00  0.00    -0.276 OA
ATOM      7  N   UNL     1      -4.290   0.757  24.690  0.00  0.00    -0.311 N 
ATOM     16  C   UNL     1      -5.002   1.876  25.097  0.00  0.00    +0.216 C 
ATOM     30  H   UNL     1      -3.789   0.784  23.806  0.00  0.00    +0.149 HD
BRANCH   7  18
ATOM     18  C   UNL     1      -4.235  -0.465  25.457  0.00  0.00    +0.141 C 
BRANCH  18  20
ATOM      9  N   UNL     1      -0.575  -1.375  25.741  0.00  0.00    -0.263 NA
ATOM     20  C   UNL     1      -2.937  -1.194  25.258  0.00  0.00    -0.012 A 
ATOM     23  C   UNL     1      -2.864  -2.319  24.444  0.00  0.00    +0.008 A 
ATOM     24  C   UNL     1      -1.774  -0.766  25.878  0.00  0.00    +0.115 A 
ATOM     25  C   UNL     1      -1.647  -2.973  24.278  0.00  0.00    +0.020 A 
ATOM     26  C   UNL     1      -0.543  -2.465  24.943  0.00  0.00    +0.111 A 
ENDBRANCH  18  20
ENDBRANCH   7  18
ENDBRANCH  14  16
ENDBRANCH  12  14
BRANCH  13  15
ATOM     15  C   UNL     1      -0.840   1.947  24.207  0.00  0.00    +0.140 C 
BRANCH  15   6
ATOM      5  O   UNL     1       0.722  -0.050  22.829  0.00  0.00    -0.253 OA
ATOM      6  N   UNL     1       0.589   1.868  24.133  0.00  0.00    -0.297 N 
ATOM      8  N   UNL     1       2.653   1.027  23.530  0.00  0.00    -0.297 N 
ATOM     17  C   UNL     1       1.273   0.864  23.441  0.00  0.00    +0.300 C 
ATOM     29  H   UNL     1       1.133   2.589  24.597  0.00  0.00    +0.150 HD
ATOM     31  H   UNL     1       3.014   1.770  24.121  0.00  0.00    +0.150 HD
BRANCH   8  19
ATOM     19  C   UNL     1       3.591   0.125  22.904  0.00  0.00    +0.068 C 
ATOM     21  C   UNL     1       4.980   0.305  23.503  0.00  0.00    +0.027 C 
ATOM     22  C   UNL     1       3.608   0.334  21.396  0.00  0.00    +0.027 C 
ENDBRANCH   8  19
ENDBRANCH  15   6
ENDBRANCH  13  15
TORSDOF 9
ENDMDL
MODEL 2
REMARK VINA RESULT:      -5.2      1.975      4.478
REMARK  Name = 40778248
REMARK  11 active torsions:
REMARK  status: ('A' for Active; 'I' for Inactive)
REMARK    1  A    between atoms: O_2  and  C_10
REMARK    2  A    between atoms: O_3  and  C_11
REMARK    3  A    between atoms: N_6  and  C_15
REMARK    4  A    between atoms: N_7  and  C_18
REMARK    5  A    between atoms: N_8  and  C_19
REMARK    6  A    between atoms: C_12  and  C_14
REMARK    7  A    between atoms: C_13  and  C_15
REMARK    8  A    between atoms: C_14  and  C_16
REMARK    9  A    between atoms: C_18  and  C_20
REMARK   10  A    between atoms: C_19  and  C_21
REMARK   11  A    between atoms: C_19  and  C_22
REMARK                            x       y       z     vdW  Elec       q    Type
REMARK                         _______ _______ _______ _____ _____    ______ ____
ROOT
ATOM      1  O   UNL     1      -2.931   0.196  25.357  0.00  0.00    -0.366 OA
ATOM     10  C   UNL     1      -3.803  -1.379  23.834  0.00  0.00    +0.175 C 
ATOM     11  C   UNL     1      -2.408  -1.826  24.218  0.00  0.00    +0.176 C 
ATOM     12  C   UNL     1      -4.157  -0.460  24.991  0.00  0.00    +0.158 C 
ATOM     13  C   UNL     1      -1.819  -0.552  24.813  0.00  0.00    +0.167 C 
ENDROOT
BRANCH  10   2
ATOM      2  O   UNL     1      -4.719  -2.446  23.706  0.00  0.00    -0.387 OA
ATOM     27  H   UNL     1      -5.206  -2.313  22.876  0.00  0.00    +0.210 HD
ENDBRANCH  10   2
BRANCH  11   3
ATOM      3  O   UNL     1      -2.470  -2.809  25.250  0.00  0.00    -0.387 OA
ATOM     28  H   UNL     1      -3.002  -2.438  25.974  0.00  0.00    +0.210 HD
ENDBRANCH  11   3
BRANCH  12  14
ATOM     14  C   UNL     1      -5.208   0.579  24.637  0.00  0.00    +0.130 C 
BRANCH  14  16
ATOM      4  O   UNL     1      -4.305   2.508  23.492  0.00  0.00    -0.276 OA
ATOM      7  N   UNL     1      -4.537   2.569  25.803  0.00  0.00    -0.311 N 
ATOM     16  C   UNL     1      -4.635   1.981  24.551  0.00  0.00    +0.216 C 
ATOM     30  H   UNL     1      -4.851   2.051  26.619  0.00  0.00    +0.149 HD
BRANCH   7  18
ATOM     18  C   UNL     1      -4.022   3.902  26.011  0.00  0.00    +0.141 C 
BRANCH  18  20
ATOM      9  N   UNL     1      -0.343   3.038  25.856  0.00  0.00    -0.263 NA
ATOM     20  C   UNL     1      -2.558   3.994  25.691  0.00  0.00    -0.012 A 
ATOM     23  C   UNL     1      -2.049   5.067  24.967  0.00  0.00    +0.008 A 
ATOM     24  C   UNL     1      -1.671   3.015  26.108  0.00  0.00    +0.115 A 
ATOM     25  C   UNL     1      -0.687   5.125  24.687  0.00  0.00    +0.020 A 
ATOM     26  C   UNL     1       0.115   4.095  25.149  0.00  0.00    +0.111 A 
ENDBRANCH  18  20
ENDBRANCH   7  18
ENDBRANCH  14  16
ENDBRANCH  12  14
BRANCH  13  15
ATOM     15  C   UNL     1      -1.129   0.326  23.778  0.00  0.00    +0.140 C 
BRANCH  15   6
ATOM      5  O   UNL     1       1.043  -0.331  21.996  0.00  0.00    -0.253 OA
ATOM      6  N   UNL     1       0.274   0.441  24.048  0.00  0.00    -0.297 N 
ATOM      8  N   UNL     1       2.544   0.310  23.646  0.00  0.00    -0.297 N 
ATOM     17  C   UNL     1       1.269   0.100  23.126  0.00  0.00    +0.300 C 
ATOM     29  H   UNL     1       0.560   0.802  24.953  0.00  0.00    +0.150 HD
ATOM     31  H   UNL     1       2.629   0.598  24.616  0.00  0.00    +0.150 HD
BRANCH   8  19
ATOM     19  C   UNL     1       3.748   0.036  22.898  0.00  0.00    +0.068 C 
ATOM     21  C   UNL     1       4.761  -0.693  23.772  0.00  0.00    +0.027 C 
ATOM     22  C   UNL     1       4.333   1.325  22.334  0.00  0.00    +0.027 C 
ENDBRANCH   8  19
ENDBRANCH  15   6
ENDBRANCH  13  15
TORSDOF 9
ENDMDL
MODEL 3
REMARK VINA RESULT:      -4.8      2.270      6.131
REMARK  Name = 40778248
REMARK  11 active torsions:
REMARK  status: ('A' for Active; 'I' for Inactive)
REMARK    1  A    between atoms: O_2  and  C_10
REMARK    2  A    between atoms: O_3  and  C_11
REMARK    3  A    between atoms: N_6  and  C_15
REMARK    4  A    between atoms: N_7  and  C_18
REMARK    5  A    between atoms: N_8  and  C_19
REMARK    6  A    between atoms: C_12  and  C_14
REMARK    7  A    between atoms: C_13  and  C_15
REMARK    8  A    between atoms: C_14  and  C_16
REMARK    9  A    between atoms: C_18  and  C_20
REMARK   10  A    between atoms: C_19  and  C_21
REMARK   11  A    between atoms: C_19  and  C_22
REMARK                            x       y       z     vdW  Elec       q    Type
REMARK                         _______ _______ _______ _____ _____    ______ ____
ROOT
ATOM      1  O   UNL     1      -2.663  -0.109  23.817  0.00  0.00    -0.366 OA
ATOM     10  C   UNL     1      -3.287  -1.783  25.357  0.00  0.00    +0.175 C 
ATOM     11  C   UNL     1      -4.481  -1.499  24.469  0.00  0.00    +0.176 C 
ATOM     12  C   UNL     1      -2.143  -1.260  24.504  0.00  0.00    +0.158 C 
ATOM     13  C   UNL     1      -4.109  -0.152  23.858  0.00  0.00    +0.167 C 
ENDROOT
BRANCH  10   2
ATOM      2  O   UNL     1      -3.133  -3.151  25.667  0.00  0.00    -0.387 OA
ATOM     27  H   UNL     1      -2.232  -3.408  25.408  0.00  0.00    +0.210 HD
ENDBRANCH  10   2
BRANCH  11   3
ATOM      3  O   UNL     1      -4.555  -2.458  23.416  0.00  0.00    -0.387 OA
ATOM     28  H   UNL     1      -5.483  -2.736  23.341  0.00  0.00    +0.210 HD
ENDBRANCH  11   3
BRANCH  12  14
ATOM     14  C   UNL     1      -0.919  -0.864  25.312  0.00  0.00    +0.130 C 
BRANCH  14  16
ATOM      4  O   UNL     1       0.221   1.225  24.883  0.00  0.00    -0.276 OA
ATOM      7  N   UNL     1       0.568  -0.570  23.449  0.00  0.00    -0.311 N 
ATOM     16  C   UNL     1       0.008   0.062  24.550  0.00  0.00    +0.216 C 
ATOM     30  H   UNL     1       0.336  -1.543  23.266  0.00  0.00    +0.149 HD
BRANCH   7  18
ATOM     18  C   UNL     1       1.487   0.083  22.546  0.00  0.00    +0.141 C 
BRANCH  18  20
ATOM      9  N   UNL     1       4.637  -1.485  23.934  0.00  0.00    -0.263 NA
ATOM     20  C   UNL     1       2.914  -0.079  22.984  0.00  0.00    -0.012 A 
ATOM     23  C   UNL     1       3.823   0.967  22.865  0.00  0.00    +0.008 A 
ATOM     24  C   UNL     1       3.368  -1.274  23.520  0.00  0.00    +0.115 A 
ATOM     25  C   UNL     1       5.139   0.788  23.280  0.00  0.00    +0.020 A 
ATOM     26  C   UNL     1       5.492  -0.446  23.802  0.00  0.00    +0.111 A 
ENDBRANCH  18  20
ENDBRANCH   7  18
ENDBRANCH  14  16
ENDBRANCH  12  14
BRANCH  13  15
ATOM     15  C   UNL     1      -4.587   1.032  24.687  0.00  0.00    +0.140 C 
BRANCH  15   6
ATOM      5  O   UNL     1      -3.272   3.419  23.737  0.00  0.00    -0.253 OA
ATOM      6  N   UNL     1      -3.486   1.713  25.301  0.00  0.00    -0.297 N 
ATOM      8  N   UNL     1      -1.853   3.324  25.570  0.00  0.00    -0.297 N 
ATOM     17  C   UNL     1      -2.902   2.870  24.774  0.00  0.00    +0.300 C 
ATOM     29  H   UNL     1      -3.118   1.343  26.172  0.00  0.00    +0.150 HD
ATOM     31  H   UNL     1      -1.574   2.761  26.368  0.00  0.00    +0.150 HD
BRANCH   8  19
ATOM     19  C   UNL     1      -1.081   4.502  25.251  0.00  0.00    +0.068 C 
ATOM     21  C   UNL     1      -1.991   5.720  25.150  0.00  0.00    +0.027 C 
ATOM     22  C   UNL     1      -0.294   4.293  23.964  0.00  0.00    +0.027 C 
ENDBRANCH   8  19
ENDBRANCH  15   6
ENDBRANCH  13  15
TORSDOF 9
ENDMDL
MODEL 4
REMARK VINA RESULT:      -4.8      1.588      5.685
REMARK  Name = 40778248
REMARK  11 active torsions:
REMARK  status: ('A' for Active; 'I' for Inactive)
REMARK    1  A    between atoms: O_2  and  C_10
REMARK    2  A    between atoms: O_3  and  C_11
REMARK    3  A    between atoms: N_6  and  C_15
REMARK    4  A    between atoms: N_7  and  C_18
REMARK    5  A    between atoms: N_8  and  C_19
REMARK    6  A    between atoms: C_12  and  C_14
REMARK    7  A    between atoms: C_13  and  C_15
REMARK    8  A    between atoms: C_14  and  C_16
REMARK    9  A    between atoms: C_18  and  C_20
REMARK   10  A    between atoms: C_19  and  C_21
REMARK   11  A    between atoms: C_19  and  C_22
REMARK                            x       y       z     vdW  Elec       q    Type
REMARK                         _______ _______ _______ _____ _____    ______ ____
ROOT
ATOM      1  O   UNL     1      -2.522   3.033  26.091  0.00  0.00    -0.366 OA
ATOM     10  C   UNL     1      -1.084   3.434  24.265  0.00  0.00    +0.175 C 
ATOM     11  C   UNL     1      -1.995   4.635  24.412  0.00  0.00    +0.176 C 
ATOM     12  C   UNL     1      -1.170   2.815  25.650  0.00  0.00    +0.158 C 
ATOM     13  C   UNL     1      -3.115   4.080  25.286  0.00  0.00    +0.167 C 
ENDROOT
BRANCH  10   2
ATOM      2  O   UNL     1       0.241   3.776  23.919  0.00  0.00    -0.387 OA
ATOM     27  H   UNL     1       0.559   4.412  24.582  0.00  0.00    +0.210 HD
ENDBRANCH  10   2
BRANCH  11   3
ATOM      3  O   UNL     1      -1.337   5.670  25.141  0.00  0.00    -0.387 OA
ATOM     28  H   UNL     1      -1.183   6.406  24.525  0.00  0.00    +0.210 HD
ENDBRANCH  11   3
BRANCH  12  14
ATOM     14  C   UNL     1      -0.860   1.328  25.667  0.00  0.00    +0.130 C 
BRANCH  14  16
ATOM      4  O   UNL     1      -1.264   0.402  23.470  0.00  0.00    -0.276 OA
ATOM      7  N   UNL     1       0.921   0.830  24.135  0.00  0.00    -0.311 N 
ATOM     16  C   UNL     1      -0.456   0.801  24.304  0.00  0.00    +0.216 C 
ATOM     30  H   UNL     1       1.504   1.193  24.884  0.00  0.00    +0.149 HD
BRANCH   7  18
ATOM     18  C   UNL     1       1.577   0.382  22.929  0.00  0.00    +0.141 C 
BRANCH  18  20
ATOM      9  N   UNL     1       4.669  -1.598  23.837  0.00  0.00    -0.263 NA
ATOM     20  C   UNL     1       3.019   0.038  23.170  0.00  0.00    -0.012 A 
ATOM     23  C   UNL     1       4.023   0.979  22.969  0.00  0.00    +0.008 A 
ATOM     24  C   UNL     1       3.392  -1.225  23.601  0.00  0.00    +0.115 A 
ATOM     25  C   UNL     1       5.350   0.632  23.202  0.00  0.00    +0.020 A 
ATOM     26  C   UNL     1       5.618  -0.658  23.630  0.00  0.00    +0.111 A 
ENDBRANCH  18  20
ENDBRANCH   7  18
ENDBRANCH  14  16
ENDBRANCH  12  14
BRANCH  13  15
ATOM     15  C   UNL     1      -4.249   3.461  24.481  0.00  0.00    +0.140 C 
BRANCH  15   6
ATOM      5  O   UNL     1      -5.116   1.002  25.718  0.00  0.00    -0.253 OA
ATOM      6  N   UNL     1      -3.925   2.127  24.070  0.00  0.00    -0.297 N 
ATOM      8  N   UNL     1      -3.924  -0.182  24.118  0.00  0.00    -0.297 N 
ATOM     17  C   UNL     1      -4.388   0.982  24.727  0.00  0.00    +0.300 C 
ATOM     29  H   UNL     1      -3.338   2.007  23.250  0.00  0.00    +0.150 HD
ATOM     31  H   UNL     1      -3.266  -0.095  23.349  0.00  0.00    +0.150 HD
BRANCH   8  19
ATOM     19  C   UNL     1      -4.255  -1.502  24.600  0.00  0.00    +0.068 C 
ATOM     21  C   UNL     1      -3.278  -1.930  25.687  0.00  0.00    +0.027 C 
ATOM     22  C   UNL     1      -4.274  -2.502  23.450  0.00  0.00    +0.027 C 
ENDBRANCH   8  19
ENDBRANCH  15   6
ENDBRANCH  13  15
TORSDOF 9
ENDMDL
MODEL 5
REMARK VINA RESULT:      -1.7      2.605      3.076
REMARK  Name = 40778248
REMARK  11 active torsions:
REMARK  status: ('A' for Active; 'I' for Inactive)
REMARK    1  A    between atoms: O_2  and  C_10
REMARK    2  A    between atoms: O_3  and  C_11
REMARK    3  A    between atoms: N_6  and  C_15
REMARK    4  A    between atoms: N_7  and  C_18
REMARK    5  A    between atoms: N_8  and  C_19
REMARK    6  A    between atoms: C_12  and  C_14
REMARK    7  A    between atoms: C_13  and  C_15
REMARK    8  A    between atoms: C_14  and  C_16
REMARK    9  A    between atoms: C_18  and  C_20
REMARK   10  A    between atoms: C_19  and  C_21
REMARK   11  A    between atoms: C_19  and  C_22
REMARK                            x       y       z     vdW  Elec       q    Type
REMARK                         _______ _______ _______ _____ _____    ______ ____
ROOT
ATOM      1  O   UNL     1      -3.545   3.175  24.253  0.00  0.00    -0.366 OA
ATOM     10  C   UNL     1      -3.074   4.384  26.221  0.00  0.00    +0.175 C 
ATOM     11  C   UNL     1      -1.915   4.581  25.266  0.00  0.00    +0.176 C 
ATOM     12  C   UNL     1      -4.183   3.964  25.271  0.00  0.00    +0.158 C 
ATOM     13  C   UNL     1      -2.123   3.440  24.275  0.00  0.00    +0.167 C 
ENDROOT
BRANCH  10   2
ATOM      2  O   UNL     1      -3.409   5.551  26.942  0.00  0.00    -0.387 OA
ATOM     27  H   UNL     1      -4.379   5.611  26.963  0.00  0.00    +0.210 HD
ENDBRANCH  10   2
BRANCH  11   3
ATOM      3  O   UNL     1      -2.058   5.812  24.559  0.00  0.00    -0.387 OA
ATOM     28  H   UNL     1      -3.011   5.974  24.449  0.00  0.00    +0.210 HD
ENDBRANCH  11   3
BRANCH  12  14
ATOM     14  C   UNL     1      -5.275   3.148  25.942  0.00  0.00    +0.130 C 
BRANCH  14  16
ATOM      4  O   UNL     1      -6.589   1.785  24.437  0.00  0.00    -0.276 OA
ATOM      7  N   UNL     1      -4.687   0.879  25.417  0.00  0.00    -0.311 N 
ATOM     16  C   UNL     1      -5.612   1.884  25.175  0.00  0.00    +0.216 C 
ATOM     30  H   UNL     1      -3.903   1.067  26.037  0.00  0.00    +0.149 HD
BRANCH   7  18
ATOM     18  C   UNL     1      -4.770  -0.432  24.817  0.00  0.00    +0.141 C 
BRANCH  18  20
ATOM      9  N   UNL     1      -1.193  -1.275  25.709  0.00  0.00    -0.263 NA
ATOM     20  C   UNL     1      -3.455  -1.155  24.864  0.00  0.00    -0.012 A 
ATOM     23  C   UNL     1      -3.256  -2.328  24.143  0.00  0.00    +0.008 A 
ATOM     24  C   UNL     1      -2.400  -0.675  25.624  0.00  0.00    +0.115 A 
ATOM     25  C   UNL     1      -2.026  -2.975  24.205  0.00  0.00    +0.020 A 
ATOM     26  C   UNL     1      -1.037  -2.413  24.996  0.00  0.00    +0.111 A 
ENDBRANCH  18  20
ENDBRANCH   7  18
ENDBRANCH  14  16
ENDBRANCH  12  14
BRANCH  13  15
ATOM     15  C   UNL     1      -1.417   2.156  24.688  0.00  0.00    +0.140 C 
BRANCH  15   6
ATOM      5  O   UNL     1       1.216   2.291  25.862  0.00  0.00    -0.253 OA
ATOM      6  N   UNL     1      -1.094   2.168  26.085  0.00  0.00    -0.297 N 
ATOM      8  N   UNL     1       0.243   2.233  27.967  0.00  0.00    -0.297 N 
ATOM     17  C   UNL     1       0.215   2.235  26.574  0.00  0.00    +0.300 C 
ATOM     29  H   UNL     1      -1.857   2.138  26.754  0.00  0.00    +0.150 HD
ATOM     31  H   UNL     1      -0.633   2.108  28.467  0.00  0.00    +0.150 HD
BRANCH   8  19
ATOM     19  C   UNL     1       1.469   2.295  28.725  0.00  0.00    +0.068 C 
ATOM     21  C   UNL     1       1.167   2.366  30.217  0.00  0.00    +0.027 C 
ATOM     22  C   UNL     1       2.316   3.479  28.277  0.00  0.00    +0.027 C 
ENDBRANCH   8  19
ENDBRANCH  15   6
ENDBRANCH  13  15
TORSDOF 9
ENDMDL
