MODEL 1
REMARK VINA RESULT:      14.1      0.000      0.000
REMARK  Name = 40777592
REMARK  9 active torsions:
REMARK  status: ('A' for Active; 'I' for Inactive)
REMARK    1  A    between atoms: O_4  and  C_32
REMARK    2  A    between atoms: O_4  and  C_33
REMARK    3  A    between atoms: N_5  and  C_12
REMARK    4  A    between atoms: N_6  and  C_20
REMARK    5  A    between atoms: N_8  and  C_26
REMARK    6  A    between atoms: N_9  and  C_22
REMARK    7  A    between atoms: C_10  and  C_13
REMARK    8  A    between atoms: C_16  and  C_18
REMARK    9  A    between atoms: C_17  and  C_19
REMARK                            x       y       z     vdW  Elec       q    Type
REMARK                         _______ _______ _______ _____ _____    ______ ____
ROOT
ATOM     10  C   UNL     1      -0.204   0.242  24.555  0.00  0.00    +0.047 C 
ATOM     11  C   UNL     1       0.206  -0.577  23.313  0.00  0.00    +0.039 C 
ATOM     12  C   UNL     1       1.424   0.140  22.720  0.00  0.00    +0.098 C 
ATOM     14  C   UNL     1       0.409   1.583  24.271  0.00  0.00    -0.021 C 
ATOM     15  C   UNL     1       1.298   1.521  23.274  0.00  0.00    -0.009 C 
ENDROOT
BRANCH  10  13
ATOM      6  N   UNL     1      -3.745   0.864  25.256  0.00  0.00    -0.234 N 
ATOM      7  N   UNL     1      -3.865  -0.436  24.935  0.00  0.00    -0.171 NA
ATOM     13  C   UNL     1      -1.696   0.266  24.789  0.00  0.00    +0.003 A 
ATOM     16  C   UNL     1      -2.466   1.333  25.185  0.00  0.00    +0.046 A 
ATOM     17  C   UNL     1      -2.610  -0.796  24.651  0.00  0.00    +0.064 A 
ATOM     18  C   UNL     1      -2.098   2.730  25.491  0.00  0.00    +0.066 C 
ATOM     19  C   UNL     1      -2.328  -2.183  24.245  0.00  0.00    +0.068 C 
BRANCH   6  20
ATOM     20  C   UNL     1      -4.877   1.594  25.619  0.00  0.00    +0.096 A 
ATOM     22  C   UNL     1      -5.178   2.814  25.014  0.00  0.00    +0.151 A 
ATOM     23  C   UNL     1      -5.714   1.081  26.610  0.00  0.00    +0.030 A 
ATOM     24  C   UNL     1      -6.316   3.521  25.401  0.00  0.00    +0.035 A 
ATOM     25  C   UNL     1      -6.851   1.790  26.997  0.00  0.00    +0.002 A 
ATOM     27  C   UNL     1      -7.154   3.010  26.392  0.00  0.00    +0.002 A 
BRANCH  22   9
ATOM      2  O   UNL     1      -4.173   2.716  22.941  0.00  0.00    -0.126 OA
ATOM      3  O   UNL     1      -3.807   4.478  24.197  0.00  0.00    -0.126 OA
ATOM      9  N   UNL     1      -4.343   3.364  23.999  0.00  0.00    +0.059 N 
ENDBRANCH  22   9
ENDBRANCH   6  20
ENDBRANCH  10  13
BRANCH  12   5
ATOM      1  O   UNL     1       4.051   1.109  22.115  0.00  0.00    -0.252 OA
ATOM      5  N   UNL     1       2.671  -0.430  23.154  0.00  0.00    -0.293 N 
ATOM      8  N   UNL     1       4.951  -0.655  23.375  0.00  0.00    -0.269 N 
ATOM     21  C   UNL     1       3.922   0.106  22.813  0.00  0.00    +0.304 C 
ATOM     34  H   UNL     1       2.654  -1.290  23.695  0.00  0.00    +0.151 HD
ATOM     35  H   UNL     1       4.673  -1.459  23.931  0.00  0.00    +0.156 HD
BRANCH   8  26
ATOM     26  C   UNL     1       6.345  -0.444  23.267  0.00  0.00    +0.035 A 
ATOM     28  C   UNL     1       7.126  -1.319  22.509  0.00  0.00    +0.027 A 
ATOM     29  C   UNL     1       6.940   0.637  23.916  0.00  0.00    +0.027 A 
ATOM     30  C   UNL     1       8.501  -1.110  22.402  0.00  0.00    +0.047 A 
ATOM     31  C   UNL     1       8.315   0.845  23.809  0.00  0.00    +0.047 A 
ATOM     32  C   UNL     1       9.096  -0.028  23.051  0.00  0.00    +0.120 A 
BRANCH  32   4
ATOM      4  O   UNL     1      10.437   0.175  22.945  0.00  0.00    -0.495 OA
ATOM     33  C   UNL     1      10.885   1.013  21.880  0.00  0.00    +0.277 C 
ENDBRANCH  32   4
ENDBRANCH   8  26
ENDBRANCH  12   5
TORSDOF 6
ENDMDL
MODEL 2
REMARK VINA RESULT:      14.9      1.566      2.493
REMARK  Name = 40777592
REMARK  9 active torsions:
REMARK  status: ('A' for Active; 'I' for Inactive)
REMARK    1  A    between atoms: O_4  and  C_32
REMARK    2  A    between atoms: O_4  and  C_33
REMARK    3  A    between atoms: N_5  and  C_12
REMARK    4  A    between atoms: N_6  and  C_20
REMARK    5  A    between atoms: N_8  and  C_26
REMARK    6  A    between atoms: N_9  and  C_22
REMARK    7  A    between atoms: C_10  and  C_13
REMARK    8  A    between atoms: C_16  and  C_18
REMARK    9  A    between atoms: C_17  and  C_19
REMARK                            x       y       z     vdW  Elec       q    Type
REMARK                         _______ _______ _______ _____ _____    ______ ____
ROOT
ATOM     10  C   UNL     1       0.584   1.119  24.542  0.00  0.00    +0.047 C 
ATOM     11  C   UNL     1       0.452  -0.391  24.250  0.00  0.00    +0.039 C 
ATOM     12  C   UNL     1       1.281  -0.648  22.986  0.00  0.00    +0.098 C 
ATOM     14  C   UNL     1       0.978   1.671  23.203  0.00  0.00    -0.021 C 
ATOM     15  C   UNL     1       1.360   0.706  22.361  0.00  0.00    -0.009 C 
ENDROOT
BRANCH  10  13
ATOM      6  N   UNL     1      -2.722   2.369  25.505  0.00  0.00    -0.234 N 
ATOM      7  N   UNL     1      -2.048   2.848  26.565  0.00  0.00    -0.171 NA
ATOM     13  C   UNL     1      -0.669   1.725  25.132  0.00  0.00    +0.003 A 
ATOM     16  C   UNL     1      -1.941   1.689  24.617  0.00  0.00    +0.046 A 
ATOM     17  C   UNL     1      -0.794   2.451  26.331  0.00  0.00    +0.064 A 
ATOM     18  C   UNL     1      -2.466   1.075  23.381  0.00  0.00    +0.066 C 
ATOM     19  C   UNL     1       0.265   2.792  27.297  0.00  0.00    +0.068 C 
BRANCH   6  20
ATOM     20  C   UNL     1      -4.095   2.594  25.399  0.00  0.00    +0.096 A 
ATOM     22  C   UNL     1      -4.994   1.537  25.253  0.00  0.00    +0.151 A 
ATOM     23  C   UNL     1      -4.563   3.908  25.438  0.00  0.00    +0.030 A 
ATOM     24  C   UNL     1      -6.361   1.795  25.148  0.00  0.00    +0.035 A 
ATOM     25  C   UNL     1      -5.930   4.164  25.331  0.00  0.00    +0.002 A 
ATOM     27  C   UNL     1      -6.829   3.108  25.187  0.00  0.00    +0.002 A 
BRANCH  22   9
ATOM      2  O   UNL     1      -3.983  -0.297  26.218  0.00  0.00    -0.126 OA
ATOM      3  O   UNL     1      -4.735  -0.478  24.163  0.00  0.00    -0.126 OA
ATOM      9  N   UNL     1      -4.548   0.185  25.209  0.00  0.00    +0.059 N 
ENDBRANCH  22   9
ENDBRANCH   6  20
ENDBRANCH  10  13
BRANCH  12   5
ATOM      1  O   UNL     1       3.726   0.775  22.535  0.00  0.00    -0.252 OA
ATOM      5  N   UNL     1       2.611  -1.111  23.278  0.00  0.00    -0.293 N 
ATOM      8  N   UNL     1       4.908  -1.055  23.410  0.00  0.00    -0.269 N 
ATOM     21  C   UNL     1       3.763  -0.352  23.026  0.00  0.00    +0.304 C 
ATOM     34  H   UNL     1       2.733  -2.052  23.641  0.00  0.00    +0.151 HD
ATOM     35  H   UNL     1       4.764  -1.981  23.803  0.00  0.00    +0.156 HD
BRANCH   8  26
ATOM     26  C   UNL     1       6.256  -0.636  23.320  0.00  0.00    +0.035 A 
ATOM     28  C   UNL     1       6.674   0.517  23.987  0.00  0.00    +0.027 A 
ATOM     29  C   UNL     1       7.167  -1.374  22.566  0.00  0.00    +0.027 A 
ATOM     30  C   UNL     1       8.003   0.931  23.899  0.00  0.00    +0.047 A 
ATOM     31  C   UNL     1       8.497  -0.960  22.478  0.00  0.00    +0.047 A 
ATOM     32  C   UNL     1       8.915   0.192  23.144  0.00  0.00    +0.120 A 
BRANCH  32   4
ATOM      4  O   UNL     1      10.212   0.595  23.059  0.00  0.00    -0.495 OA
ATOM     33  C   UNL     1      10.572   1.389  21.929  0.00  0.00    +0.277 C 
ENDBRANCH  32   4
ENDBRANCH   8  26
ENDBRANCH  12   5
TORSDOF 6
ENDMDL
MODEL 3
REMARK VINA RESULT:      15.7      1.574      2.014
REMARK  Name = 40777592
REMARK  9 active torsions:
REMARK  status: ('A' for Active; 'I' for Inactive)
REMARK    1  A    between atoms: O_4  and  C_32
REMARK    2  A    between atoms: O_4  and  C_33
REMARK    3  A    between atoms: N_5  and  C_12
REMARK    4  A    between atoms: N_6  and  C_20
REMARK    5  A    between atoms: N_8  and  C_26
REMARK    6  A    between atoms: N_9  and  C_22
REMARK    7  A    between atoms: C_10  and  C_13
REMARK    8  A    between atoms: C_16  and  C_18
REMARK    9  A    between atoms: C_17  and  C_19
REMARK                            x       y       z     vdW  Elec       q    Type
REMARK                         _______ _______ _______ _____ _____    ______ ____
ROOT
ATOM     10  C   UNL     1      -0.404   0.536  24.385  0.00  0.00    +0.047 C 
ATOM     11  C   UNL     1      -0.264  -0.993  24.234  0.00  0.00    +0.039 C 
ATOM     12  C   UNL     1       0.764  -1.213  23.118  0.00  0.00    +0.098 C 
ATOM     14  C   UNL     1       0.087   1.035  23.057  0.00  0.00    -0.021 C 
ATOM     15  C   UNL     1       0.725   0.081  22.373  0.00  0.00    -0.009 C 
ENDROOT
BRANCH  10  13
ATOM      6  N   UNL     1      -3.603   2.142  25.163  0.00  0.00    -0.234 N 
ATOM      7  N   UNL     1      -3.997   0.874  25.376  0.00  0.00    -0.171 NA
ATOM     13  C   UNL     1      -1.803   0.976  24.747  0.00  0.00    +0.003 A 
ATOM     16  C   UNL     1      -2.297   2.257  24.785  0.00  0.00    +0.046 A 
ATOM     17  C   UNL     1      -2.893   0.167  25.120  0.00  0.00    +0.064 A 
ATOM     18  C   UNL     1      -1.649   3.551  24.496  0.00  0.00    +0.066 C 
ATOM     19  C   UNL     1      -2.928  -1.300  25.246  0.00  0.00    +0.068 C 
BRANCH   6  20
ATOM     20  C   UNL     1      -4.510   3.187  25.337  0.00  0.00    +0.096 A 
ATOM     22  C   UNL     1      -5.855   2.942  25.617  0.00  0.00    +0.151 A 
ATOM     23  C   UNL     1      -4.049   4.499  25.224  0.00  0.00    +0.030 A 
ATOM     24  C   UNL     1      -6.738   4.008  25.784  0.00  0.00    +0.035 A 
ATOM     25  C   UNL     1      -4.934   5.565  25.389  0.00  0.00    +0.002 A 
ATOM     27  C   UNL     1      -6.278   5.321  25.670  0.00  0.00    +0.002 A 
BRANCH  22   9
ATOM      2  O   UNL     1      -6.536   1.139  26.884  0.00  0.00    -0.126 OA
ATOM      3  O   UNL     1      -6.602   0.964  24.697  0.00  0.00    -0.126 OA
ATOM      9  N   UNL     1      -6.356   1.614  25.738  0.00  0.00    +0.059 N 
ENDBRANCH  22   9
ENDBRANCH   6  20
ENDBRANCH  10  13
BRANCH  12   5
ATOM      1  O   UNL     1       3.138   0.182  22.328  0.00  0.00    -0.252 OA
ATOM      5  N   UNL     1       2.094  -1.428  23.621  0.00  0.00    -0.293 N 
ATOM      8  N   UNL     1       4.365  -1.125  23.845  0.00  0.00    -0.269 N 
ATOM     21  C   UNL     1       3.210  -0.700  23.181  0.00  0.00    +0.304 C 
ATOM     34  H   UNL     1       2.249  -2.173  24.294  0.00  0.00    +0.151 HD
ATOM     35  H   UNL     1       4.251  -1.870  24.527  0.00  0.00    +0.156 HD
BRANCH   8  26
ATOM     26  C   UNL     1       5.685  -0.643  23.685  0.00  0.00    +0.035 A 
ATOM     28  C   UNL     1       6.614  -1.384  22.954  0.00  0.00    +0.027 A 
ATOM     29  C   UNL     1       6.058   0.573  24.256  0.00  0.00    +0.027 A 
ATOM     30  C   UNL     1       7.916  -0.909  22.795  0.00  0.00    +0.047 A 
ATOM     31  C   UNL     1       7.359   1.049  24.097  0.00  0.00    +0.047 A 
ATOM     32  C   UNL     1       8.289   0.308  23.367  0.00  0.00    +0.120 A 
BRANCH  32   4
ATOM      4  O   UNL     1       9.558   0.772  23.211  0.00  0.00    -0.495 OA
ATOM     33  C   UNL     1      10.473  -0.064  22.502  0.00  0.00    +0.277 C 
ENDBRANCH  32   4
ENDBRANCH   8  26
ENDBRANCH  12   5
TORSDOF 6
ENDMDL
MODEL 4
REMARK VINA RESULT:      16.6      1.376      2.053
REMARK  Name = 40777592
REMARK  9 active torsions:
REMARK  status: ('A' for Active; 'I' for Inactive)
REMARK    1  A    between atoms: O_4  and  C_32
REMARK    2  A    between atoms: O_4  and  C_33
REMARK    3  A    between atoms: N_5  and  C_12
REMARK    4  A    between atoms: N_6  and  C_20
REMARK    5  A    between atoms: N_8  and  C_26
REMARK    6  A    between atoms: N_9  and  C_22
REMARK    7  A    between atoms: C_10  and  C_13
REMARK    8  A    between atoms: C_16  and  C_18
REMARK    9  A    between atoms: C_17  and  C_19
REMARK                            x       y       z     vdW  Elec       q    Type
REMARK                         _______ _______ _______ _____ _____    ______ ____
ROOT
ATOM     10  C   UNL     1       0.466   0.817  24.321  0.00  0.00    +0.047 C 
ATOM     11  C   UNL     1       0.389  -0.723  24.293  0.00  0.00    +0.039 C 
ATOM     12  C   UNL     1       1.115  -1.158  23.015  0.00  0.00    +0.098 C 
ATOM     14  C   UNL     1       0.710   1.152  22.878  0.00  0.00    -0.021 C 
ATOM     15  C   UNL     1       1.067   0.074  22.172  0.00  0.00    -0.009 C 
ENDROOT
BRANCH  10  13
ATOM      6  N   UNL     1      -2.803   2.095  25.372  0.00  0.00    -0.234 N 
ATOM      7  N   UNL     1      -2.066   2.751  26.285  0.00  0.00    -0.171 NA
ATOM     13  C   UNL     1      -0.760   1.467  24.921  0.00  0.00    +0.003 A 
ATOM     16  C   UNL     1      -2.068   1.312  24.531  0.00  0.00    +0.046 A 
ATOM     17  C   UNL     1      -0.819   2.363  26.005  0.00  0.00    +0.064 A 
ATOM     18  C   UNL     1      -2.665   0.500  23.452  0.00  0.00    +0.066 C 
ATOM     19  C   UNL     1       0.299   2.881  26.811  0.00  0.00    +0.068 C 
BRANCH   6  20
ATOM     20  C   UNL     1      -4.189   2.256  25.355  0.00  0.00    +0.096 A 
ATOM     22  C   UNL     1      -4.771   3.524  25.336  0.00  0.00    +0.151 A 
ATOM     23  C   UNL     1      -4.995   1.118  25.359  0.00  0.00    +0.030 A 
ATOM     24  C   UNL     1      -6.159   3.653  25.321  0.00  0.00    +0.035 A 
ATOM     25  C   UNL     1      -6.384   1.248  25.346  0.00  0.00    +0.002 A 
ATOM     27  C   UNL     1      -6.966   2.515  25.325  0.00  0.00    +0.002 A 
BRANCH  22   9
ATOM      2  O   UNL     1      -3.720   5.265  26.423  0.00  0.00    -0.126 OA
ATOM      3  O   UNL     1      -3.554   5.146  24.237  0.00  0.00    -0.126 OA
ATOM      9  N   UNL     1      -3.975   4.705  25.331  0.00  0.00    +0.059 N 
ENDBRANCH  22   9
ENDBRANCH   6  20
ENDBRANCH  10  13
BRANCH  12   5
ATOM      1  O   UNL     1       3.390   0.574  22.831  0.00  0.00    -0.252 OA
ATOM      5  N   UNL     1       2.489  -1.515  23.250  0.00  0.00    -0.293 N 
ATOM      8  N   UNL     1       4.766  -1.233  23.423  0.00  0.00    -0.269 N 
ATOM     21  C   UNL     1       3.551  -0.605  23.139  0.00  0.00    +0.304 C 
ATOM     34  H   UNL     1       2.713  -2.483  23.461  0.00  0.00    +0.151 HD
ATOM     35  H   UNL     1       4.725  -2.220  23.662  0.00  0.00    +0.156 HD
BRANCH   8  26
ATOM     26  C   UNL     1       6.060  -0.662  23.421  0.00  0.00    +0.035 A 
ATOM     28  C   UNL     1       7.093  -1.278  22.713  0.00  0.00    +0.027 A 
ATOM     29  C   UNL     1       6.303   0.517  24.124  0.00  0.00    +0.027 A 
ATOM     30  C   UNL     1       8.369  -0.714  22.710  0.00  0.00    +0.047 A 
ATOM     31  C   UNL     1       7.579   1.081  24.121  0.00  0.00    +0.047 A 
ATOM     32  C   UNL     1       8.612   0.466  23.414  0.00  0.00    +0.120 A 
BRANCH  32   4
ATOM      4  O   UNL     1       9.857   1.016  23.410  0.00  0.00    -0.495 OA
ATOM     33  C   UNL     1      10.003   2.297  24.021  0.00  0.00    +0.277 C 
ENDBRANCH  32   4
ENDBRANCH   8  26
ENDBRANCH  12   5
TORSDOF 6
ENDMDL
