MODEL 1
REMARK VINA RESULT:       5.9      0.000      0.000
REMARK  Name = 45783984
REMARK  16 active torsions:
REMARK  status: ('A' for Active; 'I' for Inactive)
REMARK    1  A    between atoms: O_2  and  C_26
REMARK    2  A    between atoms: O_2  and  C_29
REMARK    3  A    between atoms: N_3  and  C_13
REMARK    4  A    between atoms: N_4  and  C_25
REMARK    5  A    between atoms: N_7  and  C_34
REMARK    6  A    between atoms: N_7  and  C_35
REMARK    7  A    between atoms: N_7  and  C_36
REMARK    8  A    between atoms: C_8  and  C_12
REMARK    9  A    between atoms: C_9  and  C_13
REMARK   10  A    between atoms: C_11  and  C_16
REMARK   11  A    between atoms: C_12  and  C_17
REMARK   12  A    between atoms: C_12  and  C_18
REMARK   13  A    between atoms: C_15  and  C_21
REMARK   14  A    between atoms: C_16  and  C_24
REMARK   15  A    between atoms: C_25  and  C_26
REMARK   16  A    between atoms: C_27  and  C_28
REMARK                            x       y       z     vdW  Elec       q    Type
REMARK                         _______ _______ _______ _____ _____    ______ ____
ROOT
ATOM      8  C   UNL     1      -1.503   4.032  24.460  0.00  0.00    +0.000 C 
ATOM      9  C   UNL     1      -1.085   3.033  25.563  0.00  0.00    +0.029 C 
ATOM     10  C   UNL     1      -3.025   4.237  24.469  0.00  0.00    +0.012 C 
ATOM     11  C   UNL     1      -3.569   4.719  25.832  0.00  0.00    +0.024 C 
ATOM     14  C   UNL     1      -1.787   3.289  26.872  0.00  0.00    -0.023 C 
ATOM     15  C   UNL     1      -2.888   4.048  27.015  0.00  0.00    -0.073 C 
ATOM     21  C   UNL     1      -3.458   4.308  28.383  0.00  0.00    +0.039 C 
ENDROOT
BRANCH   8  12
ATOM     12  C   UNL     1      -0.763   5.369  24.604  0.00  0.00    -0.013 C 
ATOM     17  C   UNL     1       0.209   5.566  23.444  0.00  0.00    +0.007 C 
ATOM     18  C   UNL     1      -1.757   6.523  24.680  0.00  0.00    +0.007 C 
ENDBRANCH   8  12
BRANCH   9  13
ATOM     13  C   UNL     1      -1.329   1.583  25.136  0.00  0.00    +0.092 C 
BRANCH  13   3
ATOM      3  N   UNL     1      -0.093   0.973  24.650  0.00  0.00    -0.299 NA
ATOM      4  N   UNL     1       1.860   0.397  22.596  0.00  0.00    -0.298 NA
ATOM     19  C   UNL     1      -0.374   0.009  23.578  0.00  0.00    +0.100 C 
ATOM     20  C   UNL     1       0.847   1.999  24.182  0.00  0.00    +0.100 C 
ATOM     22  C   UNL     1       0.921  -0.629  23.064  0.00  0.00    +0.100 C 
ATOM     23  C   UNL     1       2.142   1.359  23.669  0.00  0.00    +0.100 C 
BRANCH   4  25
ATOM     25  C   UNL     1       3.095  -0.212  22.108  0.00  0.00    +0.112 C 
BRANCH  25  26
ATOM     26  C   UNL     1       4.297   0.640  22.480  0.00  0.00    +0.174 C 
BRANCH  26   2
ATOM      2  O   UNL     1       5.353  -0.214  22.897  0.00  0.00    -0.382 OA
ATOM     29  C   UNL     1       5.361  -0.385  24.307  0.00  0.00    +0.194 C 
ENDBRANCH  26   2
ENDBRANCH  25  26
ENDBRANCH   4  25
ENDBRANCH  13   3
ENDBRANCH   9  13
BRANCH  11  16
ATOM     16  C   UNL     1      -5.092   4.542  25.840  0.00  0.00    +0.105 C 
BRANCH  16  24
ATOM      1  O   UNL     1      -4.530   2.215  25.365  0.00  0.00    -0.420 OA
ATOM      5  N   UNL     1      -6.612   2.518  26.125  0.00  0.00    -0.112 NA
ATOM      6  N   UNL     1      -6.432   1.166  25.899  0.00  0.00    -0.107 NA
ATOM     24  C   UNL     1      -5.477   3.091  25.799  0.00  0.00    +0.218 A 
ATOM     27  C   UNL     1      -5.203   1.036  25.456  0.00  0.00    +0.248 A 
BRANCH  27  28
ATOM     28  C   UNL     1      -4.474  -0.135  25.063  0.00  0.00    +0.039 A 
ATOM     30  C   UNL     1      -3.545  -0.704  25.934  0.00  0.00    +0.015 A 
ATOM     31  C   UNL     1      -4.695  -0.705  23.810  0.00  0.00    +0.015 A 
ATOM     32  C   UNL     1      -2.837  -1.843  25.552  0.00  0.00    +0.024 A 
ATOM     33  C   UNL     1      -3.986  -1.845  23.427  0.00  0.00    +0.024 A 
ATOM     34  C   UNL     1      -3.058  -2.414  24.298  0.00  0.00    +0.029 A 
BRANCH  34   7
ATOM      7  N   UNL     1      -2.340  -3.565  23.911  0.00  0.00    -0.336 N 
ATOM     35  C   UNL     1      -0.975  -3.762  24.354  0.00  0.00    +0.129 C 
ATOM     36  C   UNL     1      -2.958  -4.560  23.058  0.00  0.00    +0.129 C 
ENDBRANCH  34   7
ENDBRANCH  27  28
ENDBRANCH  16  24
ENDBRANCH  11  16
TORSDOF 10
ENDMDL
MODEL 2
REMARK VINA RESULT:       6.8      2.369      5.436
REMARK  Name = 45783984
REMARK  16 active torsions:
REMARK  status: ('A' for Active; 'I' for Inactive)
REMARK    1  A    between atoms: O_2  and  C_26
REMARK    2  A    between atoms: O_2  and  C_29
REMARK    3  A    between atoms: N_3  and  C_13
REMARK    4  A    between atoms: N_4  and  C_25
REMARK    5  A    between atoms: N_7  and  C_34
REMARK    6  A    between atoms: N_7  and  C_35
REMARK    7  A    between atoms: N_7  and  C_36
REMARK    8  A    between atoms: C_8  and  C_12
REMARK    9  A    between atoms: C_9  and  C_13
REMARK   10  A    between atoms: C_11  and  C_16
REMARK   11  A    between atoms: C_12  and  C_17
REMARK   12  A    between atoms: C_12  and  C_18
REMARK   13  A    between atoms: C_15  and  C_21
REMARK   14  A    between atoms: C_16  and  C_24
REMARK   15  A    between atoms: C_25  and  C_26
REMARK   16  A    between atoms: C_27  and  C_28
REMARK                            x       y       z     vdW  Elec       q    Type
REMARK                         _______ _______ _______ _____ _____    ______ ____
ROOT
ATOM      8  C   UNL     1      -3.487  -1.164  25.286  0.00  0.00    +0.000 C 
ATOM      9  C   UNL     1      -2.151  -0.811  24.592  0.00  0.00    +0.029 C 
ATOM     10  C   UNL     1      -4.325   0.102  25.513  0.00  0.00    +0.012 C 
ATOM     11  C   UNL     1      -4.611   0.888  24.215  0.00  0.00    +0.024 C 
ATOM     14  C   UNL     1      -2.326   0.170  23.462  0.00  0.00    -0.023 C 
ATOM     15  C   UNL     1      -3.420   0.928  23.269  0.00  0.00    -0.073 C 
ATOM     21  C   UNL     1      -3.527   1.812  22.056  0.00  0.00    +0.039 C 
ENDROOT
BRANCH   8  12
ATOM     12  C   UNL     1      -4.273  -2.213  24.488  0.00  0.00    -0.013 C 
ATOM     17  C   UNL     1      -4.473  -1.747  23.049  0.00  0.00    +0.007 C 
ATOM     18  C   UNL     1      -3.558  -3.559  24.527  0.00  0.00    +0.007 C 
ENDBRANCH   8  12
BRANCH   9  13
ATOM     13  C   UNL     1      -1.126  -0.257  25.586  0.00  0.00    +0.092 C 
BRANCH  13   3
ATOM      3  N   UNL     1       0.176  -0.086  24.944  0.00  0.00    -0.299 NA
ATOM      4  N   UNL     1       1.898   0.130  22.630  0.00  0.00    -0.298 NA
ATOM     19  C   UNL     1       0.516  -1.262  24.133  0.00  0.00    +0.100 C 
ATOM     20  C   UNL     1       0.195   1.128  24.118  0.00  0.00    +0.100 C 
ATOM     22  C   UNL     1       1.879  -1.083  23.456  0.00  0.00    +0.100 C 
ATOM     23  C   UNL     1       1.560   1.307  23.442  0.00  0.00    +0.100 C 
BRANCH   4  25
ATOM     25  C   UNL     1       3.199   0.301  21.987  0.00  0.00    +0.112 C 
BRANCH  25  26
ATOM     26  C   UNL     1       4.191   0.941  22.945  0.00  0.00    +0.174 C 
BRANCH  26   2
ATOM      2  O   UNL     1       5.366   0.143  22.987  0.00  0.00    -0.382 OA
ATOM     29  C   UNL     1       5.446  -0.606  24.191  0.00  0.00    +0.194 C 
ENDBRANCH  26   2
ENDBRANCH  25  26
ENDBRANCH   4  25
ENDBRANCH  13   3
ENDBRANCH   9  13
BRANCH  11  16
ATOM     16  C   UNL     1      -5.122   2.284  24.590  0.00  0.00    +0.105 C 
BRANCH  16  24
ATOM      1  O   UNL     1      -3.040   2.544  25.838  0.00  0.00    -0.420 OA
ATOM      5  N   UNL     1      -3.826   4.446  24.961  0.00  0.00    -0.112 NA
ATOM      6  N   UNL     1      -2.653   4.737  25.633  0.00  0.00    -0.107 NA
ATOM     24  C   UNL     1      -4.012   3.155  25.107  0.00  0.00    +0.218 A 
ATOM     27  C   UNL     1      -2.231   3.598  26.129  0.00  0.00    +0.248 A 
BRANCH  27  28
ATOM     28  C   UNL     1      -1.068   3.299  26.915  0.00  0.00    +0.039 A 
ATOM     30  C   UNL     1      -1.177   3.167  28.300  0.00  0.00    +0.015 A 
ATOM     31  C   UNL     1       0.170   3.139  26.295  0.00  0.00    +0.015 A 
ATOM     32  C   UNL     1      -0.048   2.876  29.063  0.00  0.00    +0.024 A 
ATOM     33  C   UNL     1       1.300   2.847  27.059  0.00  0.00    +0.024 A 
ATOM     34  C   UNL     1       1.191   2.715  28.443  0.00  0.00    +0.029 A 
BRANCH  34   7
ATOM      7  N   UNL     1       2.334   2.422  29.216  0.00  0.00    -0.336 N 
ATOM     35  C   UNL     1       3.656   2.763  28.729  0.00  0.00    +0.129 C 
ATOM     36  C   UNL     1       2.202   1.769  30.503  0.00  0.00    +0.129 C 
ENDBRANCH  34   7
ENDBRANCH  27  28
ENDBRANCH  16  24
ENDBRANCH  11  16
TORSDOF 10
ENDMDL
MODEL 3
REMARK VINA RESULT:       6.9      2.577      5.478
REMARK  Name = 45783984
REMARK  16 active torsions:
REMARK  status: ('A' for Active; 'I' for Inactive)
REMARK    1  A    between atoms: O_2  and  C_26
REMARK    2  A    between atoms: O_2  and  C_29
REMARK    3  A    between atoms: N_3  and  C_13
REMARK    4  A    between atoms: N_4  and  C_25
REMARK    5  A    between atoms: N_7  and  C_34
REMARK    6  A    between atoms: N_7  and  C_35
REMARK    7  A    between atoms: N_7  and  C_36
REMARK    8  A    between atoms: C_8  and  C_12
REMARK    9  A    between atoms: C_9  and  C_13
REMARK   10  A    between atoms: C_11  and  C_16
REMARK   11  A    between atoms: C_12  and  C_17
REMARK   12  A    between atoms: C_12  and  C_18
REMARK   13  A    between atoms: C_15  and  C_21
REMARK   14  A    between atoms: C_16  and  C_24
REMARK   15  A    between atoms: C_25  and  C_26
REMARK   16  A    between atoms: C_27  and  C_28
REMARK                            x       y       z     vdW  Elec       q    Type
REMARK                         _______ _______ _______ _____ _____    ______ ____
ROOT
ATOM      8  C   UNL     1      -3.114   2.808  23.210  0.00  0.00    +0.000 C 
ATOM      9  C   UNL     1      -3.959   3.852  23.976  0.00  0.00    +0.029 C 
ATOM     10  C   UNL     1      -3.058   1.486  23.989  0.00  0.00    +0.012 C 
ATOM     11  C   UNL     1      -4.452   0.895  24.293  0.00  0.00    +0.024 C 
ATOM     14  C   UNL     1      -5.232   3.269  24.534  0.00  0.00    -0.023 C 
ATOM     15  C   UNL     1      -5.476   1.954  24.672  0.00  0.00    -0.073 C 
ATOM     21  C   UNL     1      -6.818   1.478  25.160  0.00  0.00    +0.039 C 
ENDROOT
BRANCH   8  12
ATOM     12  C   UNL     1      -3.646   2.591  21.787  0.00  0.00    -0.013 C 
ATOM     17  C   UNL     1      -4.089   3.917  21.177  0.00  0.00    +0.007 C 
ATOM     18  C   UNL     1      -2.587   1.921  20.918  0.00  0.00    +0.007 C 
ENDBRANCH   8  12
BRANCH   9  13
ATOM     13  C   UNL     1      -3.162   4.501  25.112  0.00  0.00    +0.092 C 
BRANCH  13   3
ATOM      3  N   UNL     1      -2.026   3.664  25.491  0.00  0.00    -0.299 NA
ATOM      4  N   UNL     1       0.372   3.111  27.010  0.00  0.00    -0.298 NA
ATOM     19  C   UNL     1      -0.758   4.337  25.185  0.00  0.00    +0.100 C 
ATOM     20  C   UNL     1      -2.089   3.312  26.915  0.00  0.00    +0.100 C 
ATOM     22  C   UNL     1       0.436   3.462  25.586  0.00  0.00    +0.100 C 
ATOM     23  C   UNL     1      -0.896   2.436  27.314  0.00  0.00    +0.100 C 
BRANCH   4  25
ATOM     25  C   UNL     1       1.509   2.275  27.389  0.00  0.00    +0.112 C 
BRANCH  25  26
ATOM     26  C   UNL     1       2.403   3.003  28.380  0.00  0.00    +0.174 C 
BRANCH  26   2
ATOM      2  O   UNL     1       2.420   2.277  29.601  0.00  0.00    -0.382 OA
ATOM     29  C   UNL     1       1.155   2.311  30.246  0.00  0.00    +0.194 C 
ENDBRANCH  26   2
ENDBRANCH  25  26
ENDBRANCH   4  25
ENDBRANCH  13   3
ENDBRANCH   9  13
BRANCH  11  16
ATOM     16  C   UNL     1      -4.299  -0.196  25.360  0.00  0.00    +0.105 C 
BRANCH  16  24
ATOM      1  O   UNL     1      -1.947  -0.344  24.721  0.00  0.00    -0.420 OA
ATOM      5  N   UNL     1      -2.871  -2.304  25.279  0.00  0.00    -0.112 NA
ATOM      6  N   UNL     1      -1.549  -2.534  24.943  0.00  0.00    -0.107 NA
ATOM     24  C   UNL     1      -3.058  -1.013  25.135  0.00  0.00    +0.218 A 
ATOM     27  C   UNL     1      -1.051  -1.363  24.624  0.00  0.00    +0.248 A 
BRANCH  27  28
ATOM     28  C   UNL     1       0.270  -0.998  24.198  0.00  0.00    +0.039 A 
ATOM     30  C   UNL     1       1.351  -1.830  24.488  0.00  0.00    +0.015 A 
ATOM     31  C   UNL     1       0.472   0.187  23.493  0.00  0.00    +0.015 A 
ATOM     32  C   UNL     1       2.634  -1.476  24.074  0.00  0.00    +0.024 A 
ATOM     33  C   UNL     1       1.756   0.542  23.077  0.00  0.00    +0.024 A 
ATOM     34  C   UNL     1       2.837  -0.290  23.368  0.00  0.00    +0.029 A 
BRANCH  34   7
ATOM      7  N   UNL     1       4.135   0.070  22.950  0.00  0.00    -0.336 N 
ATOM     35  C   UNL     1       4.322   1.002  21.855  0.00  0.00    +0.129 C 
ATOM     36  C   UNL     1       5.299  -0.494  23.604  0.00  0.00    +0.129 C 
ENDBRANCH  34   7
ENDBRANCH  27  28
ENDBRANCH  16  24
ENDBRANCH  11  16
TORSDOF 10
ENDMDL
MODEL 4
REMARK VINA RESULT:       8.3      2.240      6.354
REMARK  Name = 45783984
REMARK  16 active torsions:
REMARK  status: ('A' for Active; 'I' for Inactive)
REMARK    1  A    between atoms: O_2  and  C_26
REMARK    2  A    between atoms: O_2  and  C_29
REMARK    3  A    between atoms: N_3  and  C_13
REMARK    4  A    between atoms: N_4  and  C_25
REMARK    5  A    between atoms: N_7  and  C_34
REMARK    6  A    between atoms: N_7  and  C_35
REMARK    7  A    between atoms: N_7  and  C_36
REMARK    8  A    between atoms: C_8  and  C_12
REMARK    9  A    between atoms: C_9  and  C_13
REMARK   10  A    between atoms: C_11  and  C_16
REMARK   11  A    between atoms: C_12  and  C_17
REMARK   12  A    between atoms: C_12  and  C_18
REMARK   13  A    between atoms: C_15  and  C_21
REMARK   14  A    between atoms: C_16  and  C_24
REMARK   15  A    between atoms: C_25  and  C_26
REMARK   16  A    between atoms: C_27  and  C_28
REMARK                            x       y       z     vdW  Elec       q    Type
REMARK                         _______ _______ _______ _____ _____    ______ ____
ROOT
ATOM      8  C   UNL     1      -3.000   2.922  25.889  0.00  0.00    +0.000 C 
ATOM      9  C   UNL     1      -4.507   2.976  25.547  0.00  0.00    +0.029 C 
ATOM     10  C   UNL     1      -2.218   2.225  24.767  0.00  0.00    +0.012 C 
ATOM     11  C   UNL     1      -2.408   2.889  23.386  0.00  0.00    +0.024 C 
ATOM     14  C   UNL     1      -4.761   3.372  24.116  0.00  0.00    -0.023 C 
ATOM     15  C   UNL     1      -3.836   3.352  23.139  0.00  0.00    -0.073 C 
ATOM     21  C   UNL     1      -4.176   3.851  21.761  0.00  0.00    +0.039 C 
ENDROOT
BRANCH   8  12
ATOM     12  C   UNL     1      -2.438   4.323  26.169  0.00  0.00    -0.013 C 
ATOM     17  C   UNL     1      -1.330   4.659  25.175  0.00  0.00    +0.007 C 
ATOM     18  C   UNL     1      -3.550   5.365  26.115  0.00  0.00    +0.007 C 
ENDBRANCH   8  12
BRANCH   9  13
ATOM     13  C   UNL     1      -5.200   1.641  25.832  0.00  0.00    +0.092 C 
BRANCH  13   3
ATOM      3  N   UNL     1      -4.392   0.525  25.345  0.00  0.00    -0.299 NA
ATOM      4  N   UNL     1      -3.924  -2.281  24.826  0.00  0.00    -0.298 NA
ATOM     19  C   UNL     1      -4.088  -0.412  26.434  0.00  0.00    +0.100 C 
ATOM     20  C   UNL     1      -5.072  -0.171  24.245  0.00  0.00    +0.100 C 
ATOM     22  C   UNL     1      -3.243  -1.585  25.925  0.00  0.00    +0.100 C 
ATOM     23  C   UNL     1      -4.226  -1.344  23.736  0.00  0.00    +0.100 C 
BRANCH   4  25
ATOM     25  C   UNL     1      -3.116  -3.398  24.339  0.00  0.00    +0.112 C 
BRANCH  25  26
ATOM     26  C   UNL     1      -1.659  -2.987  24.204  0.00  0.00    +0.174 C 
BRANCH  26   2
ATOM      2  O   UNL     1      -0.934  -3.501  25.313  0.00  0.00    -0.382 OA
ATOM     29  C   UNL     1       0.153  -2.656  25.663  0.00  0.00    +0.194 C 
ENDBRANCH  26   2
ENDBRANCH  25  26
ENDBRANCH   4  25
ENDBRANCH  13   3
ENDBRANCH   9  13
BRANCH  11  16
ATOM     16  C   UNL     1      -1.898   1.927  22.306  0.00  0.00    +0.105 C 
BRANCH  16  24
ATOM      1  O   UNL     1       0.389   1.157  22.672  0.00  0.00    -0.420 OA
ATOM      5  N   UNL     1      -1.178  -0.174  23.555  0.00  0.00    -0.112 NA
ATOM      6  N   UNL     1       0.058  -0.725  23.836  0.00  0.00    -0.107 NA
ATOM     24  C   UNL     1      -0.937   0.923  22.875  0.00  0.00    +0.218 A 
ATOM     27  C   UNL     1       0.942   0.084  23.301  0.00  0.00    +0.248 A 
BRANCH  27  28
ATOM     28  C   UNL     1       2.375   0.015  23.279  0.00  0.00    +0.039 A 
ATOM     30  C   UNL     1       3.023  -1.146  23.702  0.00  0.00    +0.015 A 
ATOM     31  C   UNL     1       3.119   1.106  22.835  0.00  0.00    +0.015 A 
ATOM     32  C   UNL     1       4.416  -1.214  23.680  0.00  0.00    +0.024 A 
ATOM     33  C   UNL     1       4.513   1.039  22.813  0.00  0.00    +0.024 A 
ATOM     34  C   UNL     1       5.161  -0.122  23.235  0.00  0.00    +0.029 A 
BRANCH  34   7
ATOM      7  N   UNL     1       6.570  -0.190  23.215  0.00  0.00    -0.336 N 
ATOM     35  C   UNL     1       7.244  -1.212  22.439  0.00  0.00    +0.129 C 
ATOM     36  C   UNL     1       7.360   0.757  23.975  0.00  0.00    +0.129 C 
ENDBRANCH  34   7
ENDBRANCH  27  28
ENDBRANCH  16  24
ENDBRANCH  11  16
TORSDOF 10
ENDMDL
MODEL 5
REMARK VINA RESULT:       9.4      2.559      5.722
REMARK  Name = 45783984
REMARK  16 active torsions:
REMARK  status: ('A' for Active; 'I' for Inactive)
REMARK    1  A    between atoms: O_2  and  C_26
REMARK    2  A    between atoms: O_2  and  C_29
REMARK    3  A    between atoms: N_3  and  C_13
REMARK    4  A    between atoms: N_4  and  C_25
REMARK    5  A    between atoms: N_7  and  C_34
REMARK    6  A    between atoms: N_7  and  C_35
REMARK    7  A    between atoms: N_7  and  C_36
REMARK    8  A    between atoms: C_8  and  C_12
REMARK    9  A    between atoms: C_9  and  C_13
REMARK   10  A    between atoms: C_11  and  C_16
REMARK   11  A    between atoms: C_12  and  C_17
REMARK   12  A    between atoms: C_12  and  C_18
REMARK   13  A    between atoms: C_15  and  C_21
REMARK   14  A    between atoms: C_16  and  C_24
REMARK   15  A    between atoms: C_25  and  C_26
REMARK   16  A    between atoms: C_27  and  C_28
REMARK                            x       y       z     vdW  Elec       q    Type
REMARK                         _______ _______ _______ _____ _____    ______ ____
ROOT
ATOM      8  C   UNL     1      -4.681   2.307  24.000  0.00  0.00    +0.000 C 
ATOM      9  C   UNL     1      -3.341   2.475  24.751  0.00  0.00    +0.029 C 
ATOM     10  C   UNL     1      -4.831   0.869  23.483  0.00  0.00    +0.012 C 
ATOM     11  C   UNL     1      -4.729  -0.195  24.598  0.00  0.00    +0.024 C 
ATOM     14  C   UNL     1      -3.048   1.324  25.679  0.00  0.00    -0.023 C 
ATOM     15  C   UNL     1      -3.665   0.130  25.635  0.00  0.00    -0.073 C 
ATOM     21  C   UNL     1      -3.357  -0.922  26.666  0.00  0.00    +0.039 C 
ENDROOT
BRANCH   8  12
ATOM     12  C   UNL     1      -5.872   2.705  24.882  0.00  0.00    -0.013 C 
ATOM     17  C   UNL     1      -6.307   1.530  25.752  0.00  0.00    +0.007 C 
ATOM     18  C   UNL     1      -5.518   3.914  25.742  0.00  0.00    +0.007 C 
ENDBRANCH   8  12
BRANCH   9  13
ATOM     13  C   UNL     1      -2.167   2.653  23.784  0.00  0.00    +0.092 C 
BRANCH  13   3
ATOM      3  N   UNL     1      -0.911   2.796  24.516  0.00  0.00    -0.299 NA
ATOM      4  N   UNL     1       0.648   2.980  26.945  0.00  0.00    -0.298 NA
ATOM     19  C   UNL     1      -0.923   4.011  25.340  0.00  0.00    +0.100 C 
ATOM     20  C   UNL     1      -0.655   1.615  25.349  0.00  0.00    +0.100 C 
ATOM     22  C   UNL     1       0.393   4.161  26.112  0.00  0.00    +0.100 C 
ATOM     23  C   UNL     1       0.662   1.765  26.120  0.00  0.00    +0.100 C 
BRANCH   4  25
ATOM     25  C   UNL     1       1.903   3.124  27.678  0.00  0.00    +0.112 C 
BRANCH  25  26
ATOM     26  C   UNL     1       2.009   2.073  28.772  0.00  0.00    +0.174 C 
BRANCH  26   2
ATOM      2  O   UNL     1       1.963   2.722  30.036  0.00  0.00    -0.382 OA
ATOM     29  C   UNL     1       0.645   2.741  30.565  0.00  0.00    +0.194 C 
ENDBRANCH  26   2
ENDBRANCH  25  26
ENDBRANCH   4  25
ENDBRANCH  13   3
ENDBRANCH   9  13
BRANCH  11  16
ATOM     16  C   UNL     1      -4.527  -1.569  23.946  0.00  0.00    +0.105 C 
BRANCH  16  24
ATOM      1  O   UNL     1      -2.119  -1.220  23.751  0.00  0.00    -0.420 OA
ATOM      5  N   UNL     1      -2.691  -3.206  24.607  0.00  0.00    -0.112 NA
ATOM      6  N   UNL     1      -1.310  -3.144  24.553  0.00  0.00    -0.107 NA
ATOM     24  C   UNL     1      -3.120  -2.062  24.128  0.00  0.00    +0.218 A 
ATOM     27  C   UNL     1      -1.022  -1.968  24.047  0.00  0.00    +0.248 A 
BRANCH  27  28
ATOM     28  C   UNL     1       0.247  -1.362  23.765  0.00  0.00    +0.039 A 
ATOM     30  C   UNL     1       1.400  -1.834  24.392  0.00  0.00    +0.015 A 
ATOM     31  C   UNL     1       0.327  -0.302  22.863  0.00  0.00    +0.015 A 
ATOM     32  C   UNL     1       2.634  -1.245  24.117  0.00  0.00    +0.024 A 
ATOM     33  C   UNL     1       1.561   0.288  22.588  0.00  0.00    +0.024 A 
ATOM     34  C   UNL     1       2.715  -0.184  23.215  0.00  0.00    +0.029 A 
BRANCH  34   7
ATOM      7  N   UNL     1       3.962   0.414  22.938  0.00  0.00    -0.336 N 
ATOM     35  C   UNL     1       4.034   1.639  22.168  0.00  0.00    +0.129 C 
ATOM     36  C   UNL     1       5.188  -0.195  23.413  0.00  0.00    +0.129 C 
ENDBRANCH  34   7
ENDBRANCH  27  28
ENDBRANCH  16  24
ENDBRANCH  11  16
TORSDOF 10
ENDMDL
