MODEL 1
REMARK VINA RESULT:      12.1      0.000      0.000
REMARK  Name = 11883045
REMARK  11 active torsions:
REMARK  status: ('A' for Active; 'I' for Inactive)
REMARK    1  A    between atoms: O_4  and  C_18
REMARK    2  A    between atoms: O_5  and  C_23
REMARK    3  A    between atoms: N_10  and  C_29
REMARK    4  A    between atoms: N_12  and  C_31
REMARK    5  A    between atoms: C_13  and  C_21
REMARK    6  A    between atoms: C_15  and  C_23
REMARK    7  A    between atoms: C_15  and  C_24
REMARK    8  A    between atoms: C_16  and  C_26
REMARK    9  A    between atoms: C_26  and  C_27
REMARK   10  A    between atoms: C_29  and  C_31
REMARK   11  A    between atoms: C_30  and  C_32
REMARK                            x       y       z     vdW  Elec       q    Type
REMARK                         _______ _______ _______ _____ _____    ______ ____
ROOT
ATOM      1  S   UNL     1       0.291   2.022  25.982  0.00  0.00    -0.057 S 
ATOM      7  O   UNL     1       1.927   0.160  22.040  0.00  0.00    -0.270 OA
ATOM      9  N   UNL     1      -0.293   1.423  23.533  0.00  0.00    -0.229 NA
ATOM     11  N   UNL     1       1.935   0.889  24.283  0.00  0.00    -0.261 N 
ATOM     13  C   UNL     1      -3.924   2.490  24.274  0.00  0.00    -0.019 C 
ATOM     14  C   UNL     1      -3.469   3.577  25.344  0.00  0.00    +0.011 C 
ATOM     15  C   UNL     1      -4.612   4.321  26.137  0.00  0.00    +0.021 C 
ATOM     16  C   UNL     1      -2.683   2.198  23.310  0.00  0.00    +0.054 C 
ATOM     17  C   UNL     1      -5.085   3.061  23.418  0.00  0.00    +0.010 C 
ATOM     18  C   UNL     1      -5.710   4.786  25.139  0.00  0.00    +0.123 C 
ATOM     19  C   UNL     1      -2.324   3.039  26.251  0.00  0.00    +0.049 C 
ATOM     20  C   UNL     1      -6.215   3.665  24.238  0.00  0.00    +0.032 C 
ATOM     21  C   UNL     1      -4.393   1.164  24.924  0.00  0.00    +0.012 C 
ATOM     22  C   UNL     1      -1.418   1.992  24.102  0.00  0.00    +0.058 A 
ATOM     24  C   UNL     1      -4.020   5.597  26.801  0.00  0.00    +0.016 C 
ATOM     25  C   UNL     1      -1.273   2.392  25.414  0.00  0.00    +0.015 A 
ATOM     28  C   UNL     1       0.666   1.382  24.433  0.00  0.00    +0.165 A 
ATOM     30  C   UNL     1       2.483   0.320  23.122  0.00  0.00    +0.255 C 
ATOM     45  H   UNL     1       2.517   0.982  25.110  0.00  0.00    +0.157 HD
ENDROOT
BRANCH  30  32
ATOM      2  F   UNL     1       4.603   1.963  22.300  0.00  0.00    -0.205 F 
ATOM      3  F   UNL     1       3.214  -2.179  24.165  0.00  0.00    -0.205 F 
ATOM     32  C   UNL     1       3.904  -0.107  23.232  0.00  0.00    +0.107 A 
ATOM     37  C   UNL     1       4.892   0.755  22.807  0.00  0.00    +0.138 A 
ATOM     38  C   UNL     1       4.185  -1.352  23.755  0.00  0.00    +0.138 A 
ATOM     39  C   UNL     1       6.224   0.355  22.910  0.00  0.00    +0.039 A 
ATOM     40  C   UNL     1       5.518  -1.752  23.858  0.00  0.00    +0.039 A 
ATOM     41  C   UNL     1       6.537  -0.898  23.436  0.00  0.00    +0.006 A 
ENDBRANCH  30  32
BRANCH  18   4
ATOM      4  O   UNL     1      -6.819   5.349  25.839  0.00  0.00    -0.391 OA
ATOM     42  H   UNL     1      -6.938   6.261  25.529  0.00  0.00    +0.210 HD
ENDBRANCH  18   4
BRANCH  15  23
ATOM     23  C   UNL     1      -5.229   3.501  27.292  0.00  0.00    +0.165 C 
BRANCH  23   5
ATOM      5  O   UNL     1      -6.260   2.706  26.754  0.00  0.00    -0.394 OA
ATOM     43  H   UNL     1      -6.369   2.946  25.818  0.00  0.00    +0.209 HD
ENDBRANCH  23   5
ENDBRANCH  15  23
BRANCH  16  26
ATOM     26  C   UNL     1      -2.909   1.060  22.304  0.00  0.00    +0.106 C 
BRANCH  26  27
ATOM      6  O   UNL     1      -1.608  -0.760  23.226  0.00  0.00    -0.276 OA
ATOM     10  N   UNL     1      -3.923  -0.940  23.127  0.00  0.00    -0.314 N 
ATOM     27  C   UNL     1      -2.708  -0.299  22.934  0.00  0.00    +0.214 C 
ATOM     44  H   UNL     1      -4.789  -0.460  22.904  0.00  0.00    +0.149 HD
BRANCH  10  29
ATOM     29  C   UNL     1      -4.035  -2.258  23.709  0.00  0.00    +0.119 C 
BRANCH  29  31
ATOM     31  C   UNL     1      -4.048  -2.190  25.229  0.00  0.00    +0.103 C 
BRANCH  31  12
ATOM      8  O   UNL     1       0.086  -1.635  25.695  0.00  0.00    -0.377 OA
ATOM     12  N   UNL     1      -2.685  -2.278  25.752  0.00  0.00    -0.297 NA
ATOM     33  C   UNL     1      -2.196  -0.953  26.158  0.00  0.00    +0.112 C 
ATOM     34  C   UNL     1      -1.781  -2.866  24.755  0.00  0.00    +0.112 C 
ATOM     35  C   UNL     1      -0.770  -1.068  26.688  0.00  0.00    +0.175 C 
ATOM     36  C   UNL     1      -0.365  -2.937  25.319  0.00  0.00    +0.175 C 
ENDBRANCH  31  12
ENDBRANCH  29  31
ENDBRANCH  10  29
ENDBRANCH  26  27
ENDBRANCH  16  26
TORSDOF 9
ENDMDL
MODEL 2
REMARK VINA RESULT:      12.1      0.006      1.292
REMARK  Name = 11883045
REMARK  11 active torsions:
REMARK  status: ('A' for Active; 'I' for Inactive)
REMARK    1  A    between atoms: O_4  and  C_18
REMARK    2  A    between atoms: O_5  and  C_23
REMARK    3  A    between atoms: N_10  and  C_29
REMARK    4  A    between atoms: N_12  and  C_31
REMARK    5  A    between atoms: C_13  and  C_21
REMARK    6  A    between atoms: C_15  and  C_23
REMARK    7  A    between atoms: C_15  and  C_24
REMARK    8  A    between atoms: C_16  and  C_26
REMARK    9  A    between atoms: C_26  and  C_27
REMARK   10  A    between atoms: C_29  and  C_31
REMARK   11  A    between atoms: C_30  and  C_32
REMARK                            x       y       z     vdW  Elec       q    Type
REMARK                         _______ _______ _______ _____ _____    ______ ____
ROOT
ATOM      1  S   UNL     1       0.296   2.019  25.982  0.00  0.00    -0.057 S 
ATOM      7  O   UNL     1       1.932   0.160  22.040  0.00  0.00    -0.270 OA
ATOM      9  N   UNL     1      -0.287   1.423  23.532  0.00  0.00    -0.229 NA
ATOM     11  N   UNL     1       1.941   0.887  24.282  0.00  0.00    -0.261 N 
ATOM     13  C   UNL     1      -3.918   2.489  24.274  0.00  0.00    -0.019 C 
ATOM     14  C   UNL     1      -3.463   3.575  25.345  0.00  0.00    +0.011 C 
ATOM     15  C   UNL     1      -4.606   4.320  26.139  0.00  0.00    +0.021 C 
ATOM     16  C   UNL     1      -2.677   2.198  23.309  0.00  0.00    +0.054 C 
ATOM     17  C   UNL     1      -5.078   3.062  23.418  0.00  0.00    +0.010 C 
ATOM     18  C   UNL     1      -5.703   4.785  25.140  0.00  0.00    +0.123 C 
ATOM     19  C   UNL     1      -2.319   3.036  26.252  0.00  0.00    +0.049 C 
ATOM     20  C   UNL     1      -6.209   3.665  24.238  0.00  0.00    +0.032 C 
ATOM     21  C   UNL     1      -4.387   1.164  24.922  0.00  0.00    +0.012 C 
ATOM     22  C   UNL     1      -1.412   1.991  24.102  0.00  0.00    +0.058 A 
ATOM     24  C   UNL     1      -4.013   5.595  26.803  0.00  0.00    +0.016 C 
ATOM     25  C   UNL     1      -1.267   2.390  25.415  0.00  0.00    +0.015 A 
ATOM     28  C   UNL     1       0.671   1.380  24.432  0.00  0.00    +0.165 A 
ATOM     30  C   UNL     1       2.489   0.318  23.121  0.00  0.00    +0.255 C 
ATOM     45  H   UNL     1       2.522   0.979  25.110  0.00  0.00    +0.157 HD
ENDROOT
BRANCH  30  32
ATOM      2  F   UNL     1       3.220  -2.182  24.162  0.00  0.00    -0.205 F 
ATOM      3  F   UNL     1       4.608   1.963  22.302  0.00  0.00    -0.205 F 
ATOM     32  C   UNL     1       3.909  -0.108  23.231  0.00  0.00    +0.107 A 
ATOM     37  C   UNL     1       4.192  -1.352  23.754  0.00  0.00    +0.138 A 
ATOM     38  C   UNL     1       4.898   0.756  22.808  0.00  0.00    +0.138 A 
ATOM     39  C   UNL     1       5.524  -1.752  23.858  0.00  0.00    +0.039 A 
ATOM     40  C   UNL     1       6.230   0.356  22.912  0.00  0.00    +0.039 A 
ATOM     41  C   UNL     1       6.543  -0.898  23.437  0.00  0.00    +0.006 A 
ENDBRANCH  30  32
BRANCH  18   4
ATOM      4  O   UNL     1      -6.813   5.348  25.840  0.00  0.00    -0.391 OA
ATOM     42  H   UNL     1      -6.691   6.311  25.871  0.00  0.00    +0.210 HD
ENDBRANCH  18   4
BRANCH  15  23
ATOM     23  C   UNL     1      -5.223   3.499  27.293  0.00  0.00    +0.165 C 
BRANCH  23   5
ATOM      5  O   UNL     1      -6.259   2.709  26.754  0.00  0.00    -0.394 OA
ATOM     43  H   UNL     1      -5.951   1.787  26.725  0.00  0.00    +0.209 HD
ENDBRANCH  23   5
ENDBRANCH  15  23
BRANCH  16  26
ATOM     26  C   UNL     1      -2.903   1.061  22.303  0.00  0.00    +0.106 C 
BRANCH  26  27
ATOM      6  O   UNL     1      -1.605  -0.762  23.222  0.00  0.00    -0.276 OA
ATOM     10  N   UNL     1      -3.920  -0.937  23.127  0.00  0.00    -0.314 N 
ATOM     27  C   UNL     1      -2.705  -0.298  22.932  0.00  0.00    +0.214 C 
ATOM     44  H   UNL     1      -4.786  -0.454  22.906  0.00  0.00    +0.149 HD
BRANCH  10  29
ATOM     29  C   UNL     1      -4.036  -2.255  23.710  0.00  0.00    +0.119 C 
BRANCH  29  31
ATOM     31  C   UNL     1      -4.049  -2.186  25.229  0.00  0.00    +0.103 C 
BRANCH  31  12
ATOM      8  O   UNL     1       0.085  -1.631  25.698  0.00  0.00    -0.377 OA
ATOM     12  N   UNL     1      -2.687  -2.274  25.753  0.00  0.00    -0.297 NA
ATOM     33  C   UNL     1      -2.198  -0.950  26.161  0.00  0.00    +0.112 C 
ATOM     34  C   UNL     1      -1.782  -2.861  24.756  0.00  0.00    +0.112 C 
ATOM     35  C   UNL     1      -0.772  -1.066  26.692  0.00  0.00    +0.175 C 
ATOM     36  C   UNL     1      -0.366  -2.932  25.320  0.00  0.00    +0.175 C 
ENDBRANCH  31  12
ENDBRANCH  29  31
ENDBRANCH  10  29
ENDBRANCH  26  27
ENDBRANCH  16  26
TORSDOF 9
ENDMDL
