MODEL 1
REMARK VINA RESULT:      -3.9      0.000      0.000
REMARK  Name = 38027256
REMARK  13 active torsions:
REMARK  status: ('A' for Active; 'I' for Inactive)
REMARK    1  A    between atoms: S_1  and  N_7
REMARK    2  A    between atoms: S_1  and  C_26
REMARK    3  A    between atoms: O_5  and  C_31
REMARK    4  A    between atoms: O_5  and  C_32
REMARK    5  A    between atoms: N_6  and  C_19
REMARK    6  A    between atoms: N_7  and  C_16
REMARK    7  A    between atoms: C_8  and  C_12
REMARK    8  A    between atoms: C_9  and  C_16
REMARK    9  A    between atoms: C_11  and  C_15
REMARK   10  A    between atoms: C_12  and  C_17
REMARK   11  A    between atoms: C_12  and  C_18
REMARK   12  A    between atoms: C_13  and  C_20
REMARK   13  A    between atoms: C_15  and  C_21
REMARK                            x       y       z     vdW  Elec       q    Type
REMARK                         _______ _______ _______ _____ _____    ______ ____
ROOT
ATOM      8  C   UNL     1      -2.252  -1.310  24.176  0.00  0.00    +0.000 C 
ATOM      9  C   UNL     1      -2.986  -0.495  25.271  0.00  0.00    +0.030 C 
ATOM     10  C   UNL     1      -0.750  -1.392  24.487  0.00  0.00    +0.012 C 
ATOM     11  C   UNL     1      -0.097  -0.001  24.580  0.00  0.00    +0.023 C 
ATOM     13  C   UNL     1      -0.913   0.947  25.435  0.00  0.00    -0.073 C 
ATOM     14  C   UNL     1      -2.199   0.704  25.744  0.00  0.00    -0.023 C 
ATOM     20  C   UNL     1      -0.203   2.162  25.965  0.00  0.00    +0.039 C 
ENDROOT
BRANCH   8  12
ATOM     12  C   UNL     1      -2.832  -2.720  24.032  0.00  0.00    -0.013 C 
ATOM     17  C   UNL     1      -2.997  -3.369  25.402  0.00  0.00    +0.007 C 
ATOM     18  C   UNL     1      -4.164  -2.674  23.291  0.00  0.00    +0.007 C 
ENDBRANCH   8  12
BRANCH  11  15
ATOM     15  C   UNL     1       0.150   0.589  23.187  0.00  0.00    +0.103 C 
BRANCH  15  21
ATOM      2  O   UNL     1       1.123  -0.678  21.370  0.00  0.00    -0.276 OA
ATOM      6  N   UNL     1       2.447  -0.070  23.179  0.00  0.00    -0.312 N 
ATOM     21  C   UNL     1       1.265  -0.125  22.457  0.00  0.00    +0.214 C 
ATOM     33  H   UNL     1       2.470   0.450  24.053  0.00  0.00    +0.149 HD
BRANCH   6  19
ATOM     19  C   UNL     1       3.678  -0.670  22.724  0.00  0.00    +0.073 C 
ATOM     22  C   UNL     1       4.380  -1.430  23.842  0.00  0.00    +0.022 C 
ATOM     23  C   UNL     1       4.709   0.379  22.329  0.00  0.00    +0.022 C 
ATOM     24  C   UNL     1       5.131  -0.356  24.623  0.00  0.00    +0.002 C 
ATOM     25  C   UNL     1       5.379   0.788  23.639  0.00  0.00    +0.002 C 
ENDBRANCH   6  19
ENDBRANCH  15  21
ENDBRANCH  11  15
BRANCH   9  16
ATOM     16  C   UNL     1      -4.368  -0.039  24.788  0.00  0.00    +0.113 C 
BRANCH  16   7
ATOM      7  N   UNL     1      -5.109   0.533  25.922  0.00  0.00    -0.189 NA
ATOM     34  H   UNL     1      -5.495  -0.129  26.605  0.00  0.00    +0.148 HD
BRANCH   7   1
ATOM      1  S   UNL     1      -5.876   2.048  25.768  0.00  0.00    +0.058 S 
ATOM      3  O   UNL     1      -6.496   2.400  27.031  0.00  0.00    -0.153 OA
ATOM      4  O   UNL     1      -6.652   2.065  24.544  0.00  0.00    -0.153 OA
BRANCH   1  26
ATOM     26  C   UNL     1      -4.496   3.125  25.519  0.00  0.00    +0.105 A 
ATOM     27  C   UNL     1      -4.013   3.352  24.231  0.00  0.00    +0.032 A 
ATOM     28  C   UNL     1      -3.888   3.744  26.612  0.00  0.00    +0.032 A 
ATOM     29  C   UNL     1      -2.923   4.200  24.035  0.00  0.00    +0.047 A 
ATOM     30  C   UNL     1      -2.798   4.591  26.415  0.00  0.00    +0.047 A 
ATOM     31  C   UNL     1      -2.315   4.820  25.127  0.00  0.00    +0.120 A 
BRANCH  31   5
ATOM      5  O   UNL     1      -1.251   5.646  24.935  0.00  0.00    -0.495 OA
ATOM     32  C   UNL     1      -0.142   5.119  24.208  0.00  0.00    +0.277 C 
ENDBRANCH  31   5
ENDBRANCH   1  26
ENDBRANCH   7   1
ENDBRANCH  16   7
ENDBRANCH   9  16
TORSDOF 9
ENDMDL
MODEL 2
REMARK VINA RESULT:      -1.4      1.670      4.566
REMARK  Name = 38027256
REMARK  13 active torsions:
REMARK  status: ('A' for Active; 'I' for Inactive)
REMARK    1  A    between atoms: S_1  and  N_7
REMARK    2  A    between atoms: S_1  and  C_26
REMARK    3  A    between atoms: O_5  and  C_31
REMARK    4  A    between atoms: O_5  and  C_32
REMARK    5  A    between atoms: N_6  and  C_19
REMARK    6  A    between atoms: N_7  and  C_16
REMARK    7  A    between atoms: C_8  and  C_12
REMARK    8  A    between atoms: C_9  and  C_16
REMARK    9  A    between atoms: C_11  and  C_15
REMARK   10  A    between atoms: C_12  and  C_17
REMARK   11  A    between atoms: C_12  and  C_18
REMARK   12  A    between atoms: C_13  and  C_20
REMARK   13  A    between atoms: C_15  and  C_21
REMARK                            x       y       z     vdW  Elec       q    Type
REMARK                         _______ _______ _______ _____ _____    ______ ____
ROOT
ATOM      8  C   UNL     1      -1.602   3.651  24.930  0.00  0.00    +0.000 C 
ATOM      9  C   UNL     1      -3.029   3.569  24.331  0.00  0.00    +0.030 C 
ATOM     10  C   UNL     1      -0.547   3.461  23.830  0.00  0.00    +0.012 C 
ATOM     11  C   UNL     1      -0.696   2.110  23.107  0.00  0.00    +0.023 C 
ATOM     13  C   UNL     1      -2.134   1.834  22.719  0.00  0.00    -0.073 C 
ATOM     14  C   UNL     1      -3.163   2.505  23.267  0.00  0.00    -0.023 C 
ATOM     20  C   UNL     1      -2.361   0.800  21.652  0.00  0.00    +0.039 C 
ENDROOT
BRANCH   8  12
ATOM     12  C   UNL     1      -1.365   4.980  25.654  0.00  0.00    -0.013 C 
ATOM     17  C   UNL     1      -0.618   5.953  24.748  0.00  0.00    +0.007 C 
ATOM     18  C   UNL     1      -2.690   5.578  26.115  0.00  0.00    +0.007 C 
ENDBRANCH   8  12
BRANCH  11  15
ATOM     15  C   UNL     1      -0.125   0.965  23.952  0.00  0.00    +0.103 C 
BRANCH  15  21
ATOM      2  O   UNL     1       0.425  -0.944  22.571  0.00  0.00    -0.276 OA
ATOM      6  N   UNL     1       2.096   0.555  23.172  0.00  0.00    -0.312 N 
ATOM     21  C   UNL     1       0.796   0.072  23.152  0.00  0.00    +0.214 C 
ATOM     33  H   UNL     1       2.292   1.430  23.649  0.00  0.00    +0.149 HD
BRANCH   6  19
ATOM     19  C   UNL     1       3.189  -0.098  22.493  0.00  0.00    +0.073 C 
ATOM     22  C   UNL     1       3.812  -1.191  23.351  0.00  0.00    +0.022 C 
ATOM     23  C   UNL     1       4.357   0.851  22.254  0.00  0.00    +0.022 C 
ATOM     24  C   UNL     1       4.765  -0.449  24.285  0.00  0.00    +0.002 C 
ATOM     25  C   UNL     1       5.147   0.842  23.561  0.00  0.00    +0.002 C 
ENDBRANCH   6  19
ENDBRANCH  15  21
ENDBRANCH  11  15
BRANCH   9  16
ATOM     16  C   UNL     1      -4.075   3.331  25.425  0.00  0.00    +0.113 C 
BRANCH  16   7
ATOM      7  N   UNL     1      -5.332   2.891  24.801  0.00  0.00    -0.189 NA
ATOM     34  H   UNL     1      -5.919   3.619  24.377  0.00  0.00    +0.148 HD
BRANCH   7   1
ATOM      1  S   UNL     1      -6.100   1.465  25.332  0.00  0.00    +0.058 S 
ATOM      3  O   UNL     1      -7.210   1.162  24.450  0.00  0.00    -0.153 OA
ATOM      4  O   UNL     1      -6.308   1.544  26.765  0.00  0.00    -0.153 OA
BRANCH   1  26
ATOM     26  C   UNL     1      -4.840   0.255  25.059  0.00  0.00    +0.105 A 
ATOM     27  C   UNL     1      -4.974  -0.668  24.022  0.00  0.00    +0.032 A 
ATOM     28  C   UNL     1      -3.716   0.220  25.884  0.00  0.00    +0.032 A 
ATOM     29  C   UNL     1      -3.982  -1.624  23.808  0.00  0.00    +0.047 A 
ATOM     30  C   UNL     1      -2.724  -0.736  25.670  0.00  0.00    +0.047 A 
ATOM     31  C   UNL     1      -2.856  -1.658  24.632  0.00  0.00    +0.120 A 
BRANCH  31   5
ATOM      5  O   UNL     1      -1.888  -2.593  24.424  0.00  0.00    -0.495 OA
ATOM     32  C   UNL     1      -0.724  -2.515  25.246  0.00  0.00    +0.277 C 
ENDBRANCH  31   5
ENDBRANCH   1  26
ENDBRANCH   7   1
ENDBRANCH  16   7
ENDBRANCH   9  16
TORSDOF 9
ENDMDL
MODEL 3
REMARK VINA RESULT:      -0.6      2.328      6.928
REMARK  Name = 38027256
REMARK  13 active torsions:
REMARK  status: ('A' for Active; 'I' for Inactive)
REMARK    1  A    between atoms: S_1  and  N_7
REMARK    2  A    between atoms: S_1  and  C_26
REMARK    3  A    between atoms: O_5  and  C_31
REMARK    4  A    between atoms: O_5  and  C_32
REMARK    5  A    between atoms: N_6  and  C_19
REMARK    6  A    between atoms: N_7  and  C_16
REMARK    7  A    between atoms: C_8  and  C_12
REMARK    8  A    between atoms: C_9  and  C_16
REMARK    9  A    between atoms: C_11  and  C_15
REMARK   10  A    between atoms: C_12  and  C_17
REMARK   11  A    between atoms: C_12  and  C_18
REMARK   12  A    between atoms: C_13  and  C_20
REMARK   13  A    between atoms: C_15  and  C_21
REMARK                            x       y       z     vdW  Elec       q    Type
REMARK                         _______ _______ _______ _____ _____    ______ ____
ROOT
ATOM      8  C   UNL     1      -3.194  -0.734  24.921  0.00  0.00    +0.000 C 
ATOM      9  C   UNL     1      -2.022  -0.200  24.059  0.00  0.00    +0.030 C 
ATOM     10  C   UNL     1      -4.540  -0.397  24.263  0.00  0.00    +0.012 C 
ATOM     11  C   UNL     1      -4.729   1.118  24.066  0.00  0.00    +0.023 C 
ATOM     13  C   UNL     1      -3.501   1.765  23.460  0.00  0.00    -0.073 C 
ATOM     14  C   UNL     1      -2.302   1.155  23.455  0.00  0.00    -0.023 C 
ATOM     20  C   UNL     1      -3.690   3.112  22.820  0.00  0.00    +0.039 C 
ENDROOT
BRANCH   8  12
ATOM     12  C   UNL     1      -3.090  -2.246  25.150  0.00  0.00    -0.013 C 
ATOM     17  C   UNL     1      -4.056  -2.989  24.233  0.00  0.00    +0.007 C 
ATOM     18  C   UNL     1      -1.658  -2.719  24.925  0.00  0.00    +0.007 C 
ENDBRANCH   8  12
BRANCH  11  15
ATOM     15  C   UNL     1      -5.119   1.802  25.381  0.00  0.00    +0.103 C 
BRANCH  15  21
ATOM      2  O   UNL     1      -4.787   4.198  25.359  0.00  0.00    -0.276 OA
ATOM      6  N   UNL     1      -3.086   2.814  26.127  0.00  0.00    -0.312 N 
ATOM     21  C   UNL     1      -4.345   3.081  25.609  0.00  0.00    +0.214 C 
ATOM     33  H   UNL     1      -2.832   1.852  26.338  0.00  0.00    +0.149 HD
BRANCH   6  19
ATOM     19  C   UNL     1      -2.129   3.845  26.442  0.00  0.00    +0.073 C 
ATOM     22  C   UNL     1      -1.856   4.744  25.243  0.00  0.00    +0.022 C 
ATOM     23  C   UNL     1      -0.753   3.269  26.751  0.00  0.00    +0.022 C 
ATOM     24  C   UNL     1      -0.834   3.975  24.411  0.00  0.00    +0.002 C 
ATOM     25  C   UNL     1      -0.097   3.058  25.388  0.00  0.00    +0.002 C 
ENDBRANCH   6  19
ENDBRANCH  15  21
ENDBRANCH  11  15
BRANCH   9  16
ATOM     16  C   UNL     1      -0.722  -0.140  24.869  0.00  0.00    +0.113 C 
BRANCH  16   7
ATOM      7  N   UNL     1       0.361  -0.756  24.087  0.00  0.00    -0.189 NA
ATOM     34  H   UNL     1       0.941  -1.453  24.568  0.00  0.00    +0.148 HD
BRANCH   7   1
ATOM      1  S   UNL     1       1.055   0.081  22.775  0.00  0.00    +0.058 S 
ATOM      3  O   UNL     1       0.706   1.485  22.865  0.00  0.00    -0.153 OA
ATOM      4  O   UNL     1       0.800  -0.657  21.553  0.00  0.00    -0.153 OA
BRANCH   1  26
ATOM     26  C   UNL     1       2.781  -0.076  23.121  0.00  0.00    +0.105 A 
ATOM     27  C   UNL     1       3.290  -1.285  23.595  0.00  0.00    +0.032 A 
ATOM     28  C   UNL     1       3.634   1.011  22.925  0.00  0.00    +0.032 A 
ATOM     29  C   UNL     1       4.652  -1.408  23.871  0.00  0.00    +0.047 A 
ATOM     30  C   UNL     1       4.995   0.888  23.201  0.00  0.00    +0.047 A 
ATOM     31  C   UNL     1       5.504  -0.321  23.674  0.00  0.00    +0.120 A 
BRANCH  31   5
ATOM      5  O   UNL     1       6.833  -0.441  23.944  0.00  0.00    -0.495 OA
ATOM     32  C   UNL     1       7.717  -0.534  22.827  0.00  0.00    +0.277 C 
ENDBRANCH  31   5
ENDBRANCH   1  26
ENDBRANCH   7   1
ENDBRANCH  16   7
ENDBRANCH   9  16
TORSDOF 9
ENDMDL
