MODEL 1
REMARK VINA RESULT:      -1.0      0.000      0.000
REMARK  Name = 38029110
REMARK  15 active torsions:
REMARK  status: ('A' for Active; 'I' for Inactive)
REMARK    1  A    between atoms: S_1  and  N_6
REMARK    2  A    between atoms: S_1  and  C_22
REMARK    3  A    between atoms: O_5  and  C_32
REMARK    4  A    between atoms: O_5  and  C_35
REMARK    5  A    between atoms: N_6  and  C_16
REMARK    6  A    between atoms: N_7  and  C_23
REMARK    7  A    between atoms: N_7  and  C_24
REMARK    8  A    between atoms: C_9  and  C_13
REMARK    9  A    between atoms: C_10  and  C_16
REMARK   10  A    between atoms: C_12  and  C_17
REMARK   11  A    between atoms: C_13  and  C_18
REMARK   12  A    between atoms: C_13  and  C_19
REMARK   13  A    between atoms: C_14  and  C_20
REMARK   14  A    between atoms: C_17  and  C_21
REMARK   15  A    between atoms: C_23  and  C_25
REMARK                            x       y       z     vdW  Elec       q    Type
REMARK                         _______ _______ _______ _____ _____    ______ ____
ROOT
ATOM      9  C   UNL     1      -2.595  -1.477  24.263  0.00  0.00    +0.000 C 
ATOM     10  C   UNL     1      -3.296  -0.728  25.424  0.00  0.00    +0.030 C 
ATOM     11  C   UNL     1      -1.085  -1.582  24.527  0.00  0.00    +0.012 C 
ATOM     12  C   UNL     1      -0.424  -0.199  24.685  0.00  0.00    +0.023 C 
ATOM     14  C   UNL     1      -1.214   0.699  25.616  0.00  0.00    -0.073 C 
ATOM     15  C   UNL     1      -2.492   0.439  25.946  0.00  0.00    -0.023 C 
ATOM     20  C   UNL     1      -0.486   1.879  26.198  0.00  0.00    +0.039 C 
ENDROOT
BRANCH   9  13
ATOM     13  C   UNL     1      -3.183  -2.876  24.051  0.00  0.00    -0.013 C 
ATOM     18  C   UNL     1      -3.332  -3.598  25.387  0.00  0.00    +0.007 C 
ATOM     19  C   UNL     1      -4.526  -2.785  23.332  0.00  0.00    +0.007 C 
ENDBRANCH   9  13
BRANCH  10  16
ATOM     16  C   UNL     1      -4.690  -0.243  25.007  0.00  0.00    +0.113 C 
BRANCH  16   6
ATOM      6  N   UNL     1      -5.248   0.595  26.080  0.00  0.00    -0.189 NA
ATOM     36  H   UNL     1      -5.592   0.109  26.916  0.00  0.00    +0.148 HD
BRANCH   6   1
ATOM      1  S   UNL     1      -5.920   2.117  25.715  0.00  0.00    +0.058 S 
ATOM      3  O   UNL     1      -6.604   2.631  26.887  0.00  0.00    -0.153 OA
ATOM      4  O   UNL     1      -6.613   2.039  24.443  0.00  0.00    -0.153 OA
BRANCH   1  22
ATOM     22  C   UNL     1      -4.472   3.098  25.456  0.00  0.00    +0.105 A 
ATOM     26  C   UNL     1      -3.911   3.807  26.517  0.00  0.00    +0.032 A 
ATOM     27  C   UNL     1      -3.892   3.161  24.189  0.00  0.00    +0.032 A 
ATOM     28  C   UNL     1      -2.768   4.580  26.312  0.00  0.00    +0.047 A 
ATOM     29  C   UNL     1      -2.749   3.935  23.984  0.00  0.00    +0.047 A 
ATOM     32  C   UNL     1      -2.187   4.645  25.046  0.00  0.00    +0.120 A 
BRANCH  32   5
ATOM      5  O   UNL     1      -1.073   5.400  24.846  0.00  0.00    -0.495 OA
ATOM     35  C   UNL     1      -0.062   4.852  24.001  0.00  0.00    +0.277 C 
ENDBRANCH  32   5
ENDBRANCH   1  22
ENDBRANCH   6   1
ENDBRANCH  16   6
ENDBRANCH  10  16
BRANCH  12  17
ATOM     17  C   UNL     1      -0.215   0.472  23.323  0.00  0.00    +0.103 C 
BRANCH  17  21
ATOM      2  O   UNL     1       1.836   1.632  23.764  0.00  0.00    -0.276 OA
ATOM      7  N   UNL     1       1.844   0.122  22.003  0.00  0.00    -0.300 N 
ATOM     21  C   UNL     1       1.243   0.806  23.065  0.00  0.00    +0.216 C 
ATOM     24  C   UNL     1       1.123  -0.851  21.191  0.00  0.00    +0.132 C 
BRANCH   7  23
ATOM     23  C   UNL     1       3.240   0.331  21.627  0.00  0.00    +0.144 C 
BRANCH  23  25
ATOM      8  N   UNL     1       5.006  -1.706  24.279  0.00  0.00    -0.263 NA
ATOM     25  C   UNL     1       4.182  -0.036  22.737  0.00  0.00    -0.012 A 
ATOM     30  C   UNL     1       5.075   0.894  23.257  0.00  0.00    +0.008 A 
ATOM     31  C   UNL     1       4.188  -1.311  23.278  0.00  0.00    +0.115 A 
ATOM     33  C   UNL     1       5.934   0.526  24.287  0.00  0.00    +0.020 A 
ATOM     34  C   UNL     1       5.861  -0.774  24.758  0.00  0.00    +0.111 A 
ENDBRANCH  23  25
ENDBRANCH   7  23
ENDBRANCH  17  21
ENDBRANCH  12  17
TORSDOF 10
ENDMDL
MODEL 2
REMARK VINA RESULT:       1.1      1.796      4.678
REMARK  Name = 38029110
REMARK  15 active torsions:
REMARK  status: ('A' for Active; 'I' for Inactive)
REMARK    1  A    between atoms: S_1  and  N_6
REMARK    2  A    between atoms: S_1  and  C_22
REMARK    3  A    between atoms: O_5  and  C_32
REMARK    4  A    between atoms: O_5  and  C_35
REMARK    5  A    between atoms: N_6  and  C_16
REMARK    6  A    between atoms: N_7  and  C_23
REMARK    7  A    between atoms: N_7  and  C_24
REMARK    8  A    between atoms: C_9  and  C_13
REMARK    9  A    between atoms: C_10  and  C_16
REMARK   10  A    between atoms: C_12  and  C_17
REMARK   11  A    between atoms: C_13  and  C_18
REMARK   12  A    between atoms: C_13  and  C_19
REMARK   13  A    between atoms: C_14  and  C_20
REMARK   14  A    between atoms: C_17  and  C_21
REMARK   15  A    between atoms: C_23  and  C_25
REMARK                            x       y       z     vdW  Elec       q    Type
REMARK                         _______ _______ _______ _____ _____    ______ ____
ROOT
ATOM      9  C   UNL     1      -2.262   3.750  24.960  0.00  0.00    +0.000 C 
ATOM     10  C   UNL     1      -3.523   3.977  24.088  0.00  0.00    +0.030 C 
ATOM     11  C   UNL     1      -1.043   3.455  24.074  0.00  0.00    +0.012 C 
ATOM     12  C   UNL     1      -1.253   2.212  23.189  0.00  0.00    +0.023 C 
ATOM     14  C   UNL     1      -2.603   2.234  22.499  0.00  0.00    -0.073 C 
ATOM     15  C   UNL     1      -3.600   3.039  22.906  0.00  0.00    -0.023 C 
ATOM     20  C   UNL     1      -2.764   1.342  21.299  0.00  0.00    +0.039 C 
ENDROOT
BRANCH   9  13
ATOM     13  C   UNL     1      -1.970   4.955  25.861  0.00  0.00    -0.013 C 
ATOM     18  C   UNL     1      -1.402   6.108  25.039  0.00  0.00    +0.007 C 
ATOM     19  C   UNL     1      -3.235   5.388  26.597  0.00  0.00    +0.007 C 
ENDBRANCH   9  13
BRANCH  10  16
ATOM     16  C   UNL     1      -4.803   3.853  24.923  0.00  0.00    +0.113 C 
BRANCH  16   6
ATOM      6  N   UNL     1      -4.706   2.658  25.777  0.00  0.00    -0.189 NA
ATOM     36  H   UNL     1      -3.778   2.432  26.154  0.00  0.00    +0.148 HD
BRANCH   6   1
ATOM      1  S   UNL     1      -5.819   1.382  25.592  0.00  0.00    +0.058 S 
ATOM      3  O   UNL     1      -6.620   1.615  24.405  0.00  0.00    -0.153 OA
ATOM      4  O   UNL     1      -6.462   1.124  26.867  0.00  0.00    -0.153 OA
BRANCH   1  22
ATOM     22  C   UNL     1      -4.749   0.013  25.267  0.00  0.00    +0.105 A 
ATOM     26  C   UNL     1      -3.792  -0.362  26.209  0.00  0.00    +0.032 A 
ATOM     27  C   UNL     1      -4.862  -0.690  24.067  0.00  0.00    +0.032 A 
ATOM     28  C   UNL     1      -2.947  -1.442  25.952  0.00  0.00    +0.047 A 
ATOM     29  C   UNL     1      -4.017  -1.770  23.811  0.00  0.00    +0.047 A 
ATOM     32  C   UNL     1      -3.059  -2.146  24.753  0.00  0.00    +0.120 A 
BRANCH  32   5
ATOM      5  O   UNL     1      -2.234  -3.200  24.502  0.00  0.00    -0.495 OA
ATOM     35  C   UNL     1      -0.911  -3.127  25.031  0.00  0.00    +0.277 C 
ENDBRANCH  32   5
ENDBRANCH   1  22
ENDBRANCH   6   1
ENDBRANCH  16   6
ENDBRANCH  10  16
BRANCH  12  17
ATOM     17  C   UNL     1      -1.072   0.922  23.996  0.00  0.00    +0.103 C 
BRANCH  17  21
ATOM      2  O   UNL     1      -0.631  -1.172  22.916  0.00  0.00    -0.276 OA
ATOM      7  N   UNL     1       1.142   0.314  23.083  0.00  0.00    -0.300 N 
ATOM     21  C   UNL     1      -0.184  -0.082  23.284  0.00  0.00    +0.216 C 
ATOM     24  C   UNL     1       1.648   1.608  23.527  0.00  0.00    +0.132 C 
BRANCH   7  23
ATOM     23  C   UNL     1       2.121  -0.539  22.413  0.00  0.00    +0.144 C 
BRANCH  23  25
ATOM      8  N   UNL     1       5.270  -1.406  24.319  0.00  0.00    -0.263 NA
ATOM     25  C   UNL     1       3.488  -0.412  23.023  0.00  0.00    -0.012 A 
ATOM     30  C   UNL     1       4.229   0.756  22.886  0.00  0.00    +0.008 A 
ATOM     31  C   UNL     1       4.048  -1.455  23.743  0.00  0.00    +0.115 A 
ATOM     33  C   UNL     1       5.491   0.845  23.464  0.00  0.00    +0.020 A 
ATOM     34  C   UNL     1       5.961  -0.254  24.164  0.00  0.00    +0.111 A 
ENDBRANCH  23  25
ENDBRANCH   7  23
ENDBRANCH  17  21
ENDBRANCH  12  17
TORSDOF 10
ENDMDL
MODEL 3
REMARK VINA RESULT:       2.2      2.432      7.064
REMARK  Name = 38029110
REMARK  15 active torsions:
REMARK  status: ('A' for Active; 'I' for Inactive)
REMARK    1  A    between atoms: S_1  and  N_6
REMARK    2  A    between atoms: S_1  and  C_22
REMARK    3  A    between atoms: O_5  and  C_32
REMARK    4  A    between atoms: O_5  and  C_35
REMARK    5  A    between atoms: N_6  and  C_16
REMARK    6  A    between atoms: N_7  and  C_23
REMARK    7  A    between atoms: N_7  and  C_24
REMARK    8  A    between atoms: C_9  and  C_13
REMARK    9  A    between atoms: C_10  and  C_16
REMARK   10  A    between atoms: C_12  and  C_17
REMARK   11  A    between atoms: C_13  and  C_18
REMARK   12  A    between atoms: C_13  and  C_19
REMARK   13  A    between atoms: C_14  and  C_20
REMARK   14  A    between atoms: C_17  and  C_21
REMARK   15  A    between atoms: C_23  and  C_25
REMARK                            x       y       z     vdW  Elec       q    Type
REMARK                         _______ _______ _______ _____ _____    ______ ____
ROOT
ATOM      9  C   UNL     1      -3.143  -1.168  24.654  0.00  0.00    +0.000 C 
ATOM     10  C   UNL     1      -1.949  -0.519  23.909  0.00  0.00    +0.030 C 
ATOM     11  C   UNL     1      -4.455  -0.900  23.901  0.00  0.00    +0.012 C 
ATOM     12  C   UNL     1      -4.739   0.606  23.744  0.00  0.00    +0.023 C 
ATOM     14  C   UNL     1      -3.516   1.363  23.266  0.00  0.00    -0.073 C 
ATOM     15  C   UNL     1      -2.280   0.839  23.335  0.00  0.00    -0.023 C 
ATOM     20  C   UNL     1      -3.753   2.720  22.662  0.00  0.00    +0.039 C 
ENDROOT
BRANCH   9  13
ATOM     13  C   UNL     1      -2.948  -2.677  24.833  0.00  0.00    -0.013 C 
ATOM     18  C   UNL     1      -4.089  -3.444  24.174  0.00  0.00    +0.007 C 
ATOM     19  C   UNL     1      -1.602  -3.111  24.259  0.00  0.00    +0.007 C 
ENDBRANCH   9  13
BRANCH  10  16
ATOM     16  C   UNL     1      -0.724  -0.402  24.824  0.00  0.00    +0.113 C 
BRANCH  16   6
ATOM      6  N   UNL     1       0.468  -0.861  24.093  0.00  0.00    -0.189 NA
ATOM     36  H   UNL     1       1.094  -1.507  24.587  0.00  0.00    +0.148 HD
BRANCH   6   1
ATOM      1  S   UNL     1       1.135   0.100  22.855  0.00  0.00    +0.058 S 
ATOM      3  O   UNL     1       0.761   1.485  23.072  0.00  0.00    -0.153 OA
ATOM      4  O   UNL     1       0.881  -0.531  21.574  0.00  0.00    -0.153 OA
BRANCH   1  22
ATOM     22  C   UNL     1       2.867  -0.054  23.173  0.00  0.00    +0.105 A 
ATOM     26  C   UNL     1       3.717   1.027  22.940  0.00  0.00    +0.032 A 
ATOM     27  C   UNL     1       3.382  -1.256  23.657  0.00  0.00    +0.032 A 
ATOM     28  C   UNL     1       5.084   0.905  23.191  0.00  0.00    +0.047 A 
ATOM     29  C   UNL     1       4.749  -1.377  23.908  0.00  0.00    +0.047 A 
ATOM     32  C   UNL     1       5.600  -0.296  23.675  0.00  0.00    +0.120 A 
BRANCH  32   5
ATOM      5  O   UNL     1       6.934  -0.415  23.919  0.00  0.00    -0.495 OA
ATOM     35  C   UNL     1       7.784  -0.612  22.791  0.00  0.00    +0.277 C 
ENDBRANCH  32   5
ENDBRANCH   1  22
ENDBRANCH   6   1
ENDBRANCH  16   6
ENDBRANCH  10  16
BRANCH  12  17
ATOM     17  C   UNL     1      -5.278   1.205  25.048  0.00  0.00    +0.103 C 
BRANCH  17  21
ATOM      2  O   UNL     1      -3.204   1.497  26.213  0.00  0.00    -0.276 OA
ATOM      7  N   UNL     1      -4.516   3.387  25.920  0.00  0.00    -0.300 N 
ATOM     21  C   UNL     1      -4.232   2.025  25.780  0.00  0.00    +0.216 C 
ATOM     24  C   UNL     1      -5.739   3.989  25.400  0.00  0.00    +0.132 C 
BRANCH   7  23
ATOM     23  C   UNL     1      -3.610   4.310  26.599  0.00  0.00    +0.144 C 
BRANCH  23  25
ATOM      8  N   UNL     1      -0.123   3.379  25.472  0.00  0.00    -0.263 NA
ATOM     25  C   UNL     1      -2.274   4.388  25.920  0.00  0.00    -0.012 A 
ATOM     30  C   UNL     1      -1.930   5.485  25.138  0.00  0.00    +0.008 A 
ATOM     31  C   UNL     1      -1.343   3.371  26.054  0.00  0.00    +0.115 A 
ATOM     33  C   UNL     1      -0.683   5.530  24.522  0.00  0.00    +0.020 A 
ATOM     34  C   UNL     1       0.175   4.461  24.719  0.00  0.00    +0.111 A 
ENDBRANCH  23  25
ENDBRANCH   7  23
ENDBRANCH  17  21
ENDBRANCH  12  17
TORSDOF 10
ENDMDL
