MODEL 1
REMARK VINA RESULT:      -1.8      0.000      0.000
REMARK  Name = 51136761
REMARK  11 active torsions:
REMARK  status: ('A' for Active; 'I' for Inactive)
REMARK    1  A    between atoms: S_1  and  N_6
REMARK    2  A    between atoms: S_1  and  C_19
REMARK    3  A    between atoms: O_4  and  C_17
REMARK    4  A    between atoms: C_8  and  C_13
REMARK    5  A    between atoms: C_9  and  C_14
REMARK    6  A    between atoms: C_13  and  C_15
REMARK    7  A    between atoms: C_14  and  C_17
REMARK    8  A    between atoms: C_23  and  C_24
REMARK    9  A    between atoms: C_24  and  C_27
REMARK   10  A    between atoms: C_24  and  C_28
REMARK   11  A    between atoms: C_24  and  C_29
REMARK                            x       y       z     vdW  Elec       q    Type
REMARK                         _______ _______ _______ _____ _____    ______ ____
ROOT
ATOM      6  N   UNL     1       1.474  -0.101  23.504  0.00  0.00    -0.181 NA
ATOM      8  C   UNL     1      -0.888   0.466  24.023  0.00  0.00    +0.014 C 
ATOM      9  C   UNL     1      -1.151  -1.024  24.351  0.00  0.00    +0.006 C 
ATOM     10  C   UNL     1       0.248   0.582  22.995  0.00  0.00    +0.113 C 
ATOM     11  C   UNL     1       0.140  -1.742  24.774  0.00  0.00    +0.021 C 
ATOM     12  C   UNL     1       1.247  -1.555  23.741  0.00  0.00    +0.109 C 
ENDROOT
BRANCH   6   1
ATOM      1  S   UNL     1       2.925   0.288  22.678  0.00  0.00    +0.029 S 
ATOM      2  O   UNL     1       3.353   1.607  23.090  0.00  0.00    -0.158 OA
ATOM      3  O   UNL     1       2.773  -0.063  21.284  0.00  0.00    -0.158 OA
ATOM     19  C   UNL     1       4.006  -0.901  23.430  0.00  0.00    +0.215 C 
ENDBRANCH   6   1
BRANCH   8  13
ATOM     13  C   UNL     1      -0.592   1.333  25.253  0.00  0.00    +0.060 C 
BRANCH  13  15
ATOM      7  N   UNL     1      -0.056   3.588  24.625  0.00  0.00    -0.287 NA
ATOM     15  C   UNL     1      -0.987   2.765  24.978  0.00  0.00    +0.044 C 
ATOM     16  C   UNL     1      -2.411   3.156  25.133  0.00  0.00    -0.001 A 
ATOM     18  C   UNL     1      -2.680   4.525  25.253  0.00  0.00    -0.037 A 
ATOM     20  C   UNL     1      -1.531   5.489  25.233  0.00  0.00    +0.059 C 
ATOM     21  C   UNL     1      -0.449   4.964  24.298  0.00  0.00    +0.146 C 
ATOM     22  C   UNL     1      -3.450   2.224  25.174  0.00  0.00    +0.014 A 
ATOM     23  C   UNL     1      -4.763   2.666  25.348  0.00  0.00    -0.041 A 
ATOM     25  C   UNL     1      -3.996   4.957  25.443  0.00  0.00    +0.004 A 
ATOM     26  C   UNL     1      -5.035   4.027  25.484  0.00  0.00    +0.004 A 
BRANCH  23  24
ATOM     24  C   UNL     1      -5.880   1.679  25.382  0.00  0.00    -0.013 C 
ATOM     27  C   UNL     1      -6.542   1.621  26.795  0.00  0.00    +0.015 C 
ATOM     28  C   UNL     1      -5.376   0.242  25.041  0.00  0.00    +0.015 C 
ATOM     29  C   UNL     1      -7.053   1.956  24.385  0.00  0.00    +0.015 C 
ENDBRANCH  23  24
ENDBRANCH  13  15
ENDBRANCH   8  13
BRANCH   9  14
ATOM     14  C   UNL     1      -2.247  -1.226  25.396  0.00  0.00    +0.124 C 
BRANCH  14  17
ATOM      5  O   UNL     1      -3.499  -3.297  25.683  0.00  0.00    -0.251 OA
ATOM     17  C   UNL     1      -3.192  -2.328  25.005  0.00  0.00    +0.305 C 
BRANCH  17   4
ATOM      4  O   UNL     1      -3.676  -2.097  23.757  0.00  0.00    -0.481 OA
ATOM     30  H   UNL     1      -2.956  -1.993  23.100  0.00  0.00    +0.295 HD
ENDBRANCH  17   4
ENDBRANCH  14  17
ENDBRANCH   9  14
TORSDOF 7
ENDMDL
MODEL 2
REMARK VINA RESULT:      -1.5      1.844      4.173
REMARK  Name = 51136761
REMARK  11 active torsions:
REMARK  status: ('A' for Active; 'I' for Inactive)
REMARK    1  A    between atoms: S_1  and  N_6
REMARK    2  A    between atoms: S_1  and  C_19
REMARK    3  A    between atoms: O_4  and  C_17
REMARK    4  A    between atoms: C_8  and  C_13
REMARK    5  A    between atoms: C_9  and  C_14
REMARK    6  A    between atoms: C_13  and  C_15
REMARK    7  A    between atoms: C_14  and  C_17
REMARK    8  A    between atoms: C_23  and  C_24
REMARK    9  A    between atoms: C_24  and  C_27
REMARK   10  A    between atoms: C_24  and  C_28
REMARK   11  A    between atoms: C_24  and  C_29
REMARK                            x       y       z     vdW  Elec       q    Type
REMARK                         _______ _______ _______ _____ _____    ______ ____
ROOT
ATOM      6  N   UNL     1      -1.851  -1.345  24.489  0.00  0.00    -0.181 NA
ATOM      8  C   UNL     1      -0.202   0.497  24.249  0.00  0.00    +0.014 C 
ATOM      9  C   UNL     1       0.769  -0.491  23.560  0.00  0.00    +0.006 C 
ATOM     10  C   UNL     1      -1.123  -0.264  25.216  0.00  0.00    +0.113 C 
ATOM     11  C   UNL     1       0.012  -1.655  22.903  0.00  0.00    +0.021 C 
ATOM     12  C   UNL     1      -0.920  -2.345  23.893  0.00  0.00    +0.109 C 
ENDROOT
BRANCH   6   1
ATOM      1  S   UNL     1      -3.202  -2.003  25.316  0.00  0.00    +0.029 S 
ATOM      2  O   UNL     1      -3.732  -0.998  26.210  0.00  0.00    -0.158 OA
ATOM      3  O   UNL     1      -2.860  -3.330  25.778  0.00  0.00    -0.158 OA
ATOM     19  C   UNL     1      -4.318  -2.167  23.947  0.00  0.00    +0.215 C 
ENDBRANCH   6   1
BRANCH   8  13
ATOM     13  C   UNL     1      -1.029   1.344  23.275  0.00  0.00    +0.060 C 
BRANCH  13  15
ATOM      7  N   UNL     1      -0.243   3.592  23.584  0.00  0.00    -0.287 NA
ATOM     15  C   UNL     1      -1.188   2.744  23.819  0.00  0.00    +0.044 C 
ATOM     16  C   UNL     1      -2.409   3.073  24.598  0.00  0.00    -0.001 A 
ATOM     18  C   UNL     1      -2.355   4.220  25.401  0.00  0.00    -0.037 A 
ATOM     20  C   UNL     1      -1.086   5.018  25.432  0.00  0.00    +0.059 C 
ATOM     21  C   UNL     1      -0.426   4.968  24.061  0.00  0.00    +0.146 C 
ATOM     22  C   UNL     1      -3.563   2.288  24.562  0.00  0.00    +0.014 A 
ATOM     23  C   UNL     1      -4.664   2.647  25.341  0.00  0.00    -0.041 A 
ATOM     25  C   UNL     1      -3.457   4.562  26.191  0.00  0.00    +0.004 A 
ATOM     26  C   UNL     1      -4.611   3.778  26.155  0.00  0.00    +0.004 A 
BRANCH  23  24
ATOM     24  C   UNL     1      -5.904   1.820  25.300  0.00  0.00    -0.013 C 
ATOM     27  C   UNL     1      -6.439   1.530  26.738  0.00  0.00    +0.015 C 
ATOM     28  C   UNL     1      -5.645   0.445  24.609  0.00  0.00    +0.015 C 
ATOM     29  C   UNL     1      -7.109   2.453  24.528  0.00  0.00    +0.015 C 
ENDBRANCH  23  24
ENDBRANCH  13  15
ENDBRANCH   8  13
BRANCH   9  14
ATOM     14  C   UNL     1       1.699   0.184  22.552  0.00  0.00    +0.124 C 
BRANCH  14  17
ATOM      5  O   UNL     1       3.855   1.187  23.085  0.00  0.00    -0.251 OA
ATOM     17  C   UNL     1       3.121   0.212  23.040  0.00  0.00    +0.305 C 
BRANCH  17   4
ATOM      4  O   UNL     1       3.493  -1.032  23.439  0.00  0.00    -0.481 OA
ATOM     30  H   UNL     1       4.227  -1.386  22.894  0.00  0.00    +0.295 HD
ENDBRANCH  17   4
ENDBRANCH  14  17
ENDBRANCH   9  14
TORSDOF 7
ENDMDL
MODEL 3
REMARK VINA RESULT:       1.1      2.701      5.577
REMARK  Name = 51136761
REMARK  11 active torsions:
REMARK  status: ('A' for Active; 'I' for Inactive)
REMARK    1  A    between atoms: S_1  and  N_6
REMARK    2  A    between atoms: S_1  and  C_19
REMARK    3  A    between atoms: O_4  and  C_17
REMARK    4  A    between atoms: C_8  and  C_13
REMARK    5  A    between atoms: C_9  and  C_14
REMARK    6  A    between atoms: C_13  and  C_15
REMARK    7  A    between atoms: C_14  and  C_17
REMARK    8  A    between atoms: C_23  and  C_24
REMARK    9  A    between atoms: C_24  and  C_27
REMARK   10  A    between atoms: C_24  and  C_28
REMARK   11  A    between atoms: C_24  and  C_29
REMARK                            x       y       z     vdW  Elec       q    Type
REMARK                         _______ _______ _______ _____ _____    ______ ____
ROOT
ATOM      6  N   UNL     1      -0.795   3.204  24.505  0.00  0.00    -0.181 NA
ATOM      8  C   UNL     1      -0.450   0.886  23.681  0.00  0.00    +0.014 C 
ATOM      9  C   UNL     1       0.956   1.297  23.180  0.00  0.00    +0.006 C 
ATOM     10  C   UNL     1      -1.382   2.107  23.680  0.00  0.00    +0.113 C 
ATOM     11  C   UNL     1       1.506   2.494  23.971  0.00  0.00    +0.021 C 
ATOM     12  C   UNL     1       0.522   3.659  23.976  0.00  0.00    +0.109 C 
ENDROOT
BRANCH   6   1
ATOM      1  S   UNL     1      -1.882   4.456  24.940  0.00  0.00    +0.029 S 
ATOM      2  O   UNL     1      -3.020   4.412  24.050  0.00  0.00    -0.158 OA
ATOM      3  O   UNL     1      -1.127   5.671  25.152  0.00  0.00    -0.158 OA
ATOM     19  C   UNL     1      -2.397   3.846  26.524  0.00  0.00    +0.215 C 
ENDBRANCH   6   1
BRANCH   8  13
ATOM     13  C   UNL     1      -0.450   0.210  25.058  0.00  0.00    +0.060 C 
BRANCH  13  15
ATOM      7  N   UNL     1      -0.765  -2.166  25.199  0.00  0.00    -0.287 NA
ATOM     15  C   UNL     1      -1.329  -1.017  25.027  0.00  0.00    +0.044 C 
ATOM     16  C   UNL     1      -2.786  -0.846  24.795  0.00  0.00    -0.001 A 
ATOM     18  C   UNL     1      -3.498  -1.984  24.391  0.00  0.00    -0.037 A 
ATOM     20  C   UNL     1      -2.753  -3.272  24.207  0.00  0.00    +0.059 C 
ATOM     21  C   UNL     1      -1.627  -3.353  25.230  0.00  0.00    +0.146 C 
ATOM     22  C   UNL     1      -3.438   0.378  24.952  0.00  0.00    +0.014 A 
ATOM     23  C   UNL     1      -4.807   0.467  24.691  0.00  0.00    -0.041 A 
ATOM     25  C   UNL     1      -4.865  -1.881  24.116  0.00  0.00    +0.004 A 
ATOM     26  C   UNL     1      -5.518  -0.658  24.272  0.00  0.00    +0.004 A 
BRANCH  23  24
ATOM     24  C   UNL     1      -5.513   1.769  24.866  0.00  0.00    -0.013 C 
ATOM     27  C   UNL     1      -7.020   1.652  24.474  0.00  0.00    +0.015 C 
ATOM     28  C   UNL     1      -4.880   2.881  23.973  0.00  0.00    +0.015 C 
ATOM     29  C   UNL     1      -5.505   2.348  26.319  0.00  0.00    +0.015 C 
ENDBRANCH  23  24
ENDBRANCH  13  15
ENDBRANCH   8  13
BRANCH   9  14
ATOM     14  C   UNL     1       1.957   0.142  23.184  0.00  0.00    +0.124 C 
BRANCH  14  17
ATOM      5  O   UNL     1       4.274   0.858  23.423  0.00  0.00    -0.251 OA
ATOM     17  C   UNL     1       3.316   0.583  22.716  0.00  0.00    +0.305 C 
BRANCH  17   4
ATOM      4  O   UNL     1       3.339   0.638  21.360  0.00  0.00    -0.481 OA
ATOM     30  H   UNL     1       3.561  -0.230  20.962  0.00  0.00    +0.295 HD
ENDBRANCH  17   4
ENDBRANCH  14  17
ENDBRANCH   9  14
TORSDOF 7
ENDMDL
MODEL 4
REMARK VINA RESULT:       1.9      2.260      4.304
REMARK  Name = 51136761
REMARK  11 active torsions:
REMARK  status: ('A' for Active; 'I' for Inactive)
REMARK    1  A    between atoms: S_1  and  N_6
REMARK    2  A    between atoms: S_1  and  C_19
REMARK    3  A    between atoms: O_4  and  C_17
REMARK    4  A    between atoms: C_8  and  C_13
REMARK    5  A    between atoms: C_9  and  C_14
REMARK    6  A    between atoms: C_13  and  C_15
REMARK    7  A    between atoms: C_14  and  C_17
REMARK    8  A    between atoms: C_23  and  C_24
REMARK    9  A    between atoms: C_24  and  C_27
REMARK   10  A    between atoms: C_24  and  C_28
REMARK   11  A    between atoms: C_24  and  C_29
REMARK                            x       y       z     vdW  Elec       q    Type
REMARK                         _______ _______ _______ _____ _____    ______ ____
ROOT
ATOM      6  N   UNL     1       0.469   0.723  23.372  0.00  0.00    -0.181 NA
ATOM      8  C   UNL     1      -0.225   2.596  24.849  0.00  0.00    +0.014 C 
ATOM      9  C   UNL     1      -1.389   2.905  23.876  0.00  0.00    +0.006 C 
ATOM     10  C   UNL     1       0.939   1.948  24.084  0.00  0.00    +0.113 C 
ATOM     11  C   UNL     1      -1.795   1.658  23.075  0.00  0.00    +0.021 C 
ATOM     12  C   UNL     1      -0.595   1.029  22.374  0.00  0.00    +0.109 C 
ENDROOT
BRANCH   6   1
ATOM      1  S   UNL     1       1.708  -0.328  22.824  0.00  0.00    +0.029 S 
ATOM      2  O   UNL     1       1.420  -0.711  21.460  0.00  0.00    -0.158 OA
ATOM      3  O   UNL     1       1.970  -1.310  23.852  0.00  0.00    -0.158 OA
ATOM     19  C   UNL     1       3.060   0.820  22.800  0.00  0.00    +0.215 C 
ENDBRANCH   6   1
BRANCH   8  13
ATOM     13  C   UNL     1      -0.627   1.731  26.050  0.00  0.00    +0.060 C 
BRANCH  13  15
ATOM      7  N   UNL     1      -0.198  -0.573  25.525  0.00  0.00    -0.287 NA
ATOM     15  C   UNL     1      -1.079   0.371  25.574  0.00  0.00    +0.044 C 
ATOM     16  C   UNL     1      -2.500   0.187  25.183  0.00  0.00    -0.001 A 
ATOM     18  C   UNL     1      -2.797  -0.935  24.398  0.00  0.00    -0.037 A 
ATOM     20  C   UNL     1      -1.680  -1.852  24.000  0.00  0.00    +0.059 C 
ATOM     21  C   UNL     1      -0.650  -1.909  25.121  0.00  0.00    +0.146 C 
ATOM     22  C   UNL     1      -3.508   1.080  25.553  0.00  0.00    +0.014 A 
ATOM     23  C   UNL     1      -4.817   0.854  25.125  0.00  0.00    -0.041 A 
ATOM     25  C   UNL     1      -4.109  -1.144  23.962  0.00  0.00    +0.004 A 
ATOM     26  C   UNL     1      -5.117  -0.253  24.331  0.00  0.00    +0.004 A 
BRANCH  23  24
ATOM     24  C   UNL     1      -5.901   1.796  25.524  0.00  0.00    -0.013 C 
ATOM     27  C   UNL     1      -6.523   1.394  26.899  0.00  0.00    +0.015 C 
ATOM     28  C   UNL     1      -7.055   1.810  24.473  0.00  0.00    +0.015 C 
ATOM     29  C   UNL     1      -5.467   3.291  25.685  0.00  0.00    +0.015 C 
ENDBRANCH  23  24
ENDBRANCH  13  15
ENDBRANCH   8  13
BRANCH   9  14
ATOM     14  C   UNL     1      -2.604   3.521  24.568  0.00  0.00    +0.124 C 
BRANCH  14  17
ATOM      5  O   UNL     1      -1.470   5.596  25.156  0.00  0.00    -0.251 OA
ATOM     17  C   UNL     1      -2.215   4.674  25.451  0.00  0.00    +0.305 C 
BRANCH  17   4
ATOM      4  O   UNL     1      -2.820   4.550  26.660  0.00  0.00    -0.481 OA
ATOM     30  H   UNL     1      -3.489   5.251  26.808  0.00  0.00    +0.295 HD
ENDBRANCH  17   4
ENDBRANCH  14  17
ENDBRANCH   9  14
TORSDOF 7
ENDMDL
MODEL 5
REMARK VINA RESULT:       2.2      2.638      6.430
REMARK  Name = 51136761
REMARK  11 active torsions:
REMARK  status: ('A' for Active; 'I' for Inactive)
REMARK    1  A    between atoms: S_1  and  N_6
REMARK    2  A    between atoms: S_1  and  C_19
REMARK    3  A    between atoms: O_4  and  C_17
REMARK    4  A    between atoms: C_8  and  C_13
REMARK    5  A    between atoms: C_9  and  C_14
REMARK    6  A    between atoms: C_13  and  C_15
REMARK    7  A    between atoms: C_14  and  C_17
REMARK    8  A    between atoms: C_23  and  C_24
REMARK    9  A    between atoms: C_24  and  C_27
REMARK   10  A    between atoms: C_24  and  C_28
REMARK   11  A    between atoms: C_24  and  C_29
REMARK                            x       y       z     vdW  Elec       q    Type
REMARK                         _______ _______ _______ _____ _____    ______ ____
ROOT
ATOM      6  N   UNL     1      -1.912   3.831  24.619  0.00  0.00    -0.181 NA
ATOM      8  C   UNL     1      -3.677   2.153  25.108  0.00  0.00    +0.014 C 
ATOM      9  C   UNL     1      -4.729   3.288  25.100  0.00  0.00    +0.006 C 
ATOM     10  C   UNL     1      -2.308   2.712  25.525  0.00  0.00    +0.113 C 
ATOM     11  C   UNL     1      -4.263   4.478  24.246  0.00  0.00    +0.021 C 
ATOM     12  C   UNL     1      -2.881   4.962  24.671  0.00  0.00    +0.109 C 
ENDROOT
BRANCH   6   1
ATOM      1  S   UNL     1      -0.258   4.278  24.686  0.00  0.00    +0.029 S 
ATOM      2  O   UNL     1      -0.168   5.651  25.133  0.00  0.00    -0.158 OA
ATOM      3  O   UNL     1       0.393   3.826  23.478  0.00  0.00    -0.158 OA
ATOM     19  C   UNL     1       0.264   3.230  26.019  0.00  0.00    +0.215 C 
ENDBRANCH   6   1
BRANCH   8  13
ATOM     13  C   UNL     1      -3.567   1.393  23.781  0.00  0.00    +0.060 C 
BRANCH  13  15
ATOM      7  N   UNL     1      -4.579  -0.741  24.218  0.00  0.00    -0.287 NA
ATOM     15  C   UNL     1      -3.475  -0.092  24.046  0.00  0.00    +0.044 C 
ATOM     16  C   UNL     1      -2.134  -0.726  24.103  0.00  0.00    -0.001 A 
ATOM     18  C   UNL     1      -2.056  -1.982  24.720  0.00  0.00    -0.037 A 
ATOM     20  C   UNL     1      -3.307  -2.586  25.285  0.00  0.00    +0.059 C 
ATOM     21  C   UNL     1      -4.493  -2.193  24.414  0.00  0.00    +0.146 C 
ATOM     22  C   UNL     1      -0.987  -0.117  23.589  0.00  0.00    +0.014 A 
ATOM     23  C   UNL     1       0.244  -0.764  23.702  0.00  0.00    -0.041 A 
ATOM     25  C   UNL     1      -0.815  -2.614  24.843  0.00  0.00    +0.004 A 
ATOM     26  C   UNL     1       0.331  -2.007  24.329  0.00  0.00    +0.004 A 
BRANCH  23  24
ATOM     24  C   UNL     1       1.472  -0.126  23.146  0.00  0.00    -0.013 C 
ATOM     27  C   UNL     1       1.581   1.368  23.584  0.00  0.00    +0.015 C 
ATOM     28  C   UNL     1       1.469  -0.159  21.586  0.00  0.00    +0.015 C 
ATOM     29  C   UNL     1       2.825  -0.785  23.573  0.00  0.00    +0.015 C 
ENDBRANCH  23  24
ENDBRANCH  13  15
ENDBRANCH   8  13
BRANCH   9  14
ATOM     14  C   UNL     1      -6.116   2.820  24.661  0.00  0.00    +0.124 C 
BRANCH  14  17
ATOM      5  O   UNL     1      -6.609   1.546  26.679  0.00  0.00    -0.251 OA
ATOM     17  C   UNL     1      -6.581   1.635  25.461  0.00  0.00    +0.305 C 
BRANCH  17   4
ATOM      4  O   UNL     1      -6.980   0.643  24.624  0.00  0.00    -0.481 OA
ATOM     30  H   UNL     1      -7.710   0.932  24.037  0.00  0.00    +0.295 HD
ENDBRANCH  17   4
ENDBRANCH  14  17
ENDBRANCH   9  14
TORSDOF 7
ENDMDL
