MODEL 1
REMARK VINA RESULT:      13.9      0.000      0.000
REMARK  Name = 11883181
REMARK  10 active torsions:
REMARK  status: ('A' for Active; 'I' for Inactive)
REMARK    1  A    between atoms: O_3  and  C_14
REMARK    2  A    between atoms: O_4  and  C_19
REMARK    3  A    between atoms: O_6  and  C_32
REMARK    4  A    between atoms: N_8  and  C_26
REMARK    5  A    between atoms: C_9  and  C_17
REMARK    6  A    between atoms: C_11  and  C_19
REMARK    7  A    between atoms: C_11  and  C_20
REMARK    8  A    between atoms: C_12  and  C_22
REMARK    9  A    between atoms: C_22  and  C_23
REMARK   10  A    between atoms: C_24  and  C_25
REMARK                            x       y       z     vdW  Elec       q    Type
REMARK                         _______ _______ _______ _____ _____    ______ ____
ROOT
ATOM      1  S   UNL     1       1.314  -1.527  23.031  0.00  0.00    -0.072 S 
ATOM      7  N   UNL     1       1.569   0.826  24.075  0.00  0.00    -0.243 NA
ATOM      9  C   UNL     1      -2.278   1.088  24.104  0.00  0.00    -0.020 C 
ATOM     10  C   UNL     1      -2.462  -0.481  24.300  0.00  0.00    +0.011 C 
ATOM     11  C   UNL     1      -3.937  -1.039  24.267  0.00  0.00    +0.021 C 
ATOM     12  C   UNL     1      -0.810   1.478  24.602  0.00  0.00    +0.053 C 
ATOM     13  C   UNL     1      -3.308   1.841  24.985  0.00  0.00    +0.010 C 
ATOM     14  C   UNL     1      -4.841  -0.144  25.161  0.00  0.00    +0.123 C 
ATOM     15  C   UNL     1      -1.468  -1.285  23.411  0.00  0.00    +0.049 C 
ATOM     16  C   UNL     1      -4.737   1.339  24.829  0.00  0.00    +0.032 C 
ATOM     17  C   UNL     1      -2.459   1.537  22.633  0.00  0.00    +0.012 C 
ATOM     18  C   UNL     1       0.220   0.526  24.050  0.00  0.00    +0.056 A 
ATOM     20  C   UNL     1      -3.951  -2.468  24.878  0.00  0.00    +0.016 C 
ATOM     21  C   UNL     1      -0.095  -0.717  23.538  0.00  0.00    +0.014 A 
ATOM     24  C   UNL     1       2.240  -0.179  23.555  0.00  0.00    +0.109 A 
ENDROOT
BRANCH  24  25
ATOM      2  S   UNL     1       6.170  -0.875  23.588  0.00  0.00    -0.104 S 
ATOM     25  C   UNL     1       3.714  -0.153  23.432  0.00  0.00    +0.014 A 
ATOM     27  C   UNL     1       4.470   0.914  22.875  0.00  0.00    +0.018 A 
ATOM     28  C   UNL     1       4.509  -1.190  23.860  0.00  0.00    +0.055 A 
ATOM     29  C   UNL     1       5.822   0.653  22.896  0.00  0.00    +0.046 A 
ENDBRANCH  24  25
BRANCH  14   3
ATOM      3  O   UNL     1      -6.208  -0.544  25.053  0.00  0.00    -0.391 OA
ATOM     35  H   UNL     1      -6.477  -0.929  25.902  0.00  0.00    +0.210 HD
ENDBRANCH  14   3
BRANCH  11  19
ATOM     19  C   UNL     1      -4.535  -1.186  22.851  0.00  0.00    +0.165 C 
BRANCH  19   4
ATOM      4  O   UNL     1      -4.685  -2.562  22.586  0.00  0.00    -0.394 OA
ATOM     36  H   UNL     1      -4.062  -2.803  21.880  0.00  0.00    +0.209 HD
ENDBRANCH  19   4
ENDBRANCH  11  19
BRANCH  12  22
ATOM     22  C   UNL     1      -0.417   2.939  24.346  0.00  0.00    +0.106 C 
BRANCH  22  23
ATOM      5  O   UNL     1       0.362   4.794  25.671  0.00  0.00    -0.275 OA
ATOM      8  N   UNL     1       0.615   2.598  26.466  0.00  0.00    -0.285 N 
ATOM     23  C   UNL     1       0.227   3.580  25.559  0.00  0.00    +0.218 C 
ATOM     37  H   UNL     1       0.439   1.627  26.218  0.00  0.00    +0.155 HD
BRANCH   8  26
ATOM     26  C   UNL     1       1.248   2.783  27.718  0.00  0.00    +0.037 A 
ATOM     30  C   UNL     1       0.557   2.476  28.878  0.00  0.00    +0.068 A 
ATOM     31  C   UNL     1       2.545   3.266  27.756  0.00  0.00    +0.023 A 
ATOM     32  C   UNL     1       1.182   2.657  30.112  0.00  0.00    +0.119 A 
ATOM     33  C   UNL     1       3.169   3.448  28.990  0.00  0.00    +0.005 A 
ATOM     34  C   UNL     1       2.487   3.143  30.168  0.00  0.00    +0.045 A 
BRANCH  32   6
ATOM      6  O   UNL     1       0.516   2.360  31.262  0.00  0.00    -0.507 OA
ATOM     38  H   UNL     1      -0.435   2.512  31.124  0.00  0.00    +0.292 HD
ENDBRANCH  32   6
ENDBRANCH   8  26
ENDBRANCH  22  23
ENDBRANCH  12  22
TORSDOF 8
ENDMDL
MODEL 2
REMARK VINA RESULT:      14.2      1.615      2.063
REMARK  Name = 11883181
REMARK  10 active torsions:
REMARK  status: ('A' for Active; 'I' for Inactive)
REMARK    1  A    between atoms: O_3  and  C_14
REMARK    2  A    between atoms: O_4  and  C_19
REMARK    3  A    between atoms: O_6  and  C_32
REMARK    4  A    between atoms: N_8  and  C_26
REMARK    5  A    between atoms: C_9  and  C_17
REMARK    6  A    between atoms: C_11  and  C_19
REMARK    7  A    between atoms: C_11  and  C_20
REMARK    8  A    between atoms: C_12  and  C_22
REMARK    9  A    between atoms: C_22  and  C_23
REMARK   10  A    between atoms: C_24  and  C_25
REMARK                            x       y       z     vdW  Elec       q    Type
REMARK                         _______ _______ _______ _____ _____    ______ ____
ROOT
ATOM      1  S   UNL     1      -0.526  -0.607  23.080  0.00  0.00    -0.072 S 
ATOM      7  N   UNL     1       0.428   1.484  24.269  0.00  0.00    -0.243 NA
ATOM      9  C   UNL     1      -3.201   2.666  24.819  0.00  0.00    -0.020 C 
ATOM     10  C   UNL     1      -3.756   1.177  24.908  0.00  0.00    +0.011 C 
ATOM     11  C   UNL     1      -5.319   1.001  25.023  0.00  0.00    +0.021 C 
ATOM     12  C   UNL     1      -1.638   2.631  25.152  0.00  0.00    +0.053 C 
ATOM     13  C   UNL     1      -3.907   3.544  25.884  0.00  0.00    +0.010 C 
ATOM     14  C   UNL     1      -5.867   1.983  26.096  0.00  0.00    +0.123 C 
ATOM     15  C   UNL     1      -3.099   0.260  23.836  0.00  0.00    +0.049 C 
ATOM     16  C   UNL     1      -5.425   3.425  25.874  0.00  0.00    +0.032 C 
ATOM     17  C   UNL     1      -3.416   3.306  23.425  0.00  0.00    +0.012 C 
ATOM     18  C   UNL     1      -0.948   1.524  24.396  0.00  0.00    +0.056 A 
ATOM     20  C   UNL     1      -5.632  -0.441  25.512  0.00  0.00    +0.016 C 
ATOM     21  C   UNL     1      -1.621   0.460  23.830  0.00  0.00    +0.014 A 
ATOM     24  C   UNL     1       0.763   0.410  23.587  0.00  0.00    +0.109 A 
ENDROOT
BRANCH  24  25
ATOM      2  S   UNL     1       4.599   0.357  22.488  0.00  0.00    -0.104 S 
ATOM     25  C   UNL     1       2.173   0.091  23.276  0.00  0.00    +0.014 A 
ATOM     27  C   UNL     1       2.793  -1.171  23.488  0.00  0.00    +0.018 A 
ATOM     28  C   UNL     1       3.037   1.015  22.738  0.00  0.00    +0.055 A 
ATOM     29  C   UNL     1       4.115  -1.167  23.101  0.00  0.00    +0.046 A 
ENDBRANCH  24  25
BRANCH  14   3
ATOM      3  O   UNL     1      -7.294   1.941  26.134  0.00  0.00    -0.391 OA
ATOM     35  H   UNL     1      -7.627   2.252  25.277  0.00  0.00    +0.210 HD
ENDBRANCH  14   3
BRANCH  11  19
ATOM     19  C   UNL     1      -6.081   1.162  23.688  0.00  0.00    +0.165 C 
BRANCH  19   4
ATOM      4  O   UNL     1      -7.397   1.567  23.990  0.00  0.00    -0.394 OA
ATOM     36  H   UNL     1      -7.716   1.029  24.734  0.00  0.00    +0.209 HD
ENDBRANCH  19   4
ENDBRANCH  11  19
BRANCH  12  22
ATOM     22  C   UNL     1      -0.916   3.972  24.966  0.00  0.00    +0.106 C 
BRANCH  22  23
ATOM      5  O   UNL     1       0.997   5.101  25.899  0.00  0.00    -0.275 OA
ATOM      8  N   UNL     1       0.239   3.094  26.856  0.00  0.00    -0.285 N 
ATOM     23  C   UNL     1       0.226   4.148  25.947  0.00  0.00    +0.218 C 
ATOM     37  H   UNL     1      -0.471   2.371  26.754  0.00  0.00    +0.155 HD
BRANCH   8  26
ATOM     26  C   UNL     1       1.142   2.889  27.926  0.00  0.00    +0.037 A 
ATOM     30  C   UNL     1       0.652   2.494  29.160  0.00  0.00    +0.068 A 
ATOM     31  C   UNL     1       2.496   3.089  27.717  0.00  0.00    +0.023 A 
ATOM     32  C   UNL     1       1.543   2.291  30.214  0.00  0.00    +0.119 A 
ATOM     33  C   UNL     1       3.386   2.887  28.771  0.00  0.00    +0.005 A 
ATOM     34  C   UNL     1       2.910   2.489  30.020  0.00  0.00    +0.045 A 
BRANCH  32   6
ATOM      6  O   UNL     1       1.077   1.902  31.432  0.00  0.00    -0.507 OA
ATOM     38  H   UNL     1       1.819   1.878  32.060  0.00  0.00    +0.292 HD
ENDBRANCH  32   6
ENDBRANCH   8  26
ENDBRANCH  22  23
ENDBRANCH  12  22
TORSDOF 8
ENDMDL
MODEL 3
REMARK VINA RESULT:      15.2      1.719      2.101
REMARK  Name = 11883181
REMARK  10 active torsions:
REMARK  status: ('A' for Active; 'I' for Inactive)
REMARK    1  A    between atoms: O_3  and  C_14
REMARK    2  A    between atoms: O_4  and  C_19
REMARK    3  A    between atoms: O_6  and  C_32
REMARK    4  A    between atoms: N_8  and  C_26
REMARK    5  A    between atoms: C_9  and  C_17
REMARK    6  A    between atoms: C_11  and  C_19
REMARK    7  A    between atoms: C_11  and  C_20
REMARK    8  A    between atoms: C_12  and  C_22
REMARK    9  A    between atoms: C_22  and  C_23
REMARK   10  A    between atoms: C_24  and  C_25
REMARK                            x       y       z     vdW  Elec       q    Type
REMARK                         _______ _______ _______ _____ _____    ______ ____
ROOT
ATOM      1  S   UNL     1       0.360  -0.269  22.809  0.00  0.00    -0.072 S 
ATOM      7  N   UNL     1       1.368   1.379  24.530  0.00  0.00    -0.243 NA
ATOM      9  C   UNL     1      -2.172   2.829  25.018  0.00  0.00    -0.020 C 
ATOM     10  C   UNL     1      -2.872   1.432  24.710  0.00  0.00    +0.011 C 
ATOM     11  C   UNL     1      -4.448   1.421  24.642  0.00  0.00    +0.021 C 
ATOM     12  C   UNL     1      -0.667   2.537  25.470  0.00  0.00    +0.053 C 
ATOM     13  C   UNL     1      -2.908   3.526  26.192  0.00  0.00    +0.010 C 
ATOM     14  C   UNL     1      -5.018   2.198  25.862  0.00  0.00    +0.123 C 
ATOM     15  C   UNL     1      -2.188   0.705  23.516  0.00  0.00    +0.049 C 
ATOM     16  C   UNL     1      -4.419   3.591  26.021  0.00  0.00    +0.032 C 
ATOM     17  C   UNL     1      -2.168   3.782  23.797  0.00  0.00    +0.012 C 
ATOM     18  C   UNL     1      -0.004   1.552  24.541  0.00  0.00    +0.056 A 
ATOM     20  C   UNL     1      -4.949  -0.047  24.754  0.00  0.00    +0.016 C 
ATOM     21  C   UNL     1      -0.706   0.727  23.687  0.00  0.00    +0.014 A 
ATOM     24  C   UNL     1       1.674   0.451  23.650  0.00  0.00    +0.109 A 
ENDROOT
BRANCH  24  25
ATOM      2  S   UNL     1       5.216  -1.364  23.355  0.00  0.00    -0.104 S 
ATOM     25  C   UNL     1       3.074   0.045  23.399  0.00  0.00    +0.014 A 
ATOM     27  C   UNL     1       4.056   0.848  22.756  0.00  0.00    +0.018 A 
ATOM     28  C   UNL     1       3.566  -1.182  23.777  0.00  0.00    +0.055 A 
ATOM     29  C   UNL     1       5.269   0.202  22.665  0.00  0.00    +0.046 A 
ENDBRANCH  24  25
BRANCH  14   3
ATOM      3  O   UNL     1      -6.438   2.317  25.763  0.00  0.00    -0.391 OA
ATOM     35  H   UNL     1      -6.755   2.794  26.547  0.00  0.00    +0.210 HD
ENDBRANCH  14   3
BRANCH  11  19
ATOM     19  C   UNL     1      -5.036   1.961  23.320  0.00  0.00    +0.165 C 
BRANCH  19   4
ATOM      4  O   UNL     1      -4.646   3.310  23.193  0.00  0.00    -0.394 OA
ATOM     36  H   UNL     1      -5.142   3.830  23.847  0.00  0.00    +0.209 HD
ENDBRANCH  19   4
ENDBRANCH  11  19
BRANCH  12  22
ATOM     22  C   UNL     1       0.195   3.791  25.665  0.00  0.00    +0.106 C 
BRANCH  22  23
ATOM      5  O   UNL     1       2.124   4.327  27.005  0.00  0.00    -0.275 OA
ATOM      8  N   UNL     1       0.525   2.805  27.808  0.00  0.00    -0.285 N 
ATOM     23  C   UNL     1       1.080   3.693  26.891  0.00  0.00    +0.218 C 
ATOM     37  H   UNL     1      -0.350   2.348  27.557  0.00  0.00    +0.155 HD
BRANCH   8  26
ATOM     26  C   UNL     1       1.041   2.438  29.074  0.00  0.00    +0.037 A 
ATOM     30  C   UNL     1       0.263   2.626  30.203  0.00  0.00    +0.068 A 
ATOM     31  C   UNL     1       2.314   1.898  29.155  0.00  0.00    +0.023 A 
ATOM     32  C   UNL     1       0.771   2.264  31.450  0.00  0.00    +0.119 A 
ATOM     33  C   UNL     1       2.822   1.537  30.403  0.00  0.00    +0.005 A 
ATOM     34  C   UNL     1       2.051   1.719  31.550  0.00  0.00    +0.045 A 
BRANCH  32   6
ATOM      6  O   UNL     1       0.018   2.442  32.570  0.00  0.00    -0.507 OA
ATOM     38  H   UNL     1       0.572   2.279  33.352  0.00  0.00    +0.292 HD
ENDBRANCH  32   6
ENDBRANCH   8  26
ENDBRANCH  22  23
ENDBRANCH  12  22
TORSDOF 8
ENDMDL
MODEL 4
REMARK VINA RESULT:      15.6      3.638      7.653
REMARK  Name = 11883181
REMARK  10 active torsions:
REMARK  status: ('A' for Active; 'I' for Inactive)
REMARK    1  A    between atoms: O_3  and  C_14
REMARK    2  A    between atoms: O_4  and  C_19
REMARK    3  A    between atoms: O_6  and  C_32
REMARK    4  A    between atoms: N_8  and  C_26
REMARK    5  A    between atoms: C_9  and  C_17
REMARK    6  A    between atoms: C_11  and  C_19
REMARK    7  A    between atoms: C_11  and  C_20
REMARK    8  A    between atoms: C_12  and  C_22
REMARK    9  A    between atoms: C_22  and  C_23
REMARK   10  A    between atoms: C_24  and  C_25
REMARK                            x       y       z     vdW  Elec       q    Type
REMARK                         _______ _______ _______ _____ _____    ______ ____
ROOT
ATOM      1  S   UNL     1      -0.307   3.712  23.884  0.00  0.00    -0.072 S 
ATOM      7  N   UNL     1      -1.397   1.679  25.056  0.00  0.00    -0.243 NA
ATOM      9  C   UNL     1       1.509  -0.480  23.728  0.00  0.00    -0.020 C 
ATOM     10  C   UNL     1       2.537   0.735  23.773  0.00  0.00    +0.011 C 
ATOM     11  C   UNL     1       3.980   0.475  23.193  0.00  0.00    +0.021 C 
ATOM     12  C   UNL     1       0.310  -0.149  24.732  0.00  0.00    +0.053 C 
ATOM     13  C   UNL     1       2.214  -1.770  24.218  0.00  0.00    +0.010 C 
ATOM     14  C   UNL     1       4.517  -0.875  23.747  0.00  0.00    +0.123 C 
ATOM     15  C   UNL     1       1.883   2.052  23.260  0.00  0.00    +0.049 C 
ATOM     16  C   UNL     1       3.552  -2.037  23.541  0.00  0.00    +0.032 C 
ATOM     17  C   UNL     1       0.938  -0.732  22.310  0.00  0.00    +0.012 C 
ATOM     18  C   UNL     1      -0.185   1.262  24.540  0.00  0.00    +0.056 A 
ATOM     20  C   UNL     1       4.936   1.593  23.693  0.00  0.00    +0.016 C 
ATOM     21  C   UNL     1       0.546   2.238  23.893  0.00  0.00    +0.014 A 
ATOM     24  C   UNL     1      -1.570   2.951  24.764  0.00  0.00    +0.109 A 
ENDROOT
BRANCH  24  25
ATOM      2  S   UNL     1      -5.088   4.813  25.064  0.00  0.00    -0.104 S 
ATOM     25  C   UNL     1      -2.786   3.687  25.174  0.00  0.00    +0.014 A 
ATOM     27  C   UNL     1      -3.029   4.205  26.476  0.00  0.00    +0.018 A 
ATOM     28  C   UNL     1      -3.821   3.944  24.306  0.00  0.00    +0.055 A 
ATOM     29  C   UNL     1      -4.247   4.843  26.556  0.00  0.00    +0.046 A 
ENDBRANCH  24  25
BRANCH  14   3
ATOM      3  O   UNL     1       5.768  -1.205  23.142  0.00  0.00    -0.391 OA
ATOM     35  H   UNL     1       6.437  -0.586  23.477  0.00  0.00    +0.210 HD
ENDBRANCH  14   3
BRANCH  11  19
ATOM     19  C   UNL     1       4.067   0.511  21.651  0.00  0.00    +0.165 C 
BRANCH  19   4
ATOM      4  O   UNL     1       2.797   0.175  21.139  0.00  0.00    -0.394 OA
ATOM     36  H   UNL     1       2.903  -0.061  20.202  0.00  0.00    +0.209 HD
ENDBRANCH  19   4
ENDBRANCH  11  19
BRANCH  12  22
ATOM     22  C   UNL     1      -0.846  -1.158  24.699  0.00  0.00    +0.106 C 
BRANCH  22  23
ATOM      5  O   UNL     1      -2.360  -0.384  22.993  0.00  0.00    -0.275 OA
ATOM      8  N   UNL     1      -2.954  -0.199  25.258  0.00  0.00    -0.285 N 
ATOM     23  C   UNL     1      -2.132  -0.539  24.188  0.00  0.00    +0.218 C 
ATOM     37  H   UNL     1      -2.611  -0.387  26.198  0.00  0.00    +0.155 HD
BRANCH   8  26
ATOM     26  C   UNL     1      -4.236   0.398  25.205  0.00  0.00    +0.037 A 
ATOM     30  C   UNL     1      -4.774   0.950  26.354  0.00  0.00    +0.068 A 
ATOM     31  C   UNL     1      -4.924   0.417  24.003  0.00  0.00    +0.023 A 
ATOM     32  C   UNL     1      -6.037   1.540  26.302  0.00  0.00    +0.119 A 
ATOM     33  C   UNL     1      -6.187   1.006  23.951  0.00  0.00    +0.005 A 
ATOM     34  C   UNL     1      -6.744   1.567  25.100  0.00  0.00    +0.045 A 
BRANCH  32   6
ATOM      6  O   UNL     1      -6.580   2.087  27.423  0.00  0.00    -0.507 OA
ATOM     38  H   UNL     1      -7.540   2.176  27.298  0.00  0.00    +0.292 HD
ENDBRANCH  32   6
ENDBRANCH   8  26
ENDBRANCH  22  23
ENDBRANCH  12  22
TORSDOF 8
ENDMDL
MODEL 5
REMARK VINA RESULT:      15.8      3.920      6.148
REMARK  Name = 11883181
REMARK  10 active torsions:
REMARK  status: ('A' for Active; 'I' for Inactive)
REMARK    1  A    between atoms: O_3  and  C_14
REMARK    2  A    between atoms: O_4  and  C_19
REMARK    3  A    between atoms: O_6  and  C_32
REMARK    4  A    between atoms: N_8  and  C_26
REMARK    5  A    between atoms: C_9  and  C_17
REMARK    6  A    between atoms: C_11  and  C_19
REMARK    7  A    between atoms: C_11  and  C_20
REMARK    8  A    between atoms: C_12  and  C_22
REMARK    9  A    between atoms: C_22  and  C_23
REMARK   10  A    between atoms: C_24  and  C_25
REMARK                            x       y       z     vdW  Elec       q    Type
REMARK                         _______ _______ _______ _____ _____    ______ ____
ROOT
ATOM      1  S   UNL     1      -4.650  -1.194  24.365  0.00  0.00    -0.072 S 
ATOM      7  N   UNL     1      -2.122  -0.997  23.853  0.00  0.00    -0.243 NA
ATOM      9  C   UNL     1      -2.435   2.803  24.425  0.00  0.00    -0.020 C 
ATOM     10  C   UNL     1      -3.605   2.626  25.491  0.00  0.00    +0.011 C 
ATOM     11  C   UNL     1      -4.277   3.942  26.041  0.00  0.00    +0.021 C 
ATOM     12  C   UNL     1      -1.627   1.427  24.346  0.00  0.00    +0.053 C 
ATOM     13  C   UNL     1      -1.464   3.913  24.905  0.00  0.00    +0.010 C 
ATOM     14  C   UNL     1      -3.168   4.959  26.431  0.00  0.00    +0.123 C 
ATOM     15  C   UNL     1      -4.626   1.542  25.039  0.00  0.00    +0.049 C 
ATOM     16  C   UNL     1      -2.158   5.204  25.315  0.00  0.00    +0.032 C 
ATOM     17  C   UNL     1      -2.958   3.175  23.015  0.00  0.00    +0.012 C 
ATOM     18  C   UNL     1      -2.566   0.252  24.244  0.00  0.00    +0.056 A 
ATOM     20  C   UNL     1      -5.069   3.603  27.336  0.00  0.00    +0.016 C 
ATOM     21  C   UNL     1      -3.904   0.321  24.578  0.00  0.00    +0.014 A 
ATOM     24  C   UNL     1      -3.135  -1.836  23.871  0.00  0.00    +0.109 A 
ENDROOT
BRANCH  24  25
ATOM      2  S   UNL     1      -3.553  -5.703  22.978  0.00  0.00    -0.104 S 
ATOM     25  C   UNL     1      -2.979  -3.257  23.491  0.00  0.00    +0.014 A 
ATOM     27  C   UNL     1      -1.752  -3.878  23.133  0.00  0.00    +0.018 A 
ATOM     28  C   UNL     1      -4.040  -4.131  23.450  0.00  0.00    +0.055 A 
ATOM     29  C   UNL     1      -1.919  -5.211  22.830  0.00  0.00    +0.046 A 
ENDBRANCH  24  25
BRANCH  14   3
ATOM      3  O   UNL     1      -3.743   6.210  26.812  0.00  0.00    -0.391 OA
ATOM     35  H   UNL     1      -3.744   6.257  27.781  0.00  0.00    +0.210 HD
ENDBRANCH  14   3
BRANCH  11  19
ATOM     19  C   UNL     1      -5.304   4.587  25.083  0.00  0.00    +0.165 C 
BRANCH  19   4
ATOM      4  O   UNL     1      -6.471   4.863  25.824  0.00  0.00    -0.394 OA
ATOM     36  H   UNL     1      -6.485   4.272  26.595  0.00  0.00    +0.209 HD
ENDBRANCH  19   4
ENDBRANCH  11  19
BRANCH  12  22
ATOM     22  C   UNL     1      -0.551   1.380  23.253  0.00  0.00    +0.106 C 
BRANCH  22  23
ATOM      5  O   UNL     1       1.160   1.812  24.893  0.00  0.00    -0.275 OA
ATOM      8  N   UNL     1       1.661   0.538  22.985  0.00  0.00    -0.285 N 
ATOM     23  C   UNL     1       0.847   1.285  23.830  0.00  0.00    +0.218 C 
ATOM     37  H   UNL     1       1.248   0.174  22.128  0.00  0.00    +0.155 HD
BRANCH   8  26
ATOM     26  C   UNL     1       3.028   0.218  23.164  0.00  0.00    +0.037 A 
ATOM     30  C   UNL     1       3.380  -1.069  23.533  0.00  0.00    +0.068 A 
ATOM     31  C   UNL     1       3.984   1.200  22.966  0.00  0.00    +0.023 A 
ATOM     32  C   UNL     1       4.728  -1.384  23.708  0.00  0.00    +0.119 A 
ATOM     33  C   UNL     1       5.331   0.885  23.142  0.00  0.00    +0.005 A 
ATOM     34  C   UNL     1       5.703  -0.407  23.514  0.00  0.00    +0.045 A 
BRANCH  32   6
ATOM      6  O   UNL     1       5.090  -2.645  24.070  0.00  0.00    -0.507 OA
ATOM     38  H   UNL     1       4.544  -3.283  23.579  0.00  0.00    +0.292 HD
ENDBRANCH  32   6
ENDBRANCH   8  26
ENDBRANCH  22  23
ENDBRANCH  12  22
TORSDOF 8
ENDMDL
MODEL 6
REMARK VINA RESULT:      16.3      3.966      6.741
REMARK  Name = 11883181
REMARK  10 active torsions:
REMARK  status: ('A' for Active; 'I' for Inactive)
REMARK    1  A    between atoms: O_3  and  C_14
REMARK    2  A    between atoms: O_4  and  C_19
REMARK    3  A    between atoms: O_6  and  C_32
REMARK    4  A    between atoms: N_8  and  C_26
REMARK    5  A    between atoms: C_9  and  C_17
REMARK    6  A    between atoms: C_11  and  C_19
REMARK    7  A    between atoms: C_11  and  C_20
REMARK    8  A    between atoms: C_12  and  C_22
REMARK    9  A    between atoms: C_22  and  C_23
REMARK   10  A    between atoms: C_24  and  C_25
REMARK                            x       y       z     vdW  Elec       q    Type
REMARK                         _______ _______ _______ _____ _____    ______ ____
ROOT
ATOM      1  S   UNL     1      -5.005  -0.189  24.530  0.00  0.00    -0.072 S 
ATOM      7  N   UNL     1      -2.610  -0.921  23.882  0.00  0.00    -0.243 NA
ATOM      9  C   UNL     1      -1.647   2.810  23.742  0.00  0.00    -0.020 C 
ATOM     10  C   UNL     1      -2.698   3.205  24.871  0.00  0.00    +0.011 C 
ATOM     11  C   UNL     1      -2.861   4.740  25.192  0.00  0.00    +0.021 C 
ATOM     12  C   UNL     1      -1.328   1.251  23.889  0.00  0.00    +0.053 C 
ATOM     13  C   UNL     1      -0.332   3.601  23.962  0.00  0.00    +0.010 C 
ATOM     14  C   UNL     1      -1.454   5.385  25.335  0.00  0.00    +0.123 C 
ATOM     15  C   UNL     1      -4.050   2.459  24.675  0.00  0.00    +0.049 C 
ATOM     16  C   UNL     1      -0.537   5.098  24.152  0.00  0.00    +0.032 C 
ATOM     17  C   UNL     1      -2.166   3.096  22.311  0.00  0.00    +0.012 C 
ATOM     18  C   UNL     1      -2.595   0.451  24.050  0.00  0.00    +0.056 A 
ATOM     20  C   UNL     1      -3.584   4.898  26.559  0.00  0.00    +0.016 C 
ATOM     21  C   UNL     1      -3.801   1.010  24.422  0.00  0.00    +0.014 A 
ATOM     24  C   UNL     1      -3.829  -1.365  24.102  0.00  0.00    +0.109 A 
ENDROOT
BRANCH  24  25
ATOM      2  S   UNL     1      -4.087  -5.341  24.326  0.00  0.00    -0.104 S 
ATOM     25  C   UNL     1      -4.169  -2.800  23.990  0.00  0.00    +0.014 A 
ATOM     27  C   UNL     1      -5.233  -3.331  23.211  0.00  0.00    +0.018 A 
ATOM     28  C   UNL     1      -3.463  -3.779  24.648  0.00  0.00    +0.055 A 
ATOM     29  C   UNL     1      -5.304  -4.703  23.303  0.00  0.00    +0.046 A 
ENDBRANCH  24  25
BRANCH  14   3
ATOM      3  O   UNL     1      -1.563   6.800  25.499  0.00  0.00    -0.391 OA
ATOM     35  H   UNL     1      -1.084   7.048  26.305  0.00  0.00    +0.210 HD
ENDBRANCH  14   3
BRANCH  11  19
ATOM     19  C   UNL     1      -3.723   5.520  24.174  0.00  0.00    +0.165 C 
BRANCH  19   4
ATOM      4  O   UNL     1      -5.075   5.352  24.536  0.00  0.00    -0.394 OA
ATOM     36  H   UNL     1      -5.171   4.477  24.947  0.00  0.00    +0.209 HD
ENDBRANCH  19   4
ENDBRANCH  11  19
BRANCH  12  22
ATOM     22  C   UNL     1      -0.438   0.675  22.780  0.00  0.00    +0.106 C 
BRANCH  22  23
ATOM      5  O   UNL     1       0.690  -1.015  24.073  0.00  0.00    -0.275 OA
ATOM      8  N   UNL     1       1.940   0.575  22.880  0.00  0.00    -0.285 N 
ATOM     23  C   UNL     1       0.778  -0.040  23.334  0.00  0.00    +0.218 C 
ATOM     37  H   UNL     1       1.842   1.388  22.274  0.00  0.00    +0.155 HD
BRANCH   8  26
ATOM     26  C   UNL     1       3.277   0.213  23.167  0.00  0.00    +0.037 A 
ATOM     30  C   UNL     1       3.569  -1.101  23.493  0.00  0.00    +0.068 A 
ATOM     31  C   UNL     1       4.267   1.180  23.117  0.00  0.00    +0.023 A 
ATOM     32  C   UNL     1       4.887  -1.459  23.775  0.00  0.00    +0.119 A 
ATOM     33  C   UNL     1       5.585   0.823  23.401  0.00  0.00    +0.005 A 
ATOM     34  C   UNL     1       5.895  -0.496  23.730  0.00  0.00    +0.045 A 
BRANCH  32   6
ATOM      6  O   UNL     1       5.189  -2.746  24.096  0.00  0.00    -0.507 OA
ATOM     38  H   UNL     1       4.714  -2.988  24.910  0.00  0.00    +0.292 HD
ENDBRANCH  32   6
ENDBRANCH   8  26
ENDBRANCH  22  23
ENDBRANCH  12  22
TORSDOF 8
ENDMDL
MODEL 7
REMARK VINA RESULT:      16.7      3.286      5.043
REMARK  Name = 11883181
REMARK  10 active torsions:
REMARK  status: ('A' for Active; 'I' for Inactive)
REMARK    1  A    between atoms: O_3  and  C_14
REMARK    2  A    between atoms: O_4  and  C_19
REMARK    3  A    between atoms: O_6  and  C_32
REMARK    4  A    between atoms: N_8  and  C_26
REMARK    5  A    between atoms: C_9  and  C_17
REMARK    6  A    between atoms: C_11  and  C_19
REMARK    7  A    between atoms: C_11  and  C_20
REMARK    8  A    between atoms: C_12  and  C_22
REMARK    9  A    between atoms: C_22  and  C_23
REMARK   10  A    between atoms: C_24  and  C_25
REMARK                            x       y       z     vdW  Elec       q    Type
REMARK                         _______ _______ _______ _____ _____    ______ ____
ROOT
ATOM      1  S   UNL     1      -3.114  -1.635  25.425  0.00  0.00    -0.072 S 
ATOM      7  N   UNL     1      -1.035  -0.183  24.913  0.00  0.00    -0.243 NA
ATOM      9  C   UNL     1      -3.416   2.799  24.356  0.00  0.00    -0.020 C 
ATOM     10  C   UNL     1      -4.476   2.251  25.411  0.00  0.00    +0.011 C 
ATOM     11  C   UNL     1      -5.829   3.050  25.547  0.00  0.00    +0.021 C 
ATOM     12  C   UNL     1      -2.000   2.137  24.691  0.00  0.00    +0.053 C 
ATOM     13  C   UNL     1      -3.285   4.336  24.508  0.00  0.00    +0.010 C 
ATOM     14  C   UNL     1      -5.518   4.570  25.641  0.00  0.00    +0.123 C 
ATOM     15  C   UNL     1      -4.667   0.712  25.278  0.00  0.00    +0.049 C 
ATOM     16  C   UNL     1      -4.619   5.071  24.517  0.00  0.00    +0.032 C 
ATOM     17  C   UNL     1      -3.803   2.474  22.892  0.00  0.00    +0.012 C 
ATOM     18  C   UNL     1      -2.136   0.654  24.920  0.00  0.00    +0.056 A 
ATOM     20  C   UNL     1      -6.529   2.638  26.873  0.00  0.00    +0.016 C 
ATOM     21  C   UNL     1      -3.339   0.038  25.200  0.00  0.00    +0.014 A 
ATOM     24  C   UNL     1      -1.431  -1.413  25.160  0.00  0.00    +0.109 A 
ENDROOT
BRANCH  24  25
ATOM      2  S   UNL     1       0.458  -4.927  25.073  0.00  0.00    -0.104 S 
ATOM     25  C   UNL     1      -0.480  -2.544  25.210  0.00  0.00    +0.014 A 
ATOM     27  C   UNL     1       0.899  -2.440  25.539  0.00  0.00    +0.018 A 
ATOM     28  C   UNL     1      -0.856  -3.838  24.934  0.00  0.00    +0.055 A 
ATOM     29  C   UNL     1       1.531  -3.663  25.503  0.00  0.00    +0.046 A 
ENDBRANCH  24  25
BRANCH  14   3
ATOM      3  O   UNL     1      -6.726   5.332  25.636  0.00  0.00    -0.391 OA
ATOM     35  H   UNL     1      -6.502   6.252  25.424  0.00  0.00    +0.210 HD
ENDBRANCH  14   3
BRANCH  11  19
ATOM     19  C   UNL     1      -6.856   2.765  24.429  0.00  0.00    +0.165 C 
BRANCH  19   4
ATOM      4  O   UNL     1      -7.329   1.449  24.602  0.00  0.00    -0.394 OA
ATOM     36  H   UNL     1      -6.668   0.840  24.233  0.00  0.00    +0.209 HD
ENDBRANCH  19   4
ENDBRANCH  11  19
BRANCH  12  22
ATOM     22  C   UNL     1      -0.894   2.449  23.674  0.00  0.00    +0.106 C 
BRANCH  22  23
ATOM      5  O   UNL     1       0.864   2.277  25.312  0.00  0.00    -0.275 OA
ATOM      8  N   UNL     1       1.170   1.374  23.165  0.00  0.00    -0.285 N 
ATOM     23  C   UNL     1       0.475   2.036  24.173  0.00  0.00    +0.218 C 
ATOM     37  H   UNL     1       0.707   1.262  22.265  0.00  0.00    +0.155 HD
BRANCH   8  26
ATOM     26  C   UNL     1       2.475   0.832  23.229  0.00  0.00    +0.037 A 
ATOM     30  C   UNL     1       2.643  -0.487  23.615  0.00  0.00    +0.068 A 
ATOM     31  C   UNL     1       3.557   1.633  22.905  0.00  0.00    +0.023 A 
ATOM     32  C   UNL     1       3.930  -1.022  23.677  0.00  0.00    +0.119 A 
ATOM     33  C   UNL     1       4.844   1.099  22.969  0.00  0.00    +0.005 A 
ATOM     34  C   UNL     1       5.031  -0.228  23.355  0.00  0.00    +0.045 A 
BRANCH  32   6
ATOM      6  O   UNL     1       4.111  -2.317  24.054  0.00  0.00    -0.507 OA
ATOM     38  H   UNL     1       5.038  -2.440  24.323  0.00  0.00    +0.292 HD
ENDBRANCH  32   6
ENDBRANCH   8  26
ENDBRANCH  22  23
ENDBRANCH  12  22
TORSDOF 8
ENDMDL
MODEL 8
REMARK VINA RESULT:      16.7      3.232      5.552
REMARK  Name = 11883181
REMARK  10 active torsions:
REMARK  status: ('A' for Active; 'I' for Inactive)
REMARK    1  A    between atoms: O_3  and  C_14
REMARK    2  A    between atoms: O_4  and  C_19
REMARK    3  A    between atoms: O_6  and  C_32
REMARK    4  A    between atoms: N_8  and  C_26
REMARK    5  A    between atoms: C_9  and  C_17
REMARK    6  A    between atoms: C_11  and  C_19
REMARK    7  A    between atoms: C_11  and  C_20
REMARK    8  A    between atoms: C_12  and  C_22
REMARK    9  A    between atoms: C_22  and  C_23
REMARK   10  A    between atoms: C_24  and  C_25
REMARK                            x       y       z     vdW  Elec       q    Type
REMARK                         _______ _______ _______ _____ _____    ______ ____
ROOT
ATOM      1  S   UNL     1       0.391   1.602  25.600  0.00  0.00    -0.072 S 
ATOM      7  N   UNL     1      -0.063   2.017  23.087  0.00  0.00    -0.243 NA
ATOM      9  C   UNL     1      -3.606   3.191  24.056  0.00  0.00    -0.020 C 
ATOM     10  C   UNL     1      -3.122   3.745  25.468  0.00  0.00    +0.011 C 
ATOM     11  C   UNL     1      -4.235   4.286  26.444  0.00  0.00    +0.021 C 
ATOM     12  C   UNL     1      -2.333   3.117  23.092  0.00  0.00    +0.053 C 
ATOM     13  C   UNL     1      -4.630   4.178  23.438  0.00  0.00    +0.010 C 
ATOM     14  C   UNL     1      -5.198   5.219  25.656  0.00  0.00    +0.123 C 
ATOM     15  C   UNL     1      -2.113   2.772  26.145  0.00  0.00    +0.049 C 
ATOM     16  C   UNL     1      -5.750   4.578  24.387  0.00  0.00    +0.032 C 
ATOM     17  C   UNL     1      -4.261   1.790  24.152  0.00  0.00    +0.012 C 
ATOM     18  C   UNL     1      -1.161   2.475  23.791  0.00  0.00    +0.056 A 
ATOM     20  C   UNL     1      -3.564   5.146  27.552  0.00  0.00    +0.016 C 
ATOM     21  C   UNL     1      -1.075   2.348  25.162  0.00  0.00    +0.014 A 
ATOM     24  C   UNL     1       0.815   1.528  23.937  0.00  0.00    +0.109 A 
ENDROOT
BRANCH  24  25
ATOM      2  S   UNL     1       3.905  -0.774  22.900  0.00  0.00    -0.104 S 
ATOM     25  C   UNL     1       2.099   0.950  23.486  0.00  0.00    +0.014 A 
ATOM     27  C   UNL     1       3.218   1.698  23.028  0.00  0.00    +0.018 A 
ATOM     28  C   UNL     1       2.333  -0.405  23.469  0.00  0.00    +0.055 A 
ATOM     29  C   UNL     1       4.272   0.884  22.676  0.00  0.00    +0.046 A 
ENDBRANCH  24  25
BRANCH  14   3
ATOM      3  O   UNL     1      -6.292   5.624  26.479  0.00  0.00    -0.391 OA
ATOM     35  H   UNL     1      -6.888   4.865  26.584  0.00  0.00    +0.210 HD
ENDBRANCH  14   3
BRANCH  11  19
ATOM     19  C   UNL     1      -5.023   3.187  27.192  0.00  0.00    +0.165 C 
BRANCH  19   4
ATOM      4  O   UNL     1      -6.181   2.901  26.442  0.00  0.00    -0.394 OA
ATOM     36  H   UNL     1      -6.287   1.935  26.407  0.00  0.00    +0.209 HD
ENDBRANCH  19   4
ENDBRANCH  11  19
BRANCH  12  22
ATOM     22  C   UNL     1      -2.601   2.462  21.730  0.00  0.00    +0.106 C 
BRANCH  22  23
ATOM      5  O   UNL     1      -2.480   0.233  20.827  0.00  0.00    -0.275 OA
ATOM      8  N   UNL     1      -2.782   0.547  23.135  0.00  0.00    -0.285 N 
ATOM     23  C   UNL     1      -2.610   0.949  21.814  0.00  0.00    +0.218 C 
ATOM     37  H   UNL     1      -2.884   1.272  23.842  0.00  0.00    +0.155 HD
BRANCH   8  26
ATOM     26  C   UNL     1      -2.843  -0.776  23.632  0.00  0.00    +0.037 A 
ATOM     30  C   UNL     1      -1.718  -1.336  24.213  0.00  0.00    +0.068 A 
ATOM     31  C   UNL     1      -4.029  -1.484  23.527  0.00  0.00    +0.023 A 
ATOM     32  C   UNL     1      -1.780  -2.640  24.704  0.00  0.00    +0.119 A 
ATOM     33  C   UNL     1      -4.091  -2.789  24.017  0.00  0.00    +0.005 A 
ATOM     34  C   UNL     1      -2.966  -3.367  24.605  0.00  0.00    +0.045 A 
BRANCH  32   6
ATOM      6  O   UNL     1      -0.682  -3.203  25.279  0.00  0.00    -0.507 OA
ATOM     38  H   UNL     1       0.116  -2.807  24.889  0.00  0.00    +0.292 HD
ENDBRANCH  32   6
ENDBRANCH   8  26
ENDBRANCH  22  23
ENDBRANCH  12  22
TORSDOF 8
ENDMDL
MODEL 9
REMARK VINA RESULT:      17.6      2.127      3.208
REMARK  Name = 11883181
REMARK  10 active torsions:
REMARK  status: ('A' for Active; 'I' for Inactive)
REMARK    1  A    between atoms: O_3  and  C_14
REMARK    2  A    between atoms: O_4  and  C_19
REMARK    3  A    between atoms: O_6  and  C_32
REMARK    4  A    between atoms: N_8  and  C_26
REMARK    5  A    between atoms: C_9  and  C_17
REMARK    6  A    between atoms: C_11  and  C_19
REMARK    7  A    between atoms: C_11  and  C_20
REMARK    8  A    between atoms: C_12  and  C_22
REMARK    9  A    between atoms: C_22  and  C_23
REMARK   10  A    between atoms: C_24  and  C_25
REMARK                            x       y       z     vdW  Elec       q    Type
REMARK                         _______ _______ _______ _____ _____    ______ ____
ROOT
ATOM      1  S   UNL     1       0.837   2.332  23.254  0.00  0.00    -0.072 S 
ATOM      7  N   UNL     1       0.461  -0.107  24.031  0.00  0.00    -0.243 NA
ATOM      9  C   UNL     1      -3.098   0.922  25.102  0.00  0.00    -0.020 C 
ATOM     10  C   UNL     1      -3.209   2.025  23.959  0.00  0.00    +0.011 C 
ATOM     11  C   UNL     1      -4.499   2.931  23.961  0.00  0.00    +0.021 C 
ATOM     12  C   UNL     1      -1.982  -0.134  24.662  0.00  0.00    +0.053 C 
ATOM     13  C   UNL     1      -4.451   0.176  25.231  0.00  0.00    +0.010 C 
ATOM     14  C   UNL     1      -5.755   2.033  24.145  0.00  0.00    +0.123 C 
ATOM     15  C   UNL     1      -1.881   2.825  23.811  0.00  0.00    +0.049 C 
ATOM     16  C   UNL     1      -5.656   1.100  25.346  0.00  0.00    +0.032 C 
ATOM     17  C   UNL     1      -2.726   1.520  26.482  0.00  0.00    +0.012 C 
ATOM     18  C   UNL     1      -0.740   0.564  24.169  0.00  0.00    +0.056 A 
ATOM     20  C   UNL     1      -4.629   3.630  22.579  0.00  0.00    +0.016 C 
ATOM     21  C   UNL     1      -0.722   1.887  23.774  0.00  0.00    +0.014 A 
ATOM     24  C   UNL     1       1.365   0.727  23.565  0.00  0.00    +0.109 A 
ENDROOT
BRANCH  24  25
ATOM      2  S   UNL     1       4.879  -1.138  23.254  0.00  0.00    -0.104 S 
ATOM     25  C   UNL     1       2.761   0.306  23.317  0.00  0.00    +0.014 A 
ATOM     27  C   UNL     1       3.764   1.112  22.712  0.00  0.00    +0.018 A 
ATOM     28  C   UNL     1       3.228  -0.940  23.662  0.00  0.00    +0.055 A 
ATOM     29  C   UNL     1       4.967   0.449  22.616  0.00  0.00    +0.046 A 
ENDBRANCH  24  25
BRANCH  14   3
ATOM      3  O   UNL     1      -6.930   2.832  24.280  0.00  0.00    -0.391 OA
ATOM     35  H   UNL     1      -6.654   3.752  24.424  0.00  0.00    +0.210 HD
ENDBRANCH  14   3
BRANCH  11  19
ATOM     19  C   UNL     1      -4.480   4.071  25.004  0.00  0.00    +0.165 C 
BRANCH  19   4
ATOM      4  O   UNL     1      -5.163   3.618  26.151  0.00  0.00    -0.394 OA
ATOM     36  H   UNL     1      -6.116   3.739  26.002  0.00  0.00    +0.209 HD
ENDBRANCH  19   4
ENDBRANCH  11  19
BRANCH  12  22
ATOM     22  C   UNL     1      -1.647  -1.188  25.726  0.00  0.00    +0.106 C 
BRANCH  22  23
ATOM      5  O   UNL     1       0.141  -1.496  27.311  0.00  0.00    -0.275 OA
ATOM      8  N   UNL     1      -0.523   0.672  26.700  0.00  0.00    -0.285 N 
ATOM     23  C   UNL     1      -0.565  -0.718  26.677  0.00  0.00    +0.218 C 
ATOM     37  H   UNL     1      -1.188   1.177  26.117  0.00  0.00    +0.155 HD
BRANCH   8  26
ATOM     26  C   UNL     1       0.343   1.497  27.456  0.00  0.00    +0.037 A 
ATOM     30  C   UNL     1       0.609   1.172  28.775  0.00  0.00    +0.068 A 
ATOM     31  C   UNL     1       0.907   2.613  26.860  0.00  0.00    +0.023 A 
ATOM     32  C   UNL     1       1.464   1.984  29.520  0.00  0.00    +0.119 A 
ATOM     33  C   UNL     1       1.761   3.426  27.605  0.00  0.00    +0.005 A 
ATOM     34  C   UNL     1       2.039   3.112  28.935  0.00  0.00    +0.045 A 
BRANCH  32   6
ATOM      6  O   UNL     1       1.735   1.677  30.818  0.00  0.00    -0.507 OA
ATOM     38  H   UNL     1       1.025   1.109  31.162  0.00  0.00    +0.292 HD
ENDBRANCH  32   6
ENDBRANCH   8  26
ENDBRANCH  22  23
ENDBRANCH  12  22
TORSDOF 8
ENDMDL
MODEL 10
REMARK VINA RESULT:      17.9      2.632      3.951
REMARK  Name = 11883181
REMARK  10 active torsions:
REMARK  status: ('A' for Active; 'I' for Inactive)
REMARK    1  A    between atoms: O_3  and  C_14
REMARK    2  A    between atoms: O_4  and  C_19
REMARK    3  A    between atoms: O_6  and  C_32
REMARK    4  A    between atoms: N_8  and  C_26
REMARK    5  A    between atoms: C_9  and  C_17
REMARK    6  A    between atoms: C_11  and  C_19
REMARK    7  A    between atoms: C_11  and  C_20
REMARK    8  A    between atoms: C_12  and  C_22
REMARK    9  A    between atoms: C_22  and  C_23
REMARK   10  A    between atoms: C_24  and  C_25
REMARK                            x       y       z     vdW  Elec       q    Type
REMARK                         _______ _______ _______ _____ _____    ______ ____
ROOT
ATOM      1  S   UNL     1       1.786  -1.609  23.315  0.00  0.00    -0.072 S 
ATOM      7  N   UNL     1       1.928   0.874  24.028  0.00  0.00    -0.243 NA
ATOM      9  C   UNL     1      -1.926   0.930  24.132  0.00  0.00    -0.020 C 
ATOM     10  C   UNL     1      -2.016  -0.606  24.539  0.00  0.00    +0.011 C 
ATOM     11  C   UNL     1      -3.457  -1.242  24.623  0.00  0.00    +0.021 C 
ATOM     12  C   UNL     1      -0.473   1.462  24.531  0.00  0.00    +0.053 C 
ATOM     13  C   UNL     1      -2.979   1.738  24.933  0.00  0.00    +0.010 C 
ATOM     14  C   UNL     1      -4.392  -0.285  25.415  0.00  0.00    +0.123 C 
ATOM     15  C   UNL     1      -0.997  -1.468  23.737  0.00  0.00    +0.049 C 
ATOM     16  C   UNL     1      -4.380   1.144  24.885  0.00  0.00    +0.032 C 
ATOM     17  C   UNL     1      -2.163   1.166  22.619  0.00  0.00    +0.012 C 
ATOM     18  C   UNL     1       0.598   0.501  24.082  0.00  0.00    +0.056 A 
ATOM     20  C   UNL     1      -3.377  -2.575  25.419  0.00  0.00    +0.016 C 
ATOM     21  C   UNL     1       0.344  -0.814  23.749  0.00  0.00    +0.014 A 
ATOM     24  C   UNL     1       2.645  -0.154  23.629  0.00  0.00    +0.109 A 
ENDROOT
BRANCH  24  25
ATOM      2  S   UNL     1       6.602  -0.665  23.577  0.00  0.00    -0.104 S 
ATOM     25  C   UNL     1       4.112  -0.066  23.461  0.00  0.00    +0.014 A 
ATOM     27  C   UNL     1       4.801   1.009  22.835  0.00  0.00    +0.018 A 
ATOM     28  C   UNL     1       4.966  -1.044  23.912  0.00  0.00    +0.055 A 
ATOM     29  C   UNL     1       6.164   0.812  22.829  0.00  0.00    +0.046 A 
ENDBRANCH  24  25
BRANCH  14   3
ATOM      3  O   UNL     1      -5.736  -0.769  25.400  0.00  0.00    -0.391 OA
ATOM     35  H   UNL     1      -6.154  -0.524  26.241  0.00  0.00    +0.210 HD
ENDBRANCH  14   3
BRANCH  11  19
ATOM     19  C   UNL     1      -4.076  -1.610  23.256  0.00  0.00    +0.165 C 
BRANCH  19   4
ATOM      4  O   UNL     1      -4.724  -2.853  23.397  0.00  0.00    -0.394 OA
ATOM     36  H   UNL     1      -4.541  -3.381  22.602  0.00  0.00    +0.209 HD
ENDBRANCH  19   4
ENDBRANCH  11  19
BRANCH  12  22
ATOM     22  C   UNL     1      -0.169   2.894  24.072  0.00  0.00    +0.106 C 
BRANCH  22  23
ATOM      5  O   UNL     1      -0.890   4.791  25.370  0.00  0.00    -0.275 OA
ATOM      8  N   UNL     1      -2.440   3.612  24.057  0.00  0.00    -0.285 N 
ATOM     23  C   UNL     1      -1.186   3.890  24.591  0.00  0.00    +0.218 C 
ATOM     37  H   UNL     1      -2.522   2.816  23.427  0.00  0.00    +0.155 HD
BRANCH   8  26
ATOM     26  C   UNL     1      -3.651   4.306  24.291  0.00  0.00    +0.037 A 
ATOM     30  C   UNL     1      -4.518   3.847  25.267  0.00  0.00    +0.068 A 
ATOM     31  C   UNL     1      -3.942   5.431  23.538  0.00  0.00    +0.023 A 
ATOM     32  C   UNL     1      -5.711   4.532  25.498  0.00  0.00    +0.119 A 
ATOM     33  C   UNL     1      -5.136   6.116  23.768  0.00  0.00    +0.005 A 
ATOM     34  C   UNL     1      -6.020   5.666  24.748  0.00  0.00    +0.045 A 
BRANCH  32   6
ATOM      6  O   UNL     1      -6.574   4.092  26.455  0.00  0.00    -0.507 OA
ATOM     38  H   UNL     1      -7.431   3.896  26.040  0.00  0.00    +0.292 HD
ENDBRANCH  32   6
ENDBRANCH   8  26
ENDBRANCH  22  23
ENDBRANCH  12  22
TORSDOF 8
ENDMDL
