MODEL 1
REMARK VINA RESULT:       6.4      0.000      0.000
REMARK  Name = 11885929
REMARK  3 active torsions:
REMARK  status: ('A' for Active; 'I' for Inactive)
REMARK    1  A    between atoms: N_7  and  C_22
REMARK    2  A    between atoms: N_8  and  C_20
REMARK    3  A    between atoms: N_9  and  C_29
REMARK                            x       y       z     vdW  Elec       q    Type
REMARK                         _______ _______ _______ _____ _____    ______ ____
ROOT
ATOM      2  O   UNL     1      -0.569   3.184  25.902  0.00  0.00    -0.266 OA
ATOM      3  O   UNL     1      -4.407  -0.256  26.761  0.00  0.00    -0.252 OA
ATOM      5  N   UNL     1      -5.277   1.506  25.539  0.00  0.00    -0.284 N 
ATOM      6  N   UNL     1      -2.735   3.370  25.044  0.00  0.00    -0.310 N 
ATOM      7  N   UNL     1      -4.693  -0.517  24.475  0.00  0.00    -0.269 N 
ATOM     10  C   UNL     1      -4.785   3.749  26.529  0.00  0.00    +0.027 C 
ATOM     11  C   UNL     1      -5.065   3.526  24.097  0.00  0.00    +0.054 C 
ATOM     12  C   UNL     1      -5.383   4.415  25.297  0.00  0.00    +0.018 C 
ATOM     13  C   UNL     1      -5.395   2.351  26.731  0.00  0.00    +0.114 C 
ATOM     14  C   UNL     1      -3.260   3.696  26.377  0.00  0.00    +0.130 C 
ATOM     15  C   UNL     1      -5.719   2.141  24.285  0.00  0.00    +0.119 C 
ATOM     16  C   UNL     1      -3.566   3.362  23.921  0.00  0.00    +0.027 A 
ATOM     17  C   UNL     1      -3.046   3.176  22.696  0.00  0.00    +0.024 A 
ATOM     18  C   UNL     1      -1.343   3.169  24.944  0.00  0.00    +0.273 A 
ATOM     19  C   UNL     1      -4.755   0.200  25.668  0.00  0.00    +0.306 C 
ATOM     20  C   UNL     1      -0.806   2.940  23.566  0.00  0.00    +0.100 A 
ATOM     21  C   UNL     1      -1.637   2.960  22.519  0.00  0.00    +0.030 A 
ATOM     35  H   UNL     1      -5.358  -0.293  23.744  0.00  0.00    +0.156 HD
ENDROOT
BRANCH   7  22
ATOM      1  F   UNL     1      -1.276  -4.704  23.256  0.00  0.00    -0.205 F 
ATOM     22  C   UNL     1      -3.819  -1.588  24.165  0.00  0.00    +0.035 A 
ATOM     24  C   UNL     1      -2.453  -1.455  24.393  0.00  0.00    +0.026 A 
ATOM     25  C   UNL     1      -4.333  -2.768  23.632  0.00  0.00    +0.026 A 
ATOM     26  C   UNL     1      -1.592  -2.509  24.086  0.00  0.00    +0.040 A 
ATOM     27  C   UNL     1      -3.472  -3.822  23.325  0.00  0.00    +0.040 A 
ATOM     28  C   UNL     1      -2.102  -3.693  23.552  0.00  0.00    +0.124 A 
ENDBRANCH   7  22
BRANCH  20   8
ATOM      4  O   UNL     1       0.537   0.454  23.887  0.00  0.00    -0.252 OA
ATOM      8  N   UNL     1       0.534   2.727  23.428  0.00  0.00    -0.265 N 
ATOM      9  N   UNL     1       2.528   1.592  23.389  0.00  0.00    -0.269 N 
ATOM     23  C   UNL     1       1.149   1.479  23.597  0.00  0.00    +0.308 C 
ATOM     36  H   UNL     1       1.134   3.546  23.446  0.00  0.00    +0.157 HD
ATOM     37  H   UNL     1       2.879   2.516  23.151  0.00  0.00    +0.156 HD
BRANCH   9  29
ATOM     29  C   UNL     1       3.504   0.570  23.464  0.00  0.00    +0.035 A 
ATOM     30  C   UNL     1       4.847   0.909  23.411  0.00  0.00    +0.023 A 
ATOM     31  C   UNL     1       3.098  -0.748  23.590  0.00  0.00    +0.023 A 
ATOM     32  C   UNL     1       5.808  -0.098  23.486  0.00  0.00    +0.002 A 
ATOM     33  C   UNL     1       4.060  -1.755  23.665  0.00  0.00    +0.002 A 
ATOM     34  C   UNL     1       5.416  -1.430  23.613  0.00  0.00    +0.000 A 
ENDBRANCH   9  29
ENDBRANCH  20   8
TORSDOF 3
ENDMDL
