MODEL 1
REMARK VINA RESULT:      -6.5      0.000      0.000
REMARK  Name = 75536931
REMARK  5 active torsions:
REMARK  status: ('A' for Active; 'I' for Inactive)
REMARK    1  A    between atoms: O_5  and  C_10
REMARK    2  A    between atoms: O_5  and  C_19
REMARK    3  A    between atoms: N_6  and  C_12
REMARK    4  A    between atoms: C_12  and  C_15
REMARK    5  A    between atoms: C_18  and  C_22
REMARK                            x       y       z     vdW  Elec       q    Type
REMARK                         _______ _______ _______ _____ _____    ______ ____
ROOT
ATOM      4  O   UNL     1      -1.652  -2.813  24.551  0.00  0.00    -0.375 OA
ATOM      6  N   UNL     1      -3.665  -0.436  24.690  0.00  0.00    -0.292 NA
ATOM      9  C   UNL     1      -2.445   0.317  24.382  0.00  0.00    +0.131 C 
ATOM     10  C   UNL     1      -1.149  -0.478  24.157  0.00  0.00    +0.215 C 
ATOM     11  C   UNL     1      -3.786  -1.708  23.977  0.00  0.00    +0.113 C 
ATOM     13  C   UNL     1      -0.979  -1.676  25.082  0.00  0.00    +0.205 C 
ATOM     14  C   UNL     1      -3.059  -2.810  24.749  0.00  0.00    +0.175 C 
ENDROOT
BRANCH  10   5
ATOM      5  O   UNL     1      -0.045   0.403  24.370  0.00  0.00    -0.468 OA
BRANCH   5  19
ATOM      7  N   UNL     1       2.118   0.987  23.750  0.00  0.00    -0.219 NA
ATOM      8  N   UNL     1       1.813  -0.499  21.392  0.00  0.00    -0.256 NA
ATOM     19  C   UNL     1       0.978   0.329  23.465  0.00  0.00    +0.234 A 
ATOM     23  C   UNL     1       0.828  -0.402  22.307  0.00  0.00    +0.177 A 
ATOM     24  C   UNL     1       3.103   0.890  22.836  0.00  0.00    +0.134 A 
ATOM     25  C   UNL     1       2.953   0.161  21.677  0.00  0.00    +0.130 A 
ENDBRANCH   5  19
ENDBRANCH  10   5
BRANCH   6  12
ATOM     12  C   UNL     1      -4.843   0.409  24.484  0.00  0.00    +0.119 C 
BRANCH  12  15
ATOM     15  C   UNL     1      -4.591   1.833  24.899  0.00  0.00    -0.033 A 
ATOM     16  C   UNL     1      -3.293   2.344  24.888  0.00  0.00    +0.017 A 
ATOM     17  C   UNL     1      -5.656   2.643  25.295  0.00  0.00    +0.005 A 
ATOM     18  C   UNL     1      -3.060   3.664  25.274  0.00  0.00    +0.055 A 
ATOM     20  C   UNL     1      -5.423   3.963  25.679  0.00  0.00    +0.001 A 
ATOM     21  C   UNL     1      -4.125   4.474  25.668  0.00  0.00    +0.012 A 
BRANCH  18  22
ATOM      1  F   UNL     1      -1.015   4.009  24.081  0.00  0.00    -0.166 F 
ATOM      2  F   UNL     1      -1.612   5.558  25.477  0.00  0.00    -0.166 F 
ATOM      3  F   UNL     1      -0.879   3.651  26.221  0.00  0.00    -0.166 F 
ATOM     22  C   UNL     1      -1.672   4.211  25.262  0.00  0.00    +0.417 C 
ENDBRANCH  18  22
ENDBRANCH  12  15
ENDBRANCH   6  12
TORSDOF 5
ENDMDL
MODEL 2
REMARK VINA RESULT:      -5.9      2.345      3.385
REMARK  Name = 75536931
REMARK  5 active torsions:
REMARK  status: ('A' for Active; 'I' for Inactive)
REMARK    1  A    between atoms: O_5  and  C_10
REMARK    2  A    between atoms: O_5  and  C_19
REMARK    3  A    between atoms: N_6  and  C_12
REMARK    4  A    between atoms: C_12  and  C_15
REMARK    5  A    between atoms: C_18  and  C_22
REMARK                            x       y       z     vdW  Elec       q    Type
REMARK                         _______ _______ _______ _____ _____    ______ ____
ROOT
ATOM      4  O   UNL     1      -0.998  -1.528  24.288  0.00  0.00    -0.375 OA
ATOM      6  N   UNL     1      -0.079   1.186  25.519  0.00  0.00    -0.292 NA
ATOM      9  C   UNL     1       0.607   1.279  24.226  0.00  0.00    +0.131 C 
ATOM     10  C   UNL     1       0.390   0.140  23.216  0.00  0.00    +0.215 C 
ATOM     11  C   UNL     1      -1.423   0.611  25.449  0.00  0.00    +0.113 C 
ATOM     13  C   UNL     1       0.324  -1.248  23.839  0.00  0.00    +0.205 C 
ATOM     14  C   UNL     1      -1.342  -0.914  25.523  0.00  0.00    +0.175 C 
ENDROOT
BRANCH  10   5
ATOM      5  O   UNL     1       1.477   0.156  22.289  0.00  0.00    -0.468 OA
BRANCH   5  19
ATOM      7  N   UNL     1       3.058  -1.203  23.317  0.00  0.00    -0.219 NA
ATOM      8  N   UNL     1       4.858   0.947  23.325  0.00  0.00    -0.256 NA
ATOM     19  C   UNL     1       2.731   0.003  22.814  0.00  0.00    +0.234 A 
ATOM     23  C   UNL     1       3.615   1.059  22.817  0.00  0.00    +0.177 A 
ATOM     24  C   UNL     1       4.301  -1.316  23.825  0.00  0.00    +0.134 A 
ATOM     25  C   UNL     1       5.185  -0.260  23.829  0.00  0.00    +0.130 A 
ENDBRANCH   5  19
ENDBRANCH  10   5
BRANCH   6  12
ATOM     12  C   UNL     1      -0.088   2.493  26.178  0.00  0.00    +0.119 C 
BRANCH  12  15
ATOM     15  C   UNL     1      -1.191   3.375  25.659  0.00  0.00    -0.033 A 
ATOM     16  C   UNL     1      -2.520   2.964  25.764  0.00  0.00    +0.017 A 
ATOM     17  C   UNL     1      -0.885   4.603  25.074  0.00  0.00    +0.005 A 
ATOM     18  C   UNL     1      -3.543   3.782  25.282  0.00  0.00    +0.055 A 
ATOM     20  C   UNL     1      -1.906   5.421  24.593  0.00  0.00    +0.001 A 
ATOM     21  C   UNL     1      -3.236   5.011  24.698  0.00  0.00    +0.012 A 
BRANCH  18  22
ATOM      1  F   UNL     1      -5.377   2.558  24.356  0.00  0.00    -0.166 F 
ATOM      2  F   UNL     1      -5.225   2.614  26.519  0.00  0.00    -0.166 F 
ATOM      3  F   UNL     1      -5.836   4.393  25.428  0.00  0.00    -0.166 F 
ATOM     22  C   UNL     1      -4.964   3.344  25.394  0.00  0.00    +0.417 C 
ENDBRANCH  18  22
ENDBRANCH  12  15
ENDBRANCH   6  12
TORSDOF 5
ENDMDL
MODEL 3
REMARK VINA RESULT:      -5.6      3.163      6.051
REMARK  Name = 75536931
REMARK  5 active torsions:
REMARK  status: ('A' for Active; 'I' for Inactive)
REMARK    1  A    between atoms: O_5  and  C_10
REMARK    2  A    between atoms: O_5  and  C_19
REMARK    3  A    between atoms: N_6  and  C_12
REMARK    4  A    between atoms: C_12  and  C_15
REMARK    5  A    between atoms: C_18  and  C_22
REMARK                            x       y       z     vdW  Elec       q    Type
REMARK                         _______ _______ _______ _____ _____    ______ ____
ROOT
ATOM      4  O   UNL     1      -5.044   3.826  26.001  0.00  0.00    -0.375 OA
ATOM      6  N   UNL     1      -2.118   2.959  25.359  0.00  0.00    -0.292 NA
ATOM      9  C   UNL     1      -2.828   2.054  24.448  0.00  0.00    +0.131 C 
ATOM     10  C   UNL     1      -4.360   2.166  24.377  0.00  0.00    +0.215 C 
ATOM     11  C   UNL     1      -2.687   4.305  25.436  0.00  0.00    +0.113 C 
ATOM     13  C   UNL     1      -5.033   2.431  25.717  0.00  0.00    +0.205 C 
ATOM     14  C   UNL     1      -3.807   4.339  26.476  0.00  0.00    +0.175 C 
ENDROOT
BRANCH  10   5
ATOM      5  O   UNL     1      -4.872   0.936  23.861  0.00  0.00    -0.468 OA
BRANCH   5  19
ATOM      7  N   UNL     1      -4.110  -0.258  25.705  0.00  0.00    -0.219 NA
ATOM      8  N   UNL     1      -3.526  -2.425  24.023  0.00  0.00    -0.256 NA
ATOM     19  C   UNL     1      -4.338  -0.212  24.378  0.00  0.00    +0.234 A 
ATOM     23  C   UNL     1      -4.052  -1.277  23.551  0.00  0.00    +0.177 A 
ATOM     24  C   UNL     1      -3.585  -1.405  26.177  0.00  0.00    +0.134 A 
ATOM     25  C   UNL     1      -3.298  -2.469  25.351  0.00  0.00    +0.130 A 
ENDBRANCH   5  19
ENDBRANCH  10   5
BRANCH   6  12
ATOM     12  C   UNL     1      -0.694   2.997  25.020  0.00  0.00    +0.119 C 
BRANCH  12  15
ATOM     15  C   UNL     1      -0.178   1.642  24.617  0.00  0.00    -0.033 A 
ATOM     16  C   UNL     1       0.951   1.538  23.805  0.00  0.00    +0.017 A 
ATOM     17  C   UNL     1      -0.828   0.488  25.058  0.00  0.00    +0.005 A 
ATOM     18  C   UNL     1       1.429   0.281  23.431  0.00  0.00    +0.055 A 
ATOM     20  C   UNL     1      -0.350  -0.768  24.686  0.00  0.00    +0.001 A 
ATOM     21  C   UNL     1       0.779  -0.871  23.873  0.00  0.00    +0.012 A 
BRANCH  18  22
ATOM      1  F   UNL     1       2.343  -0.032  21.243  0.00  0.00    -0.166 F 
ATOM      2  F   UNL     1       3.431   1.280  22.584  0.00  0.00    -0.166 F 
ATOM      3  F   UNL     1       3.446  -0.867  22.920  0.00  0.00    -0.166 F 
ATOM     22  C   UNL     1       2.636   0.170  22.562  0.00  0.00    +0.417 C 
ENDBRANCH  18  22
ENDBRANCH  12  15
ENDBRANCH   6  12
TORSDOF 5
ENDMDL
MODEL 4
REMARK VINA RESULT:      -5.5      2.355      4.658
REMARK  Name = 75536931
REMARK  5 active torsions:
REMARK  status: ('A' for Active; 'I' for Inactive)
REMARK    1  A    between atoms: O_5  and  C_10
REMARK    2  A    between atoms: O_5  and  C_19
REMARK    3  A    between atoms: N_6  and  C_12
REMARK    4  A    between atoms: C_12  and  C_15
REMARK    5  A    between atoms: C_18  and  C_22
REMARK                            x       y       z     vdW  Elec       q    Type
REMARK                         _______ _______ _______ _____ _____    ______ ____
ROOT
ATOM      4  O   UNL     1       1.191  -0.879  23.767  0.00  0.00    -0.375 OA
ATOM      6  N   UNL     1      -0.351   1.830  23.785  0.00  0.00    -0.292 NA
ATOM      9  C   UNL     1      -1.044   1.168  24.895  0.00  0.00    +0.131 C 
ATOM     10  C   UNL     1      -0.562  -0.233  25.306  0.00  0.00    +0.215 C 
ATOM     11  C   UNL     1       1.092   1.589  23.743  0.00  0.00    +0.113 C 
ATOM     13  C   UNL     1      -0.161  -1.126  24.140  0.00  0.00    +0.205 C 
ATOM     14  C   UNL     1       1.382   0.292  22.987  0.00  0.00    +0.175 C 
ENDROOT
BRANCH  10   5
ATOM      5  O   UNL     1      -1.624  -0.879  26.012  0.00  0.00    -0.468 OA
BRANCH   5  19
ATOM      7  N   UNL     1      -3.530  -0.555  24.721  0.00  0.00    -0.219 NA
ATOM      8  N   UNL     1      -3.681  -3.323  24.302  0.00  0.00    -0.256 NA
ATOM     19  C   UNL     1      -2.631  -1.406  25.251  0.00  0.00    +0.234 A 
ATOM     23  C   UNL     1      -2.704  -2.766  25.044  0.00  0.00    +0.177 A 
ATOM     24  C   UNL     1      -4.507  -1.111  23.978  0.00  0.00    +0.134 A 
ATOM     25  C   UNL     1      -4.581  -2.471  23.772  0.00  0.00    +0.130 A 
ENDBRANCH   5  19
ENDBRANCH  10   5
BRANCH   6  12
ATOM     12  C   UNL     1      -0.655   3.262  23.786  0.00  0.00    +0.119 C 
BRANCH  12  15
ATOM     15  C   UNL     1      -1.830   3.585  24.670  0.00  0.00    -0.033 A 
ATOM     16  C   UNL     1      -3.037   2.905  24.502  0.00  0.00    +0.017 A 
ATOM     17  C   UNL     1      -1.712   4.563  25.658  0.00  0.00    +0.005 A 
ATOM     18  C   UNL     1      -4.126   3.205  25.322  0.00  0.00    +0.055 A 
ATOM     20  C   UNL     1      -2.799   4.862  26.478  0.00  0.00    +0.001 A 
ATOM     21  C   UNL     1      -4.006   4.182  26.310  0.00  0.00    +0.012 A 
BRANCH  18  22
ATOM      1  F   UNL     1      -6.516   3.248  25.398  0.00  0.00    -0.166 F 
ATOM      2  F   UNL     1      -5.603   1.998  23.879  0.00  0.00    -0.166 F 
ATOM      3  F   UNL     1      -5.528   1.396  25.966  0.00  0.00    -0.166 F 
ATOM     22  C   UNL     1      -5.416   2.479  25.143  0.00  0.00    +0.417 C 
ENDBRANCH  18  22
ENDBRANCH  12  15
ENDBRANCH   6  12
TORSDOF 5
ENDMDL
MODEL 5
REMARK VINA RESULT:      -5.5      2.375      4.684
REMARK  Name = 75536931
REMARK  5 active torsions:
REMARK  status: ('A' for Active; 'I' for Inactive)
REMARK    1  A    between atoms: O_5  and  C_10
REMARK    2  A    between atoms: O_5  and  C_19
REMARK    3  A    between atoms: N_6  and  C_12
REMARK    4  A    between atoms: C_12  and  C_15
REMARK    5  A    between atoms: C_18  and  C_22
REMARK                            x       y       z     vdW  Elec       q    Type
REMARK                         _______ _______ _______ _____ _____    ______ ____
ROOT
ATOM      4  O   UNL     1       1.168  -0.877  23.817  0.00  0.00    -0.375 OA
ATOM      6  N   UNL     1      -0.382   1.828  23.777  0.00  0.00    -0.292 NA
ATOM      9  C   UNL     1      -1.079   1.183  24.895  0.00  0.00    +0.131 C 
ATOM     10  C   UNL     1      -0.595  -0.208  25.334  0.00  0.00    +0.215 C 
ATOM     11  C   UNL     1       1.061   1.590  23.747  0.00  0.00    +0.113 C 
ATOM     13  C   UNL     1      -0.185  -1.122  24.187  0.00  0.00    +0.205 C 
ATOM     14  C   UNL     1       1.359   0.280  23.016  0.00  0.00    +0.175 C 
ENDROOT
BRANCH  10   5
ATOM      5  O   UNL     1      -1.658  -0.844  26.046  0.00  0.00    -0.468 OA
BRANCH   5  19
ATOM      7  N   UNL     1      -2.561  -2.740  25.049  0.00  0.00    -0.219 NA
ATOM      8  N   UNL     1      -4.664  -1.177  24.050  0.00  0.00    -0.256 NA
ATOM     19  C   UNL     1      -2.643  -1.417  25.289  0.00  0.00    +0.234 A 
ATOM     23  C   UNL     1      -3.676  -0.649  24.799  0.00  0.00    +0.177 A 
ATOM     24  C   UNL     1      -3.549  -3.269  24.301  0.00  0.00    +0.134 A 
ATOM     25  C   UNL     1      -4.582  -2.501  23.810  0.00  0.00    +0.130 A 
ENDBRANCH   5  19
ENDBRANCH  10   5
BRANCH   6  12
ATOM     12  C   UNL     1      -0.691   3.258  23.750  0.00  0.00    +0.119 C 
BRANCH  12  15
ATOM     15  C   UNL     1      -1.845   3.599  24.654  0.00  0.00    -0.033 A 
ATOM     16  C   UNL     1      -3.062   2.933  24.514  0.00  0.00    +0.017 A 
ATOM     17  C   UNL     1      -1.697   4.582  25.633  0.00  0.00    +0.005 A 
ATOM     18  C   UNL     1      -4.131   3.249  25.352  0.00  0.00    +0.055 A 
ATOM     20  C   UNL     1      -2.765   4.898  26.472  0.00  0.00    +0.001 A 
ATOM     21  C   UNL     1      -3.982   4.232  26.332  0.00  0.00    +0.012 A 
BRANCH  18  22
ATOM      1  F   UNL     1      -5.617   1.989  23.965  0.00  0.00    -0.166 F 
ATOM      2  F   UNL     1      -5.594   1.500  26.078  0.00  0.00    -0.166 F 
ATOM      3  F   UNL     1      -6.506   3.355  25.404  0.00  0.00    -0.166 F 
ATOM     22  C   UNL     1      -5.433   2.537  25.203  0.00  0.00    +0.417 C 
ENDBRANCH  18  22
ENDBRANCH  12  15
ENDBRANCH   6  12
TORSDOF 5
ENDMDL
MODEL 6
REMARK VINA RESULT:      -4.8      3.457      6.964
REMARK  Name = 75536931
REMARK  5 active torsions:
REMARK  status: ('A' for Active; 'I' for Inactive)
REMARK    1  A    between atoms: O_5  and  C_10
REMARK    2  A    between atoms: O_5  and  C_19
REMARK    3  A    between atoms: N_6  and  C_12
REMARK    4  A    between atoms: C_12  and  C_15
REMARK    5  A    between atoms: C_18  and  C_22
REMARK                            x       y       z     vdW  Elec       q    Type
REMARK                         _______ _______ _______ _____ _____    ______ ____
ROOT
ATOM      4  O   UNL     1      -1.406   5.003  25.273  0.00  0.00    -0.375 OA
ATOM      6  N   UNL     1      -0.720   2.176  24.151  0.00  0.00    -0.292 NA
ATOM      9  C   UNL     1      -2.037   2.353  23.530  0.00  0.00    +0.131 C 
ATOM     10  C   UNL     1      -2.766   3.686  23.765  0.00  0.00    +0.215 C 
ATOM     11  C   UNL     1       0.104   3.385  24.175  0.00  0.00    +0.113 C 
ATOM     13  C   UNL     1      -2.609   4.248  25.171  0.00  0.00    +0.205 C 
ATOM     14  C   UNL     1      -0.229   4.219  25.413  0.00  0.00    +0.175 C 
ENDROOT
BRANCH  10   5
ATOM      5  O   UNL     1      -4.159   3.478  23.526  0.00  0.00    -0.468 OA
BRANCH   5  19
ATOM      7  N   UNL     1      -4.924   1.504  24.487  0.00  0.00    -0.219 NA
ATOM      8  N   UNL     1      -6.180   3.003  26.497  0.00  0.00    -0.256 NA
ATOM     19  C   UNL     1      -4.862   2.849  24.517  0.00  0.00    +0.234 A 
ATOM     23  C   UNL     1      -5.478   3.586  25.504  0.00  0.00    +0.177 A 
ATOM     24  C   UNL     1      -5.624   0.921  25.480  0.00  0.00    +0.134 A 
ATOM     25  C   UNL     1      -6.241   1.657  26.466  0.00  0.00    +0.130 A 
ENDBRANCH   5  19
ENDBRANCH  10   5
BRANCH   6  12
ATOM     12  C   UNL     1      -0.014   1.058  23.522  0.00  0.00    +0.119 C 
BRANCH  12  15
ATOM     15  C   UNL     1      -0.458  -0.268  24.077  0.00  0.00    -0.033 A 
ATOM     16  C   UNL     1      -1.812  -0.605  24.082  0.00  0.00    +0.017 A 
ATOM     17  C   UNL     1       0.484  -1.163  24.585  0.00  0.00    +0.005 A 
ATOM     18  C   UNL     1      -2.223  -1.835  24.596  0.00  0.00    +0.055 A 
ATOM     20  C   UNL     1       0.074  -2.392  25.099  0.00  0.00    +0.001 A 
ATOM     21  C   UNL     1      -1.280  -2.729  25.104  0.00  0.00    +0.012 A 
BRANCH  18  22
ATOM      1  F   UNL     1      -4.388  -1.589  23.609  0.00  0.00    -0.166 F 
ATOM      2  F   UNL     1      -3.904  -3.531  24.445  0.00  0.00    -0.166 F 
ATOM      3  F   UNL     1      -4.293  -1.848  25.765  0.00  0.00    -0.166 F 
ATOM     22  C   UNL     1      -3.671  -2.195  24.602  0.00  0.00    +0.417 C 
ENDBRANCH  18  22
ENDBRANCH  12  15
ENDBRANCH   6  12
TORSDOF 5
ENDMDL
MODEL 7
REMARK VINA RESULT:      -4.6      2.597      4.833
REMARK  Name = 75536931
REMARK  5 active torsions:
REMARK  status: ('A' for Active; 'I' for Inactive)
REMARK    1  A    between atoms: O_5  and  C_10
REMARK    2  A    between atoms: O_5  and  C_19
REMARK    3  A    between atoms: N_6  and  C_12
REMARK    4  A    between atoms: C_12  and  C_15
REMARK    5  A    between atoms: C_18  and  C_22
REMARK                            x       y       z     vdW  Elec       q    Type
REMARK                         _______ _______ _______ _____ _____    ______ ____
ROOT
ATOM      4  O   UNL     1      -4.695   4.477  25.493  0.00  0.00    -0.375 OA
ATOM      6  N   UNL     1      -5.286   1.568  24.541  0.00  0.00    -0.292 NA
ATOM      9  C   UNL     1      -3.919   1.702  24.025  0.00  0.00    +0.131 C 
ATOM     10  C   UNL     1      -3.168   3.011  24.318  0.00  0.00    +0.215 C 
ATOM     11  C   UNL     1      -5.495   2.169  25.858  0.00  0.00    +0.113 C 
ATOM     13  C   UNL     1      -4.035   4.261  24.250  0.00  0.00    +0.205 C 
ATOM     14  C   UNL     1      -5.832   3.653  25.707  0.00  0.00    +0.175 C 
ENDROOT
BRANCH  10   5
ATOM      5  O   UNL     1      -2.120   3.147  23.356  0.00  0.00    -0.468 OA
BRANCH   5  19
ATOM      7  N   UNL     1      -1.142   1.083  22.925  0.00  0.00    -0.219 NA
ATOM      8  N   UNL     1       1.136   1.899  24.341  0.00  0.00    -0.256 NA
ATOM     19  C   UNL     1      -1.054   2.302  23.491  0.00  0.00    +0.234 A 
ATOM     23  C   UNL     1       0.066   2.704  24.186  0.00  0.00    +0.177 A 
ATOM     24  C   UNL     1      -0.072   0.279  23.078  0.00  0.00    +0.134 A 
ATOM     25  C   UNL     1       1.047   0.679  23.774  0.00  0.00    +0.130 A 
ENDBRANCH   5  19
ENDBRANCH  10   5
BRANCH   6  12
ATOM     12  C   UNL     1      -5.694   0.162  24.521  0.00  0.00    +0.119 C 
BRANCH  12  15
ATOM     15  C   UNL     1      -4.511  -0.766  24.583  0.00  0.00    -0.033 A 
ATOM     16  C   UNL     1      -3.412  -0.444  25.380  0.00  0.00    +0.017 A 
ATOM     17  C   UNL     1      -4.513  -1.949  23.844  0.00  0.00    +0.005 A 
ATOM     18  C   UNL     1      -2.315  -1.304  25.437  0.00  0.00    +0.055 A 
ATOM     20  C   UNL     1      -3.417  -2.810  23.902  0.00  0.00    +0.001 A 
ATOM     21  C   UNL     1      -2.318  -2.488  24.699  0.00  0.00    +0.012 A 
BRANCH  18  22
ATOM      1  F   UNL     1      -0.782   0.357  26.220  0.00  0.00    -0.166 F 
ATOM      2  F   UNL     1      -1.336  -1.205  27.618  0.00  0.00    -0.166 F 
ATOM      3  F   UNL     1      -0.021  -1.661  25.949  0.00  0.00    -0.166 F 
ATOM     22  C   UNL     1      -1.140  -0.960  26.289  0.00  0.00    +0.417 C 
ENDBRANCH  18  22
ENDBRANCH  12  15
ENDBRANCH   6  12
TORSDOF 5
ENDMDL
MODEL 8
REMARK VINA RESULT:      -4.6      2.992      4.942
REMARK  Name = 75536931
REMARK  5 active torsions:
REMARK  status: ('A' for Active; 'I' for Inactive)
REMARK    1  A    between atoms: O_5  and  C_10
REMARK    2  A    between atoms: O_5  and  C_19
REMARK    3  A    between atoms: N_6  and  C_12
REMARK    4  A    between atoms: C_12  and  C_15
REMARK    5  A    between atoms: C_18  and  C_22
REMARK                            x       y       z     vdW  Elec       q    Type
REMARK                         _______ _______ _______ _____ _____    ______ ____
ROOT
ATOM      4  O   UNL     1      -0.201   5.122  25.173  0.00  0.00    -0.375 OA
ATOM      6  N   UNL     1      -2.898   4.141  23.955  0.00  0.00    -0.292 NA
ATOM      9  C   UNL     1      -2.146   2.883  23.885  0.00  0.00    +0.131 C 
ATOM     10  C   UNL     1      -0.718   2.870  24.451  0.00  0.00    +0.215 C 
ATOM     11  C   UNL     1      -2.663   4.918  25.172  0.00  0.00    +0.113 C 
ATOM     13  C   UNL     1       0.078   4.140  24.180  0.00  0.00    +0.205 C 
ATOM     14  C   UNL     1      -1.432   5.808  24.993  0.00  0.00    +0.175 C 
ENDROOT
BRANCH  10   5
ATOM      5  O   UNL     1      -0.015   1.775  23.860  0.00  0.00    -0.468 OA
BRANCH   5  19
ATOM      7  N   UNL     1       0.164  -0.538  23.711  0.00  0.00    -0.219 NA
ATOM      8  N   UNL     1      -1.054  -0.765  26.226  0.00  0.00    -0.256 NA
ATOM     19  C   UNL     1      -0.229   0.543  24.413  0.00  0.00    +0.234 A 
ATOM     23  C   UNL     1      -0.827   0.431  25.650  0.00  0.00    +0.177 A 
ATOM     24  C   UNL     1      -0.062  -1.734  24.288  0.00  0.00    +0.134 A 
ATOM     25  C   UNL     1      -0.661  -1.846  25.523  0.00  0.00    +0.130 A 
ENDBRANCH   5  19
ENDBRANCH  10   5
BRANCH   6  12
ATOM     12  C   UNL     1      -4.325   3.885  23.749  0.00  0.00    +0.119 C 
BRANCH  12  15
ATOM     15  C   UNL     1      -4.790   2.667  24.499  0.00  0.00    -0.033 A 
ATOM     16  C   UNL     1      -4.298   1.407  24.156  0.00  0.00    +0.017 A 
ATOM     17  C   UNL     1      -5.712   2.796  25.537  0.00  0.00    +0.005 A 
ATOM     18  C   UNL     1      -4.730   0.277  24.852  0.00  0.00    +0.055 A 
ATOM     20  C   UNL     1      -6.143   1.668  26.233  0.00  0.00    +0.001 A 
ATOM     21  C   UNL     1      -5.651   0.408  25.891  0.00  0.00    +0.012 A 
BRANCH  18  22
ATOM      1  F   UNL     1      -3.832  -1.823  25.565  0.00  0.00    -0.166 F 
ATOM      2  F   UNL     1      -5.101  -1.842  23.806  0.00  0.00    -0.166 F 
ATOM      3  F   UNL     1      -3.099  -1.004  23.689  0.00  0.00    -0.166 F 
ATOM     22  C   UNL     1      -4.204  -1.070  24.487  0.00  0.00    +0.417 C 
ENDBRANCH  18  22
ENDBRANCH  12  15
ENDBRANCH   6  12
TORSDOF 5
ENDMDL
MODEL 9
REMARK VINA RESULT:      -4.6      3.162      4.405
REMARK  Name = 75536931
REMARK  5 active torsions:
REMARK  status: ('A' for Active; 'I' for Inactive)
REMARK    1  A    between atoms: O_5  and  C_10
REMARK    2  A    between atoms: O_5  and  C_19
REMARK    3  A    between atoms: N_6  and  C_12
REMARK    4  A    between atoms: C_12  and  C_15
REMARK    5  A    between atoms: C_18  and  C_22
REMARK                            x       y       z     vdW  Elec       q    Type
REMARK                         _______ _______ _______ _____ _____    ______ ____
ROOT
ATOM      4  O   UNL     1       0.957   2.325  25.664  0.00  0.00    -0.375 OA
ATOM      6  N   UNL     1      -1.502   2.590  23.766  0.00  0.00    -0.292 NA
ATOM      9  C   UNL     1      -0.813   1.486  23.091  0.00  0.00    +0.131 C 
ATOM     10  C   UNL     1       0.479   0.951  23.729  0.00  0.00    +0.215 C 
ATOM     11  C   UNL     1      -1.466   2.521  25.227  0.00  0.00    +0.113 C 
ATOM     13  C   UNL     1       1.372   2.026  24.335  0.00  0.00    +0.205 C 
ATOM     14  C   UNL     1      -0.183   3.168  25.748  0.00  0.00    +0.175 C 
ENDROOT
BRANCH  10   5
ATOM      5  O   UNL     1       1.228   0.275  22.717  0.00  0.00    -0.468 OA
BRANCH   5  19
ATOM      7  N   UNL     1       3.421   1.045  22.684  0.00  0.00    -0.219 NA
ATOM      8  N   UNL     1       4.261  -1.387  23.798  0.00  0.00    -0.256 NA
ATOM     19  C   UNL     1       2.552   0.058  22.979  0.00  0.00    +0.234 A 
ATOM     23  C   UNL     1       2.965  -1.137  23.527  0.00  0.00    +0.177 A 
ATOM     24  C   UNL     1       4.716   0.796  22.957  0.00  0.00    +0.134 A 
ATOM     25  C   UNL     1       5.129  -0.399  23.503  0.00  0.00    +0.130 A 
ENDBRANCH   5  19
ENDBRANCH  10   5
BRANCH   6  12
ATOM     12  C   UNL     1      -2.874   2.705  23.268  0.00  0.00    +0.119 C 
BRANCH  12  15
ATOM     15  C   UNL     1      -3.781   1.673  23.881  0.00  0.00    -0.033 A 
ATOM     16  C   UNL     1      -3.417   0.326  23.865  0.00  0.00    +0.017 A 
ATOM     17  C   UNL     1      -4.986   2.062  24.466  0.00  0.00    +0.005 A 
ATOM     18  C   UNL     1      -4.259  -0.631  24.433  0.00  0.00    +0.055 A 
ATOM     20  C   UNL     1      -5.827   1.106  25.035  0.00  0.00    +0.001 A 
ATOM     21  C   UNL     1      -5.463  -0.240  25.019  0.00  0.00    +0.012 A 
BRANCH  18  22
ATOM      1  F   UNL     1      -2.632  -2.296  23.882  0.00  0.00    -0.166 F 
ATOM      2  F   UNL     1      -3.832  -2.643  25.655  0.00  0.00    -0.166 F 
ATOM      3  F   UNL     1      -4.728  -2.838  23.684  0.00  0.00    -0.166 F 
ATOM     22  C   UNL     1      -3.870  -2.070  24.416  0.00  0.00    +0.417 C 
ENDBRANCH  18  22
ENDBRANCH  12  15
ENDBRANCH   6  12
TORSDOF 5
ENDMDL
MODEL 10
REMARK VINA RESULT:      -4.5      2.167      3.408
REMARK  Name = 75536931
REMARK  5 active torsions:
REMARK  status: ('A' for Active; 'I' for Inactive)
REMARK    1  A    between atoms: O_5  and  C_10
REMARK    2  A    between atoms: O_5  and  C_19
REMARK    3  A    between atoms: N_6  and  C_12
REMARK    4  A    between atoms: C_12  and  C_15
REMARK    5  A    between atoms: C_18  and  C_22
REMARK                            x       y       z     vdW  Elec       q    Type
REMARK                         _______ _______ _______ _____ _____    ______ ____
ROOT
ATOM      4  O   UNL     1       0.799   2.238  25.315  0.00  0.00    -0.375 OA
ATOM      6  N   UNL     1      -1.589   0.644  24.100  0.00  0.00    -0.292 NA
ATOM      9  C   UNL     1      -0.486  -0.068  23.447  0.00  0.00    +0.131 C 
ATOM     10  C   UNL     1       0.949   0.353  23.804  0.00  0.00    +0.215 C 
ATOM     11  C   UNL     1      -1.334   1.005  25.495  0.00  0.00    +0.113 C 
ATOM     13  C   UNL     1       1.136   1.853  23.986  0.00  0.00    +0.205 C 
ATOM     14  C   UNL     1      -0.597   2.342  25.561  0.00  0.00    +0.175 C 
ENDROOT
BRANCH  10   5
ATOM      5  O   UNL     1       1.813  -0.075  22.750  0.00  0.00    -0.468 OA
BRANCH   5  19
ATOM      7  N   UNL     1       3.561  -1.346  23.607  0.00  0.00    -0.219 NA
ATOM      8  N   UNL     1       5.319   0.777  23.090  0.00  0.00    -0.256 NA
ATOM     19  C   UNL     1       3.141  -0.190  23.057  0.00  0.00    +0.234 A 
ATOM     23  C   UNL     1       4.005   0.852  22.801  0.00  0.00    +0.177 A 
ATOM     24  C   UNL     1       4.875  -1.422  23.895  0.00  0.00    +0.134 A 
ATOM     25  C   UNL     1       5.738  -0.380  23.642  0.00  0.00    +0.130 A 
ENDBRANCH   5  19
ENDBRANCH  10   5
BRANCH   6  12
ATOM     12  C   UNL     1      -2.831  -0.119  23.961  0.00  0.00    +0.119 C 
BRANCH  12  15
ATOM     15  C   UNL     1      -4.027   0.667  24.426  0.00  0.00    -0.033 A 
ATOM     16  C   UNL     1      -3.919   2.042  24.636  0.00  0.00    +0.017 A 
ATOM     17  C   UNL     1      -5.244   0.022  24.646  0.00  0.00    +0.005 A 
ATOM     18  C   UNL     1      -5.028   2.771  25.067  0.00  0.00    +0.055 A 
ATOM     20  C   UNL     1      -6.353   0.750  25.076  0.00  0.00    +0.001 A 
ATOM     21  C   UNL     1      -6.245   2.125  25.286  0.00  0.00    +0.012 A 
BRANCH  18  22
ATOM      1  F   UNL     1      -6.113   4.854  25.524  0.00  0.00    -0.166 F 
ATOM      2  F   UNL     1      -4.132   4.573  26.360  0.00  0.00    -0.166 F 
ATOM      3  F   UNL     1      -4.371   4.894  24.224  0.00  0.00    -0.166 F 
ATOM     22  C   UNL     1      -4.914   4.241  25.291  0.00  0.00    +0.417 C 
ENDBRANCH  18  22
ENDBRANCH  12  15
ENDBRANCH   6  12
TORSDOF 5
ENDMDL
