MODEL 1
REMARK VINA RESULT:      -5.1      0.000      0.000
REMARK  Name = 75367699
REMARK  6 active torsions:
REMARK  status: ('A' for Active; 'I' for Inactive)
REMARK    1  A    between atoms: O_2  and  C_9
REMARK    2  A    between atoms: O_2  and  C_18
REMARK    3  A    between atoms: N_5  and  C_16
REMARK    4  A    between atoms: C_13  and  C_14
REMARK    5  A    between atoms: C_16  and  C_19
REMARK    6  A    between atoms: C_17  and  C_20
REMARK                            x       y       z     vdW  Elec       q    Type
REMARK                         _______ _______ _______ _____ _____    ______ ____
ROOT
ATOM      1  O   UNL     1      -4.422  -2.999  24.009  0.00  0.00    -0.375 OA
ATOM      3  O   UNL     1      -0.046  -1.659  25.546  0.00  0.00    -0.268 OA
ATOM      4  N   UNL     1      -2.322  -1.126  25.390  0.00  0.00    -0.291 N 
ATOM      8  C   UNL     1      -3.357  -0.127  25.095  0.00  0.00    +0.155 C 
ATOM      9  C   UNL     1      -4.721  -0.662  24.647  0.00  0.00    +0.216 C 
ATOM     10  C   UNL     1      -2.743  -2.488  25.718  0.00  0.00    +0.136 C 
ATOM     11  C   UNL     1      -4.624  -1.680  23.512  0.00  0.00    +0.206 C 
ATOM     12  C   UNL     1      -3.098  -3.269  24.459  0.00  0.00    +0.179 C 
ATOM     13  C   UNL     1      -0.946  -0.847  25.338  0.00  0.00    +0.265 C 
ENDROOT
BRANCH  13  14
ATOM      5  N   UNL     1       0.267   0.877  23.955  0.00  0.00    -0.259 N 
ATOM      6  N   UNL     1       0.508   2.196  23.875  0.00  0.00    -0.176 NA
ATOM     14  C   UNL     1      -0.523   0.523  25.009  0.00  0.00    +0.124 A 
ATOM     15  C   UNL     1      -0.820   1.694  25.666  0.00  0.00    +0.057 A 
ATOM     17  C   UNL     1      -0.158   2.691  24.923  0.00  0.00    +0.061 A 
ATOM     20  C   UNL     1      -0.139   4.139  25.184  0.00  0.00    +0.067 C 
BRANCH   5  16
ATOM     16  C   UNL     1       0.839  -0.007  22.966  0.00  0.00    +0.141 C 
ATOM     19  C   UNL     1       2.326   0.244  22.775  0.00  0.00    +0.029 C 
ENDBRANCH   5  16
ENDBRANCH  13  14
BRANCH   9   2
ATOM      2  O   UNL     1      -5.479   0.463  24.201  0.00  0.00    -0.483 OA
BRANCH   2  18
ATOM      7  N   UNL     1      -5.195   3.467  26.265  0.00  0.00    -0.260 NA
ATOM     18  C   UNL     1      -5.058   1.692  24.629  0.00  0.00    +0.139 A 
ATOM     21  C   UNL     1      -4.108   2.413  23.915  0.00  0.00    +0.049 A 
ATOM     22  C   UNL     1      -5.566   2.257  25.787  0.00  0.00    +0.156 A 
ATOM     23  C   UNL     1      -3.700   3.660  24.374  0.00  0.00    +0.023 A 
ATOM     24  C   UNL     1      -4.269   4.139  25.544  0.00  0.00    +0.111 A 
ENDBRANCH   2  18
ENDBRANCH   9   2
TORSDOF 4
ENDMDL
MODEL 2
REMARK VINA RESULT:      -3.7      1.797      4.639
REMARK  Name = 75367699
REMARK  6 active torsions:
REMARK  status: ('A' for Active; 'I' for Inactive)
REMARK    1  A    between atoms: O_2  and  C_9
REMARK    2  A    between atoms: O_2  and  C_18
REMARK    3  A    between atoms: N_5  and  C_16
REMARK    4  A    between atoms: C_13  and  C_14
REMARK    5  A    between atoms: C_16  and  C_19
REMARK    6  A    between atoms: C_17  and  C_20
REMARK                            x       y       z     vdW  Elec       q    Type
REMARK                         _______ _______ _______ _____ _____    ______ ____
ROOT
ATOM      1  O   UNL     1      -6.082   2.837  26.069  0.00  0.00    -0.375 OA
ATOM      3  O   UNL     1      -1.894   4.621  24.461  0.00  0.00    -0.268 OA
ATOM      4  N   UNL     1      -3.512   2.936  24.277  0.00  0.00    -0.291 N 
ATOM      8  C   UNL     1      -3.823   1.506  24.149  0.00  0.00    +0.155 C 
ATOM      9  C   UNL     1      -5.194   1.053  24.661  0.00  0.00    +0.216 C 
ATOM     10  C   UNL     1      -4.622   3.881  24.402  0.00  0.00    +0.136 C 
ATOM     11  C   UNL     1      -5.498   1.538  26.077  0.00  0.00    +0.206 C 
ATOM     12  C   UNL     1      -5.167   3.900  25.825  0.00  0.00    +0.179 C 
ATOM     13  C   UNL     1      -2.200   3.437  24.322  0.00  0.00    +0.265 C 
ENDROOT
BRANCH  13  14
ATOM      5  N   UNL     1      -0.048   2.361  25.074  0.00  0.00    -0.259 N 
ATOM      6  N   UNL     1       0.844   1.417  24.730  0.00  0.00    -0.176 NA
ATOM     14  C   UNL     1      -1.085   2.487  24.196  0.00  0.00    +0.124 A 
ATOM     15  C   UNL     1      -0.855   1.560  23.208  0.00  0.00    +0.057 A 
ATOM     17  C   UNL     1       0.346   0.930  23.589  0.00  0.00    +0.061 A 
ATOM     20  C   UNL     1       1.056  -0.150  22.883  0.00  0.00    +0.067 C 
BRANCH   5  16
ATOM     16  C   UNL     1       0.161   3.123  26.284  0.00  0.00    +0.141 C 
ATOM     19  C   UNL     1       0.451   2.223  27.475  0.00  0.00    +0.029 C 
ENDBRANCH   5  16
ENDBRANCH  13  14
BRANCH   9   2
ATOM      2  O   UNL     1      -5.185  -0.375  24.650  0.00  0.00    -0.483 OA
BRANCH   2  18
ATOM      7  N   UNL     1      -1.749  -0.992  25.732  0.00  0.00    -0.260 NA
ATOM     18  C   UNL     1      -3.965  -0.980  24.766  0.00  0.00    +0.139 A 
ATOM     21  C   UNL     1      -3.678  -2.153  24.076  0.00  0.00    +0.049 A 
ATOM     22  C   UNL     1      -2.975  -0.445  25.574  0.00  0.00    +0.156 A 
ATOM     23  C   UNL     1      -2.428  -2.745  24.212  0.00  0.00    +0.023 A 
ATOM     24  C   UNL     1      -1.506  -2.131  25.045  0.00  0.00    +0.111 A 
ENDBRANCH   2  18
ENDBRANCH   9   2
TORSDOF 4
ENDMDL
MODEL 3
REMARK VINA RESULT:      -3.5      1.321      1.694
REMARK  Name = 75367699
REMARK  6 active torsions:
REMARK  status: ('A' for Active; 'I' for Inactive)
REMARK    1  A    between atoms: O_2  and  C_9
REMARK    2  A    between atoms: O_2  and  C_18
REMARK    3  A    between atoms: N_5  and  C_16
REMARK    4  A    between atoms: C_13  and  C_14
REMARK    5  A    between atoms: C_16  and  C_19
REMARK    6  A    between atoms: C_17  and  C_20
REMARK                            x       y       z     vdW  Elec       q    Type
REMARK                         _______ _______ _______ _____ _____    ______ ____
ROOT
ATOM      1  O   UNL     1      -3.495  -2.917  24.059  0.00  0.00    -0.375 OA
ATOM      3  O   UNL     1       0.470  -0.256  24.775  0.00  0.00    -0.268 OA
ATOM      4  N   UNL     1      -1.828  -0.502  25.162  0.00  0.00    -0.291 N 
ATOM      8  C   UNL     1      -3.164   0.107  25.202  0.00  0.00    +0.155 C 
ATOM      9  C   UNL     1      -4.355  -0.835  24.996  0.00  0.00    +0.216 C 
ATOM     10  C   UNL     1      -1.710  -1.937  25.420  0.00  0.00    +0.136 C 
ATOM     11  C   UNL     1      -4.212  -1.724  23.762  0.00  0.00    +0.206 C 
ATOM     12  C   UNL     1      -2.086  -2.749  24.187  0.00  0.00    +0.179 C 
ATOM     13  C   UNL     1      -0.663   0.219  24.851  0.00  0.00    +0.265 C 
ENDROOT
BRANCH  13  14
ATOM      5  N   UNL     1      -1.216   2.223  23.427  0.00  0.00    -0.259 N 
ATOM      6  N   UNL     1      -1.233   3.567  23.445  0.00  0.00    -0.176 NA
ATOM     14  C   UNL     1      -0.782   1.661  24.592  0.00  0.00    +0.124 A 
ATOM     15  C   UNL     1      -0.494   2.711  25.431  0.00  0.00    +0.057 A 
ATOM     17  C   UNL     1      -0.791   3.860  24.671  0.00  0.00    +0.061 A 
ATOM     20  C   UNL     1      -0.663   5.266  25.086  0.00  0.00    +0.067 C 
BRANCH   5  16
ATOM     16  C   UNL     1      -1.639   1.527  22.234  0.00  0.00    +0.141 C 
ATOM     19  C   UNL     1      -2.746   2.273  21.506  0.00  0.00    +0.029 C 
ENDBRANCH   5  16
ENDBRANCH  13  14
BRANCH   9   2
ATOM      2  O   UNL     1      -5.510  -0.010  24.845  0.00  0.00    -0.483 OA
BRANCH   2  18
ATOM      7  N   UNL     1      -5.756   3.235  26.510  0.00  0.00    -0.260 NA
ATOM     18  C   UNL     1      -5.344   1.326  25.085  0.00  0.00    +0.139 A 
ATOM     21  C   UNL     1      -4.628   2.129  24.205  0.00  0.00    +0.049 A 
ATOM     22  C   UNL     1      -5.883   1.922  26.214  0.00  0.00    +0.156 A 
ATOM     23  C   UNL     1      -4.476   3.484  24.475  0.00  0.00    +0.023 A 
ATOM     24  C   UNL     1      -5.054   3.984  25.631  0.00  0.00    +0.111 A 
ENDBRANCH   2  18
ENDBRANCH   9   2
TORSDOF 4
ENDMDL
MODEL 4
REMARK VINA RESULT:      -3.5      1.960      5.170
REMARK  Name = 75367699
REMARK  6 active torsions:
REMARK  status: ('A' for Active; 'I' for Inactive)
REMARK    1  A    between atoms: O_2  and  C_9
REMARK    2  A    between atoms: O_2  and  C_18
REMARK    3  A    between atoms: N_5  and  C_16
REMARK    4  A    between atoms: C_13  and  C_14
REMARK    5  A    between atoms: C_16  and  C_19
REMARK    6  A    between atoms: C_17  and  C_20
REMARK                            x       y       z     vdW  Elec       q    Type
REMARK                         _______ _______ _______ _____ _____    ______ ____
ROOT
ATOM      1  O   UNL     1       1.423   0.209  23.588  0.00  0.00    -0.375 OA
ATOM      3  O   UNL     1      -1.122   4.248  24.305  0.00  0.00    -0.268 OA
ATOM      4  N   UNL     1      -0.664   2.063  25.014  0.00  0.00    -0.291 N 
ATOM      8  C   UNL     1      -1.169   0.761  25.468  0.00  0.00    +0.155 C 
ATOM      9  C   UNL     1      -0.266  -0.451  25.221  0.00  0.00    +0.216 C 
ATOM     10  C   UNL     1       0.779   2.222  24.825  0.00  0.00    +0.136 C 
ATOM     11  C   UNL     1       0.231  -0.547  23.780  0.00  0.00    +0.206 C 
ATOM     12  C   UNL     1       1.228   1.617  23.501  0.00  0.00    +0.179 C 
ATOM     13  C   UNL     1      -1.500   3.153  24.717  0.00  0.00    +0.265 C 
ENDROOT
BRANCH  13  14
ATOM      5  N   UNL     1      -3.869   2.855  23.909  0.00  0.00    -0.259 N 
ATOM      6  N   UNL     1      -5.132   2.725  24.349  0.00  0.00    -0.176 NA
ATOM     14  C   UNL     1      -2.949   2.993  24.908  0.00  0.00    +0.124 A 
ATOM     15  C   UNL     1      -3.661   2.950  26.082  0.00  0.00    +0.057 A 
ATOM     17  C   UNL     1      -4.999   2.784  25.677  0.00  0.00    +0.061 A 
ATOM     20  C   UNL     1      -6.190   2.676  26.536  0.00  0.00    +0.067 C 
BRANCH   5  16
ATOM     16  C   UNL     1      -3.609   2.838  22.488  0.00  0.00    +0.141 C 
ATOM     19  C   UNL     1      -2.628   1.742  22.105  0.00  0.00    +0.029 C 
ENDBRANCH   5  16
ENDBRANCH  13  14
BRANCH   9   2
ATOM      2  O   UNL     1      -1.041  -1.611  25.525  0.00  0.00    -0.483 OA
BRANCH   2  18
ATOM      7  N   UNL     1      -3.846  -3.005  23.639  0.00  0.00    -0.260 NA
ATOM     18  C   UNL     1      -2.267  -1.701  24.925  0.00  0.00    +0.139 A 
ATOM     21  C   UNL     1      -3.167  -0.642  24.969  0.00  0.00    +0.049 A 
ATOM     22  C   UNL     1      -2.651  -2.850  24.254  0.00  0.00    +0.156 A 
ATOM     23  C   UNL     1      -4.405  -0.763  24.350  0.00  0.00    +0.023 A 
ATOM     24  C   UNL     1      -4.694  -1.954  23.703  0.00  0.00    +0.111 A 
ENDBRANCH   2  18
ENDBRANCH   9   2
TORSDOF 4
ENDMDL
MODEL 5
REMARK VINA RESULT:      -3.2      1.860      4.407
REMARK  Name = 75367699
REMARK  6 active torsions:
REMARK  status: ('A' for Active; 'I' for Inactive)
REMARK    1  A    between atoms: O_2  and  C_9
REMARK    2  A    between atoms: O_2  and  C_18
REMARK    3  A    between atoms: N_5  and  C_16
REMARK    4  A    between atoms: C_13  and  C_14
REMARK    5  A    between atoms: C_16  and  C_19
REMARK    6  A    between atoms: C_17  and  C_20
REMARK                            x       y       z     vdW  Elec       q    Type
REMARK                         _______ _______ _______ _____ _____    ______ ____
ROOT
ATOM      1  O   UNL     1      -4.205   4.211  26.016  0.00  0.00    -0.375 OA
ATOM      3  O   UNL     1       0.416   3.154  25.099  0.00  0.00    -0.268 OA
ATOM      4  N   UNL     1      -1.830   2.808  24.527  0.00  0.00    -0.291 N 
ATOM      8  C   UNL     1      -2.903   1.869  24.178  0.00  0.00    +0.155 C 
ATOM      9  C   UNL     1      -4.335   2.319  24.481  0.00  0.00    +0.216 C 
ATOM     10  C   UNL     1      -2.163   4.226  24.663  0.00  0.00    +0.136 C 
ATOM     11  C   UNL     1      -4.517   2.826  25.910  0.00  0.00    +0.206 C 
ATOM     12  C   UNL     1      -2.813   4.509  26.012  0.00  0.00    +0.179 C 
ATOM     13  C   UNL     1      -0.506   2.407  24.774  0.00  0.00    +0.265 C 
ENDROOT
BRANCH  13  14
ATOM      5  N   UNL     1       0.818   0.473  23.846  0.00  0.00    -0.259 N 
ATOM      6  N   UNL     1       0.921  -0.866  23.898  0.00  0.00    -0.176 NA
ATOM     14  C   UNL     1      -0.171   0.982  24.636  0.00  0.00    +0.124 A 
ATOM     15  C   UNL     1      -0.758  -0.101  25.247  0.00  0.00    +0.057 A 
ATOM     17  C   UNL     1      -0.045  -1.211  24.755  0.00  0.00    +0.061 A 
ATOM     20  C   UNL     1      -0.258  -2.631  25.083  0.00  0.00    +0.067 C 
BRANCH   5  16
ATOM     16  C   UNL     1       1.722   1.218  23.000  0.00  0.00    +0.141 C 
ATOM     19  C   UNL     1       2.973   0.421  22.668  0.00  0.00    +0.029 C 
ENDBRANCH   5  16
ENDBRANCH  13  14
BRANCH   9   2
ATOM      2  O   UNL     1      -5.175   1.181  24.280  0.00  0.00    -0.483 OA
BRANCH   2  18
ATOM      7  N   UNL     1      -3.610  -1.526  26.173  0.00  0.00    -0.260 NA
ATOM     18  C   UNL     1      -4.628  -0.040  24.560  0.00  0.00    +0.139 A 
ATOM     21  C   UNL     1      -4.522  -1.020  23.580  0.00  0.00    +0.049 A 
ATOM     22  C   UNL     1      -4.162  -0.340  25.830  0.00  0.00    +0.156 A 
ATOM     23  C   UNL     1      -3.961  -2.252  23.894  0.00  0.00    +0.023 A 
ATOM     24  C   UNL     1      -3.524  -2.454  25.193  0.00  0.00    +0.111 A 
ENDBRANCH   2  18
ENDBRANCH   9   2
TORSDOF 4
ENDMDL
MODEL 6
REMARK VINA RESULT:      -3.1      1.914      5.327
REMARK  Name = 75367699
REMARK  6 active torsions:
REMARK  status: ('A' for Active; 'I' for Inactive)
REMARK    1  A    between atoms: O_2  and  C_9
REMARK    2  A    between atoms: O_2  and  C_18
REMARK    3  A    between atoms: N_5  and  C_16
REMARK    4  A    between atoms: C_13  and  C_14
REMARK    5  A    between atoms: C_16  and  C_19
REMARK    6  A    between atoms: C_17  and  C_20
REMARK                            x       y       z     vdW  Elec       q    Type
REMARK                         _______ _______ _______ _____ _____    ______ ____
ROOT
ATOM      1  O   UNL     1       1.307  -0.606  23.180  0.00  0.00    -0.375 OA
ATOM      3  O   UNL     1      -0.679   3.781  23.528  0.00  0.00    -0.268 OA
ATOM      4  N   UNL     1      -0.368   1.680  24.519  0.00  0.00    -0.291 N 
ATOM      8  C   UNL     1      -0.946   0.531  25.227  0.00  0.00    +0.155 C 
ATOM      9  C   UNL     1      -0.217  -0.807  25.076  0.00  0.00    +0.216 C 
ATOM     10  C   UNL     1       1.046   1.629  24.148  0.00  0.00    +0.136 C 
ATOM     11  C   UNL     1       0.076  -1.171  23.622  0.00  0.00    +0.206 C 
ATOM     12  C   UNL     1       1.253   0.788  22.894  0.00  0.00    +0.179 C 
ATOM     13  C   UNL     1      -1.115   2.812  24.149  0.00  0.00    +0.265 C 
ENDROOT
BRANCH  13  14
ATOM      5  N   UNL     1      -3.089   3.737  25.413  0.00  0.00    -0.259 N 
ATOM      6  N   UNL     1      -4.413   3.577  25.580  0.00  0.00    -0.176 NA
ATOM     14  C   UNL     1      -2.536   2.863  24.523  0.00  0.00    +0.124 A 
ATOM     15  C   UNL     1      -3.570   2.076  24.077  0.00  0.00    +0.057 A 
ATOM     17  C   UNL     1      -4.701   2.561  24.762  0.00  0.00    +0.061 A 
ATOM     20  C   UNL     1      -6.087   2.074  24.661  0.00  0.00    +0.067 C 
BRANCH   5  16
ATOM     16  C   UNL     1      -2.403   4.770  26.154  0.00  0.00    +0.141 C 
ATOM     19  C   UNL     1      -1.857   5.855  25.239  0.00  0.00    +0.029 C 
ENDBRANCH   5  16
ENDBRANCH  13  14
BRANCH   9   2
ATOM      2  O   UNL     1      -1.066  -1.805  25.644  0.00  0.00    -0.483 OA
BRANCH   2  18
ATOM      7  N   UNL     1      -3.717  -3.391  23.690  0.00  0.00    -0.260 NA
ATOM     18  C   UNL     1      -2.278  -1.993  25.039  0.00  0.00    +0.139 A 
ATOM     21  C   UNL     1      -3.283  -1.038  25.134  0.00  0.00    +0.049 A 
ATOM     22  C   UNL     1      -2.543  -3.142  24.312  0.00  0.00    +0.156 A 
ATOM     23  C   UNL     1      -4.504  -1.257  24.509  0.00  0.00    +0.023 A 
ATOM     24  C   UNL     1      -4.670  -2.438  23.804  0.00  0.00    +0.111 A 
ENDBRANCH   2  18
ENDBRANCH   9   2
TORSDOF 4
ENDMDL
MODEL 7
REMARK VINA RESULT:      -2.9      1.361      1.943
REMARK  Name = 75367699
REMARK  6 active torsions:
REMARK  status: ('A' for Active; 'I' for Inactive)
REMARK    1  A    between atoms: O_2  and  C_9
REMARK    2  A    between atoms: O_2  and  C_18
REMARK    3  A    between atoms: N_5  and  C_16
REMARK    4  A    between atoms: C_13  and  C_14
REMARK    5  A    between atoms: C_16  and  C_19
REMARK    6  A    between atoms: C_17  and  C_20
REMARK                            x       y       z     vdW  Elec       q    Type
REMARK                         _______ _______ _______ _____ _____    ______ ____
ROOT
ATOM      1  O   UNL     1      -3.744  -2.640  23.926  0.00  0.00    -0.375 OA
ATOM      3  O   UNL     1       0.613  -0.632  24.465  0.00  0.00    -0.268 OA
ATOM      4  N   UNL     1      -1.636  -0.653  25.122  0.00  0.00    -0.291 N 
ATOM      8  C   UNL     1      -2.858   0.101  25.430  0.00  0.00    +0.155 C 
ATOM      9  C   UNL     1      -4.186  -0.643  25.257  0.00  0.00    +0.216 C 
ATOM     10  C   UNL     1      -1.693  -2.114  25.156  0.00  0.00    +0.136 C 
ATOM     11  C   UNL     1      -4.315  -1.336  23.902  0.00  0.00    +0.206 C 
ATOM     12  C   UNL     1      -2.321  -2.668  23.883  0.00  0.00    +0.179 C 
ATOM     13  C   UNL     1      -0.424  -0.040  24.761  0.00  0.00    +0.265 C 
ENDROOT
BRANCH  13  14
ATOM      5  N   UNL     1      -0.202   2.240  25.813  0.00  0.00    -0.259 N 
ATOM      6  N   UNL     1      -0.185   3.550  25.514  0.00  0.00    -0.176 NA
ATOM     14  C   UNL     1      -0.368   1.429  24.728  0.00  0.00    +0.124 A 
ATOM     15  C   UNL     1      -0.466   2.268  23.644  0.00  0.00    +0.057 A 
ATOM     17  C   UNL     1      -0.346   3.562  24.188  0.00  0.00    +0.061 A 
ATOM     20  C   UNL     1      -0.382   4.845  23.466  0.00  0.00    +0.067 C 
BRANCH   5  16
ATOM     16  C   UNL     1      -0.051   1.827  27.189  0.00  0.00    +0.141 C 
ATOM     19  C   UNL     1       1.025   2.627  27.905  0.00  0.00    +0.029 C 
ENDBRANCH   5  16
ENDBRANCH  13  14
BRANCH   9   2
ATOM      2  O   UNL     1      -5.223   0.331  25.383  0.00  0.00    -0.483 OA
BRANCH   2  18
ATOM      7  N   UNL     1      -4.900   3.954  25.739  0.00  0.00    -0.260 NA
ATOM     18  C   UNL     1      -4.885   1.624  25.095  0.00  0.00    +0.139 A 
ATOM     21  C   UNL     1      -4.213   1.945  23.922  0.00  0.00    +0.049 A 
ATOM     22  C   UNL     1      -5.203   2.656  25.963  0.00  0.00    +0.156 A 
ATOM     23  C   UNL     1      -3.884   3.269  23.655  0.00  0.00    +0.023 A 
ATOM     24  C   UNL     1      -4.247   4.228  24.587  0.00  0.00    +0.111 A 
ENDBRANCH   2  18
ENDBRANCH   9   2
TORSDOF 4
ENDMDL
MODEL 8
REMARK VINA RESULT:      -2.6      2.126      4.420
REMARK  Name = 75367699
REMARK  6 active torsions:
REMARK  status: ('A' for Active; 'I' for Inactive)
REMARK    1  A    between atoms: O_2  and  C_9
REMARK    2  A    between atoms: O_2  and  C_18
REMARK    3  A    between atoms: N_5  and  C_16
REMARK    4  A    between atoms: C_13  and  C_14
REMARK    5  A    between atoms: C_16  and  C_19
REMARK    6  A    between atoms: C_17  and  C_20
REMARK                            x       y       z     vdW  Elec       q    Type
REMARK                         _______ _______ _______ _____ _____    ______ ____
ROOT
ATOM      1  O   UNL     1      -1.964   5.531  25.166  0.00  0.00    -0.375 OA
ATOM      3  O   UNL     1       1.252   1.946  24.821  0.00  0.00    -0.268 OA
ATOM      4  N   UNL     1      -0.750   2.873  24.031  0.00  0.00    -0.291 N 
ATOM      8  C   UNL     1      -2.147   2.676  23.624  0.00  0.00    +0.155 C 
ATOM      9  C   UNL     1      -3.074   3.890  23.742  0.00  0.00    +0.216 C 
ATOM     10  C   UNL     1      -0.214   4.235  24.044  0.00  0.00    +0.136 C 
ATOM     11  C   UNL     1      -3.009   4.566  25.110  0.00  0.00    +0.206 C 
ATOM     12  C   UNL     1      -0.655   4.985  25.295  0.00  0.00    +0.179 C 
ATOM     13  C   UNL     1       0.088   1.823  24.443  0.00  0.00    +0.265 C 
ENDROOT
BRANCH  13  14
ATOM      5  N   UNL     1      -0.127  -0.515  23.525  0.00  0.00    -0.259 N 
ATOM      6  N   UNL     1      -0.758  -1.683  23.731  0.00  0.00    -0.176 NA
ATOM     14  C   UNL     1      -0.451   0.455  24.429  0.00  0.00    +0.124 A 
ATOM     15  C   UNL     1      -1.359  -0.119  25.285  0.00  0.00    +0.057 A 
ATOM     17  C   UNL     1      -1.510  -1.436  24.807  0.00  0.00    +0.061 A 
ATOM     20  C   UNL     1      -2.371  -2.496  25.357  0.00  0.00    +0.067 C 
BRANCH   5  16
ATOM     16  C   UNL     1       0.795  -0.395  22.419  0.00  0.00    +0.141 C 
ATOM     19  C   UNL     1       2.242  -0.387  22.887  0.00  0.00    +0.029 C 
ENDBRANCH   5  16
ENDBRANCH  13  14
BRANCH   9   2
ATOM      2  O   UNL     1      -4.403   3.415  23.520  0.00  0.00    -0.483 OA
BRANCH   2  18
ATOM      7  N   UNL     1      -6.288   2.546  26.528  0.00  0.00    -0.260 NA
ATOM     18  C   UNL     1      -4.956   2.657  24.514  0.00  0.00    +0.139 A 
ATOM     21  C   UNL     1      -4.773   1.279  24.550  0.00  0.00    +0.049 A 
ATOM     22  C   UNL     1      -5.715   3.236  25.517  0.00  0.00    +0.156 A 
ATOM     23  C   UNL     1      -5.347   0.534  25.573  0.00  0.00    +0.023 A 
ATOM     24  C   UNL     1      -6.089   1.208  26.530  0.00  0.00    +0.111 A 
ENDBRANCH   2  18
ENDBRANCH   9   2
TORSDOF 4
ENDMDL
MODEL 9
REMARK VINA RESULT:      -2.2      0.884      2.037
REMARK  Name = 75367699
REMARK  6 active torsions:
REMARK  status: ('A' for Active; 'I' for Inactive)
REMARK    1  A    between atoms: O_2  and  C_9
REMARK    2  A    between atoms: O_2  and  C_18
REMARK    3  A    between atoms: N_5  and  C_16
REMARK    4  A    between atoms: C_13  and  C_14
REMARK    5  A    between atoms: C_16  and  C_19
REMARK    6  A    between atoms: C_17  and  C_20
REMARK                            x       y       z     vdW  Elec       q    Type
REMARK                         _______ _______ _______ _____ _____    ______ ____
ROOT
ATOM      1  O   UNL     1      -4.562  -2.625  24.094  0.00  0.00    -0.375 OA
ATOM      3  O   UNL     1       0.054  -2.523  25.504  0.00  0.00    -0.268 OA
ATOM      4  N   UNL     1      -1.909  -1.305  25.117  0.00  0.00    -0.291 N 
ATOM      8  C   UNL     1      -2.553  -0.112  24.551  0.00  0.00    +0.155 C 
ATOM      9  C   UNL     1      -4.030  -0.245  24.169  0.00  0.00    +0.216 C 
ATOM     10  C   UNL     1      -2.757  -2.331  25.724  0.00  0.00    +0.136 C 
ATOM     11  C   UNL     1      -4.320  -1.468  23.301  0.00  0.00    +0.206 C 
ATOM     12  C   UNL     1      -3.395  -3.215  24.659  0.00  0.00    +0.179 C 
ATOM     13  C   UNL     1      -0.522  -1.526  25.072  0.00  0.00    +0.265 C 
ENDROOT
BRANCH  13  14
ATOM      5  N   UNL     1       0.240   0.848  24.698  0.00  0.00    -0.259 N 
ATOM      6  N   UNL     1       1.136   1.580  24.015  0.00  0.00    -0.176 NA
ATOM     14  C   UNL     1       0.329  -0.493  24.463  0.00  0.00    +0.124 A 
ATOM     15  C   UNL     1       1.355  -0.649  23.562  0.00  0.00    +0.057 A 
ATOM     17  C   UNL     1       1.814   0.661  23.322  0.00  0.00    +0.061 A 
ATOM     20  C   UNL     1       2.909   1.078  22.430  0.00  0.00    +0.067 C 
BRANCH   5  16
ATOM     16  C   UNL     1      -0.692   1.513  25.579  0.00  0.00    +0.141 C 
ATOM     19  C   UNL     1      -0.031   2.641  26.354  0.00  0.00    +0.029 C 
ENDBRANCH   5  16
ENDBRANCH  13  14
BRANCH   9   2
ATOM      2  O   UNL     1      -4.375   0.935  23.442  0.00  0.00    -0.483 OA
BRANCH   2  18
ATOM      7  N   UNL     1      -5.581   3.338  25.918  0.00  0.00    -0.260 NA
ATOM     18  C   UNL     1      -4.478   2.091  24.165  0.00  0.00    +0.139 A 
ATOM     21  C   UNL     1      -3.637   3.169  23.917  0.00  0.00    +0.049 A 
ATOM     22  C   UNL     1      -5.425   2.224  25.167  0.00  0.00    +0.156 A 
ATOM     23  C   UNL     1      -3.766   4.332  24.667  0.00  0.00    +0.023 A 
ATOM     24  C   UNL     1      -4.745   4.366  25.647  0.00  0.00    +0.111 A 
ENDBRANCH   2  18
ENDBRANCH   9   2
TORSDOF 4
ENDMDL
MODEL 10
REMARK VINA RESULT:      -2.2      1.648      4.412
REMARK  Name = 75367699
REMARK  6 active torsions:
REMARK  status: ('A' for Active; 'I' for Inactive)
REMARK    1  A    between atoms: O_2  and  C_9
REMARK    2  A    between atoms: O_2  and  C_18
REMARK    3  A    between atoms: N_5  and  C_16
REMARK    4  A    between atoms: C_13  and  C_14
REMARK    5  A    between atoms: C_16  and  C_19
REMARK    6  A    between atoms: C_17  and  C_20
REMARK                            x       y       z     vdW  Elec       q    Type
REMARK                         _______ _______ _______ _____ _____    ______ ____
ROOT
ATOM      1  O   UNL     1      -0.652  -2.605  25.413  0.00  0.00    -0.375 OA
ATOM      3  O   UNL     1      -5.109  -1.124  24.294  0.00  0.00    -0.268 OA
ATOM      4  N   UNL     1      -2.804  -0.759  24.077  0.00  0.00    -0.291 N 
ATOM      8  C   UNL     1      -1.678   0.183  24.097  0.00  0.00    +0.155 C 
ATOM      9  C   UNL     1      -0.301  -0.399  24.431  0.00  0.00    +0.216 C 
ATOM     10  C   UNL     1      -2.519  -2.181  23.886  0.00  0.00    +0.136 C 
ATOM     11  C   UNL     1      -0.301  -1.254  25.697  0.00  0.00    +0.206 C 
ATOM     12  C   UNL     1      -2.040  -2.823  25.182  0.00  0.00    +0.179 C 
ATOM     13  C   UNL     1      -4.140  -0.366  24.271  0.00  0.00    +0.265 C 
ENDROOT
BRANCH  13  14
ATOM      5  N   UNL     1      -3.908   2.082  23.717  0.00  0.00    -0.259 N 
ATOM      6  N   UNL     1      -4.328   3.301  24.096  0.00  0.00    -0.176 NA
ATOM     14  C   UNL     1      -4.426   1.064  24.463  0.00  0.00    +0.124 A 
ATOM     15  C   UNL     1      -5.241   1.658  25.396  0.00  0.00    +0.057 A 
ATOM     17  C   UNL     1      -5.142   3.036  25.122  0.00  0.00    +0.061 A 
ATOM     20  C   UNL     1      -5.816   4.141  25.825  0.00  0.00    +0.067 C 
BRANCH   5  16
ATOM     16  C   UNL     1      -2.991   1.964  22.607  0.00  0.00    +0.141 C 
ATOM     19  C   UNL     1      -3.220   3.049  21.566  0.00  0.00    +0.029 C 
ENDBRANCH   5  16
ENDBRANCH  13  14
BRANCH   9   2
ATOM      2  O   UNL     1       0.580   0.709  24.618  0.00  0.00    -0.483 OA
BRANCH   2  18
ATOM      7  N   UNL     1      -0.407   4.178  24.022  0.00  0.00    -0.260 NA
ATOM     18  C   UNL     1      -0.005   1.929  24.814  0.00  0.00    +0.139 A 
ATOM     21  C   UNL     1      -0.767   2.185  25.948  0.00  0.00    +0.049 A 
ATOM     22  C   UNL     1       0.143   2.950  23.889  0.00  0.00    +0.156 A 
ATOM     23  C   UNL     1      -1.349   3.435  26.121  0.00  0.00    +0.023 A 
ATOM     24  C   UNL     1      -1.141   4.389  25.138  0.00  0.00    +0.111 A 
ENDBRANCH   2  18
ENDBRANCH   9   2
TORSDOF 4
ENDMDL
