MODEL 1
REMARK VINA RESULT:      -4.3      0.000      0.000
REMARK  Name = 75411642
REMARK  3 active torsions:
REMARK  status: ('A' for Active; 'I' for Inactive)
REMARK    1  A    between atoms: O_6  and  C_10
REMARK    2  A    between atoms: O_6  and  C_18
REMARK    3  A    between atoms: C_25  and  C_27
REMARK                            x       y       z     vdW  Elec       q    Type
REMARK                         _______ _______ _______ _____ _____    ______ ____
ROOT
ATOM      1  S   UNL     1      16.635  -5.861  23.739  0.00  0.00    -0.052 S 
ATOM      5  O   UNL     1      15.240  -9.913  26.239  0.00  0.00    -0.375 OA
ATOM      7  N   UNL     1      16.982  -7.608  25.754  0.00  0.00    -0.304 N 
ATOM      8  N   UNL     1      17.258  -5.261  26.169  0.00  0.00    -0.225 NA
ATOM     10  C   UNL     1      16.227  -8.454  27.973  0.00  0.00    +0.218 C 
ATOM     11  C   UNL     1      17.405  -8.009  27.100  0.00  0.00    +0.154 C 
ATOM     12  C   UNL     1      16.668  -8.638  24.755  0.00  0.00    +0.135 C 
ATOM     13  C   UNL     1      15.633  -9.813  27.605  0.00  0.00    +0.206 C 
ATOM     14  C   UNL     1      16.344 -10.004  25.344  0.00  0.00    +0.179 C 
ATOM     15  C   UNL     1      16.991  -6.262  25.363  0.00  0.00    +0.162 A 
ATOM     16  C   UNL     1      16.850  -4.191  24.115  0.00  0.00    +0.041 A 
ATOM     17  C   UNL     1      17.182  -4.067  25.468  0.00  0.00    +0.080 A 
ATOM     19  C   UNL     1      16.736  -3.073  23.274  0.00  0.00    +0.017 A 
ATOM     20  C   UNL     1      17.405  -2.776  25.995  0.00  0.00    +0.029 A 
ATOM     22  C   UNL     1      16.961  -1.807  23.821  0.00  0.00    +0.001 A 
ATOM     23  C   UNL     1      17.291  -1.658  25.164  0.00  0.00    +0.002 A 
ENDROOT
BRANCH  10   6
ATOM      6  O   UNL     1      15.206  -7.460  27.949  0.00  0.00    -0.469 OA
BRANCH   6  18
ATOM      9  N   UNL     1      16.366  -5.808  29.090  0.00  0.00    -0.221 NA
ATOM     18  C   UNL     1      15.231  -6.529  28.952  0.00  0.00    +0.215 A 
ATOM     21  C   UNL     1      14.113  -6.380  29.758  0.00  0.00    +0.068 A 
ATOM     24  C   UNL     1      14.164  -5.428  30.770  0.00  0.00    +0.019 A 
ATOM     25  C   UNL     1      15.314  -4.666  30.944  0.00  0.00    +0.073 A 
ATOM     26  C   UNL     1      16.379  -4.892  30.085  0.00  0.00    +0.127 A 
BRANCH  25  27
ATOM      2  F   UNL     1      14.324  -3.666  32.859  0.00  0.00    -0.166 F 
ATOM      3  F   UNL     1      16.495  -3.777  32.825  0.00  0.00    -0.166 F 
ATOM      4  F   UNL     1      15.465  -2.357  31.550  0.00  0.00    -0.166 F 
ATOM     27  C   UNL     1      15.401  -3.640  32.018  0.00  0.00    +0.419 C 
ENDBRANCH  25  27
ENDBRANCH   6  18
ENDBRANCH  10   6
TORSDOF 3
ENDMDL
MODEL 2
REMARK VINA RESULT:      -3.1     26.101     27.188
REMARK  Name = 75411642
REMARK  3 active torsions:
REMARK  status: ('A' for Active; 'I' for Inactive)
REMARK    1  A    between atoms: O_6  and  C_10
REMARK    2  A    between atoms: O_6  and  C_18
REMARK    3  A    between atoms: C_25  and  C_27
REMARK                            x       y       z     vdW  Elec       q    Type
REMARK                         _______ _______ _______ _____ _____    ______ ____
ROOT
ATOM      1  S   UNL     1      -2.642  -9.579  11.621  0.00  0.00    -0.052 S 
ATOM      5  O   UNL     1      -6.471  -8.451   8.674  0.00  0.00    -0.375 OA
ATOM      7  N   UNL     1      -5.046 -10.172  10.569  0.00  0.00    -0.304 N 
ATOM      8  N   UNL     1      -4.646 -10.581  12.899  0.00  0.00    -0.225 NA
ATOM     10  C   UNL     1      -7.498  -9.735  10.521  0.00  0.00    +0.218 C 
ATOM     11  C   UNL     1      -6.381 -10.781  10.577  0.00  0.00    +0.154 C 
ATOM     12  C   UNL     1      -4.482  -9.677   9.307  0.00  0.00    +0.135 C 
ATOM     13  C   UNL     1      -7.668  -9.049   9.165  0.00  0.00    +0.206 C 
ATOM     14  C   UNL     1      -5.515  -9.404   8.222  0.00  0.00    +0.179 C 
ATOM     15  C   UNL     1      -4.247 -10.164  11.721  0.00  0.00    +0.162 A 
ATOM     16  C   UNL     1      -2.432  -9.901  13.303  0.00  0.00    +0.041 A 
ATOM     17  C   UNL     1      -3.617 -10.438  13.816  0.00  0.00    +0.080 A 
ATOM     19  C   UNL     1      -1.300  -9.696  14.108  0.00  0.00    +0.017 A 
ATOM     20  C   UNL     1      -3.667 -10.779  15.186  0.00  0.00    +0.029 A 
ATOM     22  C   UNL     1      -1.377 -10.042  15.460  0.00  0.00    +0.001 A 
ATOM     23  C   UNL     1      -2.545 -10.576  15.994  0.00  0.00    +0.002 A 
ENDROOT
BRANCH  10   6
ATOM      6  O   UNL     1      -7.294  -8.753  11.534  0.00  0.00    -0.469 OA
BRANCH   6  18
ATOM      9  N   UNL     1      -6.897  -9.137  13.786  0.00  0.00    -0.221 NA
ATOM     18  C   UNL     1      -7.790  -9.041  12.777  0.00  0.00    +0.215 A 
ATOM     21  C   UNL     1      -9.157  -9.215  12.930  0.00  0.00    +0.068 A 
ATOM     24  C   UNL     1      -9.636  -9.507  14.202  0.00  0.00    +0.019 A 
ATOM     25  C   UNL     1      -8.748  -9.614  15.266  0.00  0.00    +0.073 A 
ATOM     26  C   UNL     1      -7.400  -9.422  15.008  0.00  0.00    +0.127 A 
BRANCH  25  27
ATOM      2  F   UNL     1     -10.425 -10.587  16.642  0.00  0.00    -0.166 F 
ATOM      3  F   UNL     1      -8.375 -10.715  17.357  0.00  0.00    -0.166 F 
ATOM      4  F   UNL     1      -9.426  -8.819  17.418  0.00  0.00    -0.166 F 
ATOM     27  C   UNL     1      -9.229  -9.925  16.639  0.00  0.00    +0.419 C 
ENDBRANCH  25  27
ENDBRANCH   6  18
ENDBRANCH  10   6
TORSDOF 3
ENDMDL
MODEL 3
REMARK VINA RESULT:      -1.8      2.411      2.924
REMARK  Name = 75411642
REMARK  3 active torsions:
REMARK  status: ('A' for Active; 'I' for Inactive)
REMARK    1  A    between atoms: O_6  and  C_10
REMARK    2  A    between atoms: O_6  and  C_18
REMARK    3  A    between atoms: C_25  and  C_27
REMARK                            x       y       z     vdW  Elec       q    Type
REMARK                         _______ _______ _______ _____ _____    ______ ____
ROOT
ATOM      1  S   UNL     1      16.308  -5.279  23.864  0.00  0.00    -0.052 S 
ATOM      5  O   UNL     1      15.104  -9.462  26.244  0.00  0.00    -0.375 OA
ATOM      7  N   UNL     1      16.831  -7.155  25.719  0.00  0.00    -0.304 N 
ATOM      8  N   UNL     1      17.196  -4.842  26.246  0.00  0.00    -0.225 NA
ATOM     10  C   UNL     1      16.297  -8.128  27.950  0.00  0.00    +0.218 C 
ATOM     11  C   UNL     1      17.385  -7.645  26.986  0.00  0.00    +0.154 C 
ATOM     12  C   UNL     1      16.392  -8.115  24.699  0.00  0.00    +0.135 C 
ATOM     13  C   UNL     1      15.640  -9.453  27.565  0.00  0.00    +0.206 C 
ATOM     14  C   UNL     1      16.105  -9.511  25.234  0.00  0.00    +0.179 C 
ATOM     15  C   UNL     1      16.825  -5.786  25.413  0.00  0.00    +0.162 A 
ATOM     16  C   UNL     1      16.596  -3.639  24.317  0.00  0.00    +0.041 A 
ATOM     17  C   UNL     1      17.071  -3.606  25.631  0.00  0.00    +0.080 A 
ATOM     19  C   UNL     1      16.415  -2.469  23.563  0.00  0.00    +0.017 A 
ATOM     20  C   UNL     1      17.374  -2.354  26.210  0.00  0.00    +0.029 A 
ATOM     22  C   UNL     1      16.722  -1.243  24.159  0.00  0.00    +0.001 A 
ATOM     23  C   UNL     1      17.195  -1.184  25.466  0.00  0.00    +0.002 A 
ENDROOT
BRANCH  10   6
ATOM      6  O   UNL     1      15.299  -7.121  28.096  0.00  0.00    -0.469 OA
BRANCH   6  18
ATOM      9  N   UNL     1      13.448  -6.343  29.255  0.00  0.00    -0.221 NA
ATOM     18  C   UNL     1      14.359  -7.325  29.069  0.00  0.00    +0.215 A 
ATOM     21  C   UNL     1      14.391  -8.503  29.797  0.00  0.00    +0.068 A 
ATOM     24  C   UNL     1      13.424  -8.686  30.781  0.00  0.00    +0.019 A 
ATOM     25  C   UNL     1      12.470  -7.699  31.003  0.00  0.00    +0.073 A 
ATOM     26  C   UNL     1      12.525  -6.556  30.220  0.00  0.00    +0.127 A 
BRANCH  25  27
ATOM      2  F   UNL     1      11.666  -8.925  32.873  0.00  0.00    -0.166 F 
ATOM      3  F   UNL     1      11.294  -6.783  32.873  0.00  0.00    -0.166 F 
ATOM      4  F   UNL     1      10.171  -8.075  31.543  0.00  0.00    -0.166 F 
ATOM     27  C   UNL     1      11.424  -7.864  32.047  0.00  0.00    +0.419 C 
ENDBRANCH  25  27
ENDBRANCH   6  18
ENDBRANCH  10   6
TORSDOF 3
ENDMDL
MODEL 4
REMARK VINA RESULT:      -1.4     19.924     20.849
REMARK  Name = 75411642
REMARK  3 active torsions:
REMARK  status: ('A' for Active; 'I' for Inactive)
REMARK    1  A    between atoms: O_6  and  C_10
REMARK    2  A    between atoms: O_6  and  C_18
REMARK    3  A    between atoms: C_25  and  C_27
REMARK                            x       y       z     vdW  Elec       q    Type
REMARK                         _______ _______ _______ _____ _____    ______ ____
ROOT
ATOM      1  S   UNL     1       0.212   1.326  24.345  0.00  0.00    -0.052 S 
ATOM      5  O   UNL     1      -2.128  -3.020  23.836  0.00  0.00    -0.375 OA
ATOM      7  N   UNL     1      -1.488  -0.544  25.266  0.00  0.00    -0.304 N 
ATOM      8  N   UNL     1      -2.059   1.777  25.482  0.00  0.00    -0.225 NA
ATOM     10  C   UNL     1      -3.726  -1.628  25.109  0.00  0.00    +0.218 C 
ATOM     11  C   UNL     1      -2.656  -1.016  26.018  0.00  0.00    +0.154 C 
ATOM     12  C   UNL     1      -0.491  -1.512  24.791  0.00  0.00    +0.135 C 
ATOM     13  C   UNL     1      -3.371  -2.998  24.532  0.00  0.00    +0.206 C 
ATOM     14  C   UNL     1      -1.000  -2.944  24.703  0.00  0.00    +0.179 C 
ATOM     15  C   UNL     1      -1.241   0.826  25.097  0.00  0.00    +0.162 A 
ATOM     16  C   UNL     1      -0.269   2.972  24.536  0.00  0.00    +0.041 A 
ATOM     17  C   UNL     1      -1.515   3.013  25.168  0.00  0.00    +0.080 A 
ATOM     19  C   UNL     1       0.409   4.141  24.156  0.00  0.00    +0.017 A 
ATOM     20  C   UNL     1      -2.102   4.271  25.427  0.00  0.00    +0.029 A 
ATOM     22  C   UNL     1      -0.194   5.373  24.423  0.00  0.00    +0.001 A 
ATOM     23  C   UNL     1      -1.434   5.439  25.050  0.00  0.00    +0.002 A 
ENDROOT
BRANCH  10   6
ATOM      6  O   UNL     1      -4.034  -0.725  24.050  0.00  0.00    -0.469 OA
BRANCH   6  18
ATOM      9  N   UNL     1      -4.101   1.546  23.585  0.00  0.00    -0.221 NA
ATOM     18  C   UNL     1      -4.439   0.531  24.412  0.00  0.00    +0.215 A 
ATOM     21  C   UNL     1      -5.159   0.693  25.584  0.00  0.00    +0.068 A 
ATOM     24  C   UNL     1      -5.559   1.979  25.930  0.00  0.00    +0.019 A 
ATOM     25  C   UNL     1      -5.230   3.049  25.105  0.00  0.00    +0.073 A 
ATOM     26  C   UNL     1      -4.506   2.782  23.954  0.00  0.00    +0.127 A 
BRANCH  25  27
ATOM      2  F   UNL     1      -4.957   4.942  26.517  0.00  0.00    -0.166 F 
ATOM      3  F   UNL     1      -5.447   5.335  24.435  0.00  0.00    -0.166 F 
ATOM      4  F   UNL     1      -6.963   4.555  25.774  0.00  0.00    -0.166 F 
ATOM     27  C   UNL     1      -5.641   4.437  25.447  0.00  0.00    +0.419 C 
ENDBRANCH  25  27
ENDBRANCH   6  18
ENDBRANCH  10   6
TORSDOF 3
ENDMDL
