MODEL 1
REMARK VINA RESULT:      14.4      0.000      0.000
REMARK  Name = 40587821
REMARK  5 active torsions:
REMARK  status: ('A' for Active; 'I' for Inactive)
REMARK    1  A    between atoms: O_4  and  C_28
REMARK    2  A    between atoms: O_4  and  C_34
REMARK    3  A    between atoms: N_7  and  C_22
REMARK    4  A    between atoms: N_8  and  C_20
REMARK    5  A    between atoms: N_9  and  C_29
REMARK                            x       y       z     vdW  Elec       q    Type
REMARK                         _______ _______ _______ _____ _____    ______ ____
ROOT
ATOM      1  O   UNL     1       0.211   2.644  26.089  0.00  0.00    -0.266 OA
ATOM      2  O   UNL     1      -5.076   1.853  23.557  0.00  0.00    -0.252 OA
ATOM      5  N   UNL     1      -4.787   2.991  25.552  0.00  0.00    -0.284 N 
ATOM      6  N   UNL     1      -1.718   3.917  25.744  0.00  0.00    -0.310 N 
ATOM      7  N   UNL     1      -4.793   0.632  25.509  0.00  0.00    -0.269 N 
ATOM     10  C   UNL     1      -3.597   4.081  27.473  0.00  0.00    +0.027 C 
ATOM     11  C   UNL     1      -3.802   5.271  25.335  0.00  0.00    +0.054 C 
ATOM     12  C   UNL     1      -3.869   5.443  26.850  0.00  0.00    +0.018 C 
ATOM     13  C   UNL     1      -4.638   3.042  27.015  0.00  0.00    +0.114 C 
ATOM     14  C   UNL     1      -2.167   3.654  27.118  0.00  0.00    +0.130 C 
ATOM     15  C   UNL     1      -4.904   4.295  24.888  0.00  0.00    +0.119 C 
ATOM     16  C   UNL     1      -2.445   4.756  24.895  0.00  0.00    +0.027 A 
ATOM     17  C   UNL     1      -1.958   5.078  23.685  0.00  0.00    +0.024 A 
ATOM     18  C   UNL     1      -0.473   3.372  25.369  0.00  0.00    +0.273 A 
ATOM     19  C   UNL     1      -4.891   1.814  24.775  0.00  0.00    +0.306 C 
ATOM     20  C   UNL     1       0.022   3.735  24.004  0.00  0.00    +0.100 A 
ATOM     21  C   UNL     1      -0.700   4.555  23.232  0.00  0.00    +0.030 A 
ATOM     36  H   UNL     1      -5.099   0.639  26.475  0.00  0.00    +0.156 HD
ENDROOT
BRANCH  20   8
ATOM      3  O   UNL     1       1.003   1.130  24.587  0.00  0.00    -0.252 OA
ATOM      8  N   UNL     1       1.216   3.215  23.596  0.00  0.00    -0.265 N 
ATOM      9  N   UNL     1       2.914   1.692  23.347  0.00  0.00    -0.269 N 
ATOM     23  C   UNL     1       1.655   1.922  23.911  0.00  0.00    +0.308 C 
ATOM     37  H   UNL     1       1.914   3.873  23.262  0.00  0.00    +0.157 HD
ATOM     38  H   UNL     1       3.318   2.454  22.808  0.00  0.00    +0.156 HD
BRANCH   9  29
ATOM     29  C   UNL     1       3.701   0.519  23.427  0.00  0.00    +0.035 A 
ATOM     30  C   UNL     1       5.091   0.616  23.493  0.00  0.00    +0.023 A 
ATOM     31  C   UNL     1       3.088  -0.734  23.441  0.00  0.00    +0.023 A 
ATOM     32  C   UNL     1       5.868  -0.539  23.573  0.00  0.00    +0.002 A 
ATOM     33  C   UNL     1       3.865  -1.889  23.522  0.00  0.00    +0.002 A 
ATOM     35  C   UNL     1       5.255  -1.792  23.587  0.00  0.00    +0.000 A 
ENDBRANCH   9  29
ENDBRANCH  20   8
BRANCH   7  22
ATOM     22  C   UNL     1      -4.283  -0.613  25.063  0.00  0.00    +0.035 A 
ATOM     24  C   UNL     1      -4.786  -1.197  23.900  0.00  0.00    +0.027 A 
ATOM     25  C   UNL     1      -3.277  -1.255  25.787  0.00  0.00    +0.027 A 
ATOM     26  C   UNL     1      -4.284  -2.422  23.461  0.00  0.00    +0.047 A 
ATOM     27  C   UNL     1      -2.776  -2.480  25.348  0.00  0.00    +0.047 A 
ATOM     28  C   UNL     1      -3.280  -3.064  24.185  0.00  0.00    +0.120 A 
BRANCH  28   4
ATOM      4  O   UNL     1      -2.790  -4.259  23.756  0.00  0.00    -0.495 OA
ATOM     34  C   UNL     1      -1.588  -4.230  22.988  0.00  0.00    +0.277 C 
ENDBRANCH  28   4
ENDBRANCH   7  22
TORSDOF 4
ENDMDL
