MODEL 1
REMARK VINA RESULT:       1.7      0.000      0.000
REMARK  Name = 26761906
REMARK  4 active torsions:
REMARK  status: ('A' for Active; 'I' for Inactive)
REMARK    1  A    between atoms: N_4  and  C_10
REMARK    2  A    between atoms: C_9  and  C_10
REMARK    3  A    between atoms: C_15  and  C_21
REMARK    4  A    between atoms: C_23  and  C_24
REMARK                            x       y       z     vdW  Elec       q    Type
REMARK                         _______ _______ _______ _____ _____    ______ ____
ROOT
ATOM      4  N   UNL     1      -3.349   0.703  23.876  0.00  0.00    -0.285 NA
ATOM      5  N   UNL     1      -4.499  -2.827  23.593  0.00  0.00    -0.347 N 
ATOM      6  N   UNL     1      -3.420  -3.107  25.531  0.00  0.00    -0.240 NA
ATOM     15  C   UNL     1      -2.142   0.412  24.708  0.00  0.00    +0.152 C 
ATOM     17  C   UNL     1      -3.828  -0.418  23.041  0.00  0.00    +0.140 C 
ATOM     18  C   UNL     1      -2.388  -0.793  25.685  0.00  0.00    +0.085 C 
ATOM     19  C   UNL     1      -3.862  -1.652  23.854  0.00  0.00    +0.053 A 
ATOM     20  C   UNL     1      -3.205  -1.850  25.044  0.00  0.00    +0.065 A 
ATOM     22  C   UNL     1      -4.203  -3.673  24.634  0.00  0.00    +0.197 A 
ATOM     31  H   UNL     1      -5.075  -3.041  22.789  0.00  0.00    +0.167 HD
ENDROOT
BRANCH  15  21
ATOM      1  O   UNL     1      -0.926   0.105  22.594  0.00  0.00    -0.336 OA
ATOM      7  N   UNL     1       0.405   0.367  24.376  0.00  0.00    -0.190 NA
ATOM      8  N   UNL     1       0.387   0.037  22.112  0.00  0.00    -0.056 NA
ATOM     21  C   UNL     1      -0.826   0.302  23.935  0.00  0.00    +0.245 A 
ATOM     23  C   UNL     1       1.114   0.200  23.223  0.00  0.00    +0.202 A 
BRANCH  23  24
ATOM      2  O   UNL     1       5.468  -1.830  24.110  0.00  0.00    -0.453 OA
ATOM      3  O   UNL     1       6.651   0.081  23.238  0.00  0.00    -0.453 OA
ATOM     24  C   UNL     1       2.548   0.202  23.212  0.00  0.00    +0.026 A 
ATOM     25  C   UNL     1       3.247  -0.902  23.706  0.00  0.00    +0.061 A 
ATOM     26  C   UNL     1       3.238   1.317  22.705  0.00  0.00    +0.015 A 
ATOM     27  C   UNL     1       4.626  -0.854  23.674  0.00  0.00    +0.167 A 
ATOM     28  C   UNL     1       5.301   0.237  23.178  0.00  0.00    +0.166 A 
ATOM     29  C   UNL     1       4.635   1.340  22.685  0.00  0.00    +0.050 A 
ATOM     30  C   UNL     1       6.750  -1.231  23.830  0.00  0.00    +0.466 C 
ENDBRANCH  23  24
ENDBRANCH  15  21
BRANCH   4  10
ATOM     10  C   UNL     1      -3.258   1.940  23.108  0.00  0.00    +0.089 C 
BRANCH  10   9
ATOM      9  C   UNL     1      -3.400   3.164  24.012  0.00  0.00    +0.003 C 
ATOM     11  C   UNL     1      -4.467   2.920  25.088  0.00  0.00    +0.005 C 
ATOM     12  C   UNL     1      -2.052   3.527  24.650  0.00  0.00    +0.005 C 
ATOM     13  C   UNL     1      -4.590   4.110  26.037  0.00  0.00    +0.000 C 
ATOM     14  C   UNL     1      -2.181   4.716  25.600  0.00  0.00    +0.000 C 
ATOM     16  C   UNL     1      -3.248   4.473  26.663  0.00  0.00    +0.000 C 
ENDBRANCH  10   9
ENDBRANCH   4  10
TORSDOF 4
ENDMDL
MODEL 2
REMARK VINA RESULT:       2.8      1.778      4.300
REMARK  Name = 26761906
REMARK  4 active torsions:
REMARK  status: ('A' for Active; 'I' for Inactive)
REMARK    1  A    between atoms: N_4  and  C_10
REMARK    2  A    between atoms: C_9  and  C_10
REMARK    3  A    between atoms: C_15  and  C_21
REMARK    4  A    between atoms: C_23  and  C_24
REMARK                            x       y       z     vdW  Elec       q    Type
REMARK                         _______ _______ _______ _____ _____    ______ ____
ROOT
ATOM      4  N   UNL     1      -3.962   0.943  23.390  0.00  0.00    -0.285 NA
ATOM      5  N   UNL     1      -5.354   2.971  26.186  0.00  0.00    -0.347 N 
ATOM      6  N   UNL     1      -4.765   4.720  24.925  0.00  0.00    -0.240 NA
ATOM     15  C   UNL     1      -3.004   1.982  22.901  0.00  0.00    +0.152 C 
ATOM     17  C   UNL     1      -4.349   1.058  24.812  0.00  0.00    +0.140 C 
ATOM     18  C   UNL     1      -3.575   3.432  23.088  0.00  0.00    +0.085 C 
ATOM     19  C   UNL     1      -4.681   2.466  25.115  0.00  0.00    +0.053 A 
ATOM     20  C   UNL     1      -4.327   3.557  24.360  0.00  0.00    +0.065 A 
ATOM     22  C   UNL     1      -5.379   4.335  26.026  0.00  0.00    +0.197 A 
ATOM     31  H   UNL     1      -5.754   2.448  26.955  0.00  0.00    +0.167 HD
ENDROOT
BRANCH  15  21
ATOM      1  O   UNL     1      -1.309   2.298  24.652  0.00  0.00    -0.336 OA
ATOM      7  N   UNL     1      -0.526   1.314  22.799  0.00  0.00    -0.190 NA
ATOM      8  N   UNL     1       0.050   2.054  24.885  0.00  0.00    -0.056 NA
ATOM     21  C   UNL     1      -1.566   1.831  23.401  0.00  0.00    +0.245 A 
ATOM     23  C   UNL     1       0.442   1.472  23.746  0.00  0.00    +0.202 A 
BRANCH  23  24
ATOM      2  O   UNL     1       4.012  -1.860  23.893  0.00  0.00    -0.453 OA
ATOM      3  O   UNL     1       5.617  -0.331  22.947  0.00  0.00    -0.453 OA
ATOM     24  C   UNL     1       1.790   1.038  23.526  0.00  0.00    +0.026 A 
ATOM     25  C   UNL     1       2.163  -0.267  23.861  0.00  0.00    +0.061 A 
ATOM     26  C   UNL     1       2.728   1.930  22.976  0.00  0.00    +0.015 A 
ATOM     27  C   UNL     1       3.472  -0.639  23.631  0.00  0.00    +0.167 A 
ATOM     28  C   UNL     1       4.388   0.235  23.091  0.00  0.00    +0.166 A 
ATOM     29  C   UNL     1       4.047   1.528  22.752  0.00  0.00    +0.050 A 
ATOM     30  C   UNL     1       5.372  -1.657  23.457  0.00  0.00    +0.466 C 
ENDBRANCH  23  24
ENDBRANCH  15  21
BRANCH   4  10
ATOM     10  C   UNL     1      -3.585  -0.423  23.047  0.00  0.00    +0.089 C 
BRANCH  10   9
ATOM      9  C   UNL     1      -3.021  -1.162  24.259  0.00  0.00    +0.003 C 
ATOM     11  C   UNL     1      -3.648  -2.557  24.383  0.00  0.00    +0.005 C 
ATOM     12  C   UNL     1      -1.491  -1.254  24.175  0.00  0.00    +0.005 C 
ATOM     13  C   UNL     1      -3.061  -3.336  25.558  0.00  0.00    +0.000 C 
ATOM     14  C   UNL     1      -0.909  -2.036  25.351  0.00  0.00    +0.000 C 
ATOM     16  C   UNL     1      -1.541  -3.419  25.475  0.00  0.00    +0.000 C 
ENDBRANCH  10   9
ENDBRANCH   4  10
TORSDOF 4
ENDMDL
MODEL 3
REMARK VINA RESULT:       3.0      1.620      4.453
REMARK  Name = 26761906
REMARK  4 active torsions:
REMARK  status: ('A' for Active; 'I' for Inactive)
REMARK    1  A    between atoms: N_4  and  C_10
REMARK    2  A    between atoms: C_9  and  C_10
REMARK    3  A    between atoms: C_15  and  C_21
REMARK    4  A    between atoms: C_23  and  C_24
REMARK                            x       y       z     vdW  Elec       q    Type
REMARK                         _______ _______ _______ _____ _____    ______ ____
ROOT
ATOM      4  N   UNL     1      -2.327   1.168  25.561  0.00  0.00    -0.285 NA
ATOM      5  N   UNL     1      -1.586   4.793  25.976  0.00  0.00    -0.347 N 
ATOM      6  N   UNL     1      -2.436   4.982  23.916  0.00  0.00    -0.240 NA
ATOM     15  C   UNL     1      -2.240   1.157  24.068  0.00  0.00    +0.152 C 
ATOM     17  C   UNL     1      -1.569   2.245  26.231  0.00  0.00    +0.140 C 
ATOM     18  C   UNL     1      -2.748   2.506  23.448  0.00  0.00    +0.085 C 
ATOM     19  C   UNL     1      -1.827   3.527  25.539  0.00  0.00    +0.053 A 
ATOM     20  C   UNL     1      -2.343   3.668  24.274  0.00  0.00    +0.065 A 
ATOM     22  C   UNL     1      -1.970   5.637  24.962  0.00  0.00    +0.197 A 
ATOM     31  H   UNL     1      -1.196   5.066  26.869  0.00  0.00    +0.167 HD
ENDROOT
BRANCH  15  21
ATOM      1  O   UNL     1      -0.947  -0.057  22.366  0.00  0.00    -0.336 OA
ATOM      7  N   UNL     1       0.315   0.925  23.935  0.00  0.00    -0.190 NA
ATOM      8  N   UNL     1       0.382  -0.351  22.037  0.00  0.00    -0.056 NA
ATOM     21  C   UNL     1      -0.897   0.698  23.495  0.00  0.00    +0.245 A 
ATOM     23  C   UNL     1       1.066   0.262  23.009  0.00  0.00    +0.202 A 
BRANCH  23  24
ATOM      2  O   UNL     1       5.316  -1.869  24.132  0.00  0.00    -0.453 OA
ATOM      3  O   UNL     1       6.589   0.020  23.343  0.00  0.00    -0.453 OA
ATOM     24  C   UNL     1       2.498   0.232  23.081  0.00  0.00    +0.026 A 
ATOM     25  C   UNL     1       3.143  -0.890  23.607  0.00  0.00    +0.061 A 
ATOM     26  C   UNL     1       3.240   1.334  22.622  0.00  0.00    +0.015 A 
ATOM     27  C   UNL     1       4.522  -0.872  23.655  0.00  0.00    +0.167 A 
ATOM     28  C   UNL     1       5.248   0.207  23.206  0.00  0.00    +0.166 A 
ATOM     29  C   UNL     1       4.636   1.327  22.682  0.00  0.00    +0.050 A 
ATOM     30  C   UNL     1       6.625  -1.296  23.931  0.00  0.00    +0.466 C 
ENDBRANCH  23  24
ENDBRANCH  15  21
BRANCH   4  10
ATOM     10  C   UNL     1      -2.075  -0.128  26.181  0.00  0.00    +0.089 C 
BRANCH  10   9
ATOM      9  C   UNL     1      -3.036  -1.190  25.652  0.00  0.00    +0.003 C 
ATOM     11  C   UNL     1      -4.068  -0.563  24.704  0.00  0.00    +0.005 C 
ATOM     12  C   UNL     1      -2.267  -2.320  24.954  0.00  0.00    +0.005 C 
ATOM     13  C   UNL     1      -5.008  -1.615  24.121  0.00  0.00    +0.000 C 
ATOM     14  C   UNL     1      -3.211  -3.368  24.370  0.00  0.00    +0.000 C 
ATOM     16  C   UNL     1      -4.240  -2.739  23.435  0.00  0.00    +0.000 C 
ENDBRANCH  10   9
ENDBRANCH   4  10
TORSDOF 4
ENDMDL
MODEL 4
REMARK VINA RESULT:       4.0      1.377      1.883
REMARK  Name = 26761906
REMARK  4 active torsions:
REMARK  status: ('A' for Active; 'I' for Inactive)
REMARK    1  A    between atoms: N_4  and  C_10
REMARK    2  A    between atoms: C_9  and  C_10
REMARK    3  A    between atoms: C_15  and  C_21
REMARK    4  A    between atoms: C_23  and  C_24
REMARK                            x       y       z     vdW  Elec       q    Type
REMARK                         _______ _______ _______ _____ _____    ______ ____
ROOT
ATOM      4  N   UNL     1      -4.017   0.747  24.378  0.00  0.00    -0.285 NA
ATOM      5  N   UNL     1      -4.132  -2.793  23.230  0.00  0.00    -0.347 N 
ATOM      6  N   UNL     1      -3.549  -3.269  25.336  0.00  0.00    -0.240 NA
ATOM     15  C   UNL     1      -3.029   0.527  25.478  0.00  0.00    +0.152 C 
ATOM     17  C   UNL     1      -3.970  -0.238  23.277  0.00  0.00    +0.140 C 
ATOM     18  C   UNL     1      -3.205  -0.885  26.142  0.00  0.00    +0.085 C 
ATOM     19  C   UNL     1      -3.899  -1.601  23.846  0.00  0.00    +0.053 A 
ATOM     20  C   UNL     1      -3.539  -1.919  25.133  0.00  0.00    +0.065 A 
ATOM     22  C   UNL     1      -3.908  -3.769  24.171  0.00  0.00    +0.197 A 
ATOM     31  H   UNL     1      -4.411  -2.938  22.269  0.00  0.00    +0.167 HD
ENDROOT
BRANCH  15  21
ATOM      1  O   UNL     1      -1.031   1.935  25.738  0.00  0.00    -0.336 OA
ATOM      7  N   UNL     1      -0.761   0.231  24.310  0.00  0.00    -0.190 NA
ATOM      8  N   UNL     1       0.284   2.028  25.265  0.00  0.00    -0.056 NA
ATOM     21  C   UNL     1      -1.576   0.850  25.126  0.00  0.00    +0.245 A 
ATOM     23  C   UNL     1       0.367   0.988  24.428  0.00  0.00    +0.202 A 
BRANCH  23  24
ATOM      2  O   UNL     1       5.222   0.719  23.952  0.00  0.00    -0.453 OA
ATOM      3  O   UNL     1       5.057  -0.160  21.714  0.00  0.00    -0.453 OA
ATOM     24  C   UNL     1       1.562   0.681  23.697  0.00  0.00    +0.026 A 
ATOM     25  C   UNL     1       2.810   0.892  24.287  0.00  0.00    +0.061 A 
ATOM     26  C   UNL     1       1.466   0.169  22.391  0.00  0.00    +0.015 A 
ATOM     27  C   UNL     1       3.931   0.580  23.545  0.00  0.00    +0.167 A 
ATOM     28  C   UNL     1       3.836   0.079  22.266  0.00  0.00    +0.166 A 
ATOM     29  C   UNL     1       2.616  -0.138  21.660  0.00  0.00    +0.050 A 
ATOM     30  C   UNL     1       5.929   0.248  22.787  0.00  0.00    +0.466 C 
ENDBRANCH  23  24
ENDBRANCH  15  21
BRANCH   4  10
ATOM     10  C   UNL     1      -4.047   2.114  23.871  0.00  0.00    +0.089 C 
BRANCH  10   9
ATOM      9  C   UNL     1      -3.203   3.045  24.739  0.00  0.00    +0.003 C 
ATOM     11  C   UNL     1      -2.402   4.022  23.866  0.00  0.00    +0.005 C 
ATOM     12  C   UNL     1      -4.086   3.803  25.740  0.00  0.00    +0.005 C 
ATOM     13  C   UNL     1      -1.591   4.998  24.714  0.00  0.00    +0.000 C 
ATOM     14  C   UNL     1      -3.271   4.780  26.584  0.00  0.00    +0.000 C 
ATOM     16  C   UNL     1      -2.470   5.743  25.712  0.00  0.00    +0.000 C 
ENDBRANCH  10   9
ENDBRANCH   4  10
TORSDOF 4
ENDMDL
MODEL 5
REMARK VINA RESULT:       5.5      3.778      5.961
REMARK  Name = 26761906
REMARK  4 active torsions:
REMARK  status: ('A' for Active; 'I' for Inactive)
REMARK    1  A    between atoms: N_4  and  C_10
REMARK    2  A    between atoms: C_9  and  C_10
REMARK    3  A    between atoms: C_15  and  C_21
REMARK    4  A    between atoms: C_23  and  C_24
REMARK                            x       y       z     vdW  Elec       q    Type
REMARK                         _______ _______ _______ _____ _____    ______ ____
ROOT
ATOM      4  N   UNL     1      -3.859   1.588  23.605  0.00  0.00    -0.285 NA
ATOM      5  N   UNL     1      -6.159   2.608  26.349  0.00  0.00    -0.347 N 
ATOM      6  N   UNL     1      -5.696   4.688  25.673  0.00  0.00    -0.240 NA
ATOM     15  C   UNL     1      -3.052   2.847  23.597  0.00  0.00    +0.152 C 
ATOM     17  C   UNL     1      -4.536   1.278  24.881  0.00  0.00    +0.140 C 
ATOM     18  C   UNL     1      -3.929   4.101  23.947  0.00  0.00    +0.085 C 
ATOM     19  C   UNL     1      -5.199   2.498  25.391  0.00  0.00    +0.053 A 
ATOM     20  C   UNL     1      -4.929   3.785  24.995  0.00  0.00    +0.065 A 
ATOM     22  C   UNL     1      -6.427   3.948  26.484  0.00  0.00    +0.197 A 
ATOM     31  H   UNL     1      -6.592   1.854  26.867  0.00  0.00    +0.167 HD
ENDROOT
BRANCH  15  21
ATOM      1  O   UNL     1      -0.595   2.789  23.657  0.00  0.00    -0.336 OA
ATOM      7  N   UNL     1      -1.554   2.736  25.680  0.00  0.00    -0.190 NA
ATOM      8  N   UNL     1       0.454   2.731  24.583  0.00  0.00    -0.056 NA
ATOM     21  C   UNL     1      -1.742   2.788  24.386  0.00  0.00    +0.245 A 
ATOM     23  C   UNL     1      -0.192   2.703  25.753  0.00  0.00    +0.202 A 
BRANCH  23  24
ATOM      2  O   UNL     1      -0.072   2.356  30.625  0.00  0.00    -0.453 OA
ATOM      3  O   UNL     1       2.335   2.458  30.676  0.00  0.00    -0.453 OA
ATOM     24  C   UNL     1       0.494   2.642  27.011  0.00  0.00    +0.026 A 
ATOM     25  C   UNL     1      -0.238   2.524  28.196  0.00  0.00    +0.061 A 
ATOM     26  C   UNL     1       1.898   2.703  27.041  0.00  0.00    +0.015 A 
ATOM     27  C   UNL     1       0.467   2.469  29.381  0.00  0.00    +0.167 A 
ATOM     28  C   UNL     1       1.842   2.528  29.410  0.00  0.00    +0.166 A 
ATOM     29  C   UNL     1       2.588   2.645  28.255  0.00  0.00    +0.050 A 
ATOM     30  C   UNL     1       1.117   2.349  31.441  0.00  0.00    +0.466 C 
ENDBRANCH  23  24
ENDBRANCH  15  21
BRANCH   4  10
ATOM     10  C   UNL     1      -3.153   0.425  23.078  0.00  0.00    +0.089 C 
BRANCH  10   9
ATOM      9  C   UNL     1      -2.808  -0.563  24.191  0.00  0.00    +0.003 C 
ATOM     11  C   UNL     1      -3.540  -1.895  23.978  0.00  0.00    +0.005 C 
ATOM     12  C   UNL     1      -1.291  -0.779  24.275  0.00  0.00    +0.005 C 
ATOM     13  C   UNL     1      -3.170  -2.918  25.050  0.00  0.00    +0.000 C 
ATOM     14  C   UNL     1      -0.926  -1.803  25.346  0.00  0.00    +0.000 C 
ATOM     16  C   UNL     1      -1.661  -3.123  25.135  0.00  0.00    +0.000 C 
ENDBRANCH  10   9
ENDBRANCH   4  10
TORSDOF 4
ENDMDL
