MODEL 1
REMARK VINA RESULT:      -4.6      0.000      0.000
REMARK  Name = 51137280
REMARK  4 active torsions:
REMARK  status: ('A' for Active; 'I' for Inactive)
REMARK    1  A    between atoms: N_4  and  C_11
REMARK    2  A    between atoms: C_7  and  C_12
REMARK    3  A    between atoms: C_11  and  C_13
REMARK    4  A    between atoms: C_14  and  C_17
REMARK                            x       y       z     vdW  Elec       q    Type
REMARK                         _______ _______ _______ _____ _____    ______ ____
ROOT
ATOM      4  N   UNL     1      -3.107   1.694  24.610  0.00  0.00    -0.297 NA
ATOM      7  C   UNL     1      -0.868   1.774  23.916  0.00  0.00    +0.092 C 
ATOM      8  C   UNL     1      -1.754   2.491  22.882  0.00  0.00    +0.029 C 
ATOM      9  C   UNL     1      -1.850   0.960  24.770  0.00  0.00    +0.097 C 
ATOM     10  C   UNL     1      -3.172   2.026  23.187  0.00  0.00    +0.085 C 
ENDROOT
BRANCH   7  12
ATOM      2  O   UNL     1       1.479   1.080  23.869  0.00  0.00    -0.418 OA
ATOM      5  N   UNL     1       0.195   0.056  22.350  0.00  0.00    -0.112 NA
ATOM      6  N   UNL     1       1.484  -0.424  22.213  0.00  0.00    -0.104 NA
ATOM     12  C   UNL     1       0.239   0.932  23.327  0.00  0.00    +0.222 A 
ATOM     14  C   UNL     1       2.199   0.201  23.120  0.00  0.00    +0.284 A 
BRANCH  14  17
ATOM      3  O   UNL     1       4.077  -1.182  23.798  0.00  0.00    -0.458 OA
ATOM     17  C   UNL     1       3.587  -0.016  23.301  0.00  0.00    +0.191 A 
ATOM     19  C   UNL     1       4.610   0.860  23.025  0.00  0.00    +0.055 A 
ATOM     20  C   UNL     1       5.807   0.189  23.373  0.00  0.00    +0.042 A 
ATOM     21  C   UNL     1       5.429  -1.049  23.839  0.00  0.00    +0.196 A 
ENDBRANCH  14  17
ENDBRANCH   7  12
BRANCH   4  11
ATOM     11  C   UNL     1      -4.260   0.924  25.053  0.00  0.00    +0.126 C 
BRANCH  11  13
ATOM      1  S   UNL     1      -3.273  -1.466  26.078  0.00  0.00    -0.100 S 
ATOM     13  C   UNL     1      -4.056  -0.554  24.858  0.00  0.00    +0.004 A 
ATOM     15  C   UNL     1      -4.423  -1.336  23.785  0.00  0.00    +0.012 A 
ATOM     16  C   UNL     1      -4.057  -2.701  23.966  0.00  0.00    +0.008 A 
ATOM     18  C   UNL     1      -3.424  -2.911  25.171  0.00  0.00    +0.045 A 
ENDBRANCH  11  13
ENDBRANCH   4  11
TORSDOF 4
ENDMDL
MODEL 2
REMARK VINA RESULT:      -3.8     14.877     17.173
REMARK  Name = 51137280
REMARK  4 active torsions:
REMARK  status: ('A' for Active; 'I' for Inactive)
REMARK    1  A    between atoms: N_4  and  C_11
REMARK    2  A    between atoms: C_7  and  C_12
REMARK    3  A    between atoms: C_11  and  C_13
REMARK    4  A    between atoms: C_14  and  C_17
REMARK                            x       y       z     vdW  Elec       q    Type
REMARK                         _______ _______ _______ _____ _____    ______ ____
ROOT
ATOM      4  N   UNL     1      -4.928 -10.049   9.910  0.00  0.00    -0.297 NA
ATOM      7  C   UNL     1      -7.133  -9.621  10.587  0.00  0.00    +0.092 C 
ATOM      8  C   UNL     1      -6.379  -8.291  10.412  0.00  0.00    +0.029 C 
ATOM      9  C   UNL     1      -6.030 -10.688  10.633  0.00  0.00    +0.097 C 
ATOM     10  C   UNL     1      -4.905  -8.671  10.398  0.00  0.00    +0.085 C 
ENDROOT
BRANCH   7  12
ATOM      2  O   UNL     1      -7.487  -9.512  13.007  0.00  0.00    -0.418 OA
ATOM      5  N   UNL     1      -9.355  -9.861  11.826  0.00  0.00    -0.112 NA
ATOM      6  N   UNL     1      -9.697  -9.823  13.165  0.00  0.00    -0.104 NA
ATOM     12  C   UNL     1      -8.056  -9.676  11.781  0.00  0.00    +0.222 A 
ATOM     14  C   UNL     1      -8.576  -9.617  13.817  0.00  0.00    +0.284 A 
BRANCH  14  17
ATOM      3  O   UNL     1      -9.587  -9.204  15.986  0.00  0.00    -0.458 OA
ATOM     17  C   UNL     1      -8.504  -9.515  15.227  0.00  0.00    +0.191 A 
ATOM     19  C   UNL     1      -7.396  -9.700  16.020  0.00  0.00    +0.055 A 
ATOM     20  C   UNL     1      -7.825  -9.491  17.352  0.00  0.00    +0.042 A 
ATOM     21  C   UNL     1      -9.166  -9.191  17.278  0.00  0.00    +0.196 A 
ENDBRANCH  14  17
ENDBRANCH   7  12
BRANCH   4  11
ATOM     11  C   UNL     1      -3.659 -10.731  10.115  0.00  0.00    +0.126 C 
BRANCH  11  13
ATOM      1  S   UNL     1      -1.548  -9.962  11.755  0.00  0.00    -0.100 S 
ATOM     13  C   UNL     1      -3.141 -10.543  11.516  0.00  0.00    +0.004 A 
ATOM     15  C   UNL     1      -3.789 -10.779  12.709  0.00  0.00    +0.012 A 
ATOM     16  C   UNL     1      -2.967 -10.481  13.833  0.00  0.00    +0.008 A 
ATOM     18  C   UNL     1      -1.722 -10.027  13.458  0.00  0.00    +0.045 A 
ENDBRANCH  11  13
ENDBRANCH   4  11
TORSDOF 4
ENDMDL
MODEL 3
REMARK VINA RESULT:      -3.5      1.941      3.157
REMARK  Name = 51137280
REMARK  4 active torsions:
REMARK  status: ('A' for Active; 'I' for Inactive)
REMARK    1  A    between atoms: N_4  and  C_11
REMARK    2  A    between atoms: C_7  and  C_12
REMARK    3  A    between atoms: C_11  and  C_13
REMARK    4  A    between atoms: C_14  and  C_17
REMARK                            x       y       z     vdW  Elec       q    Type
REMARK                         _______ _______ _______ _____ _____    ______ ____
ROOT
ATOM      4  N   UNL     1      -4.003  -0.555  24.435  0.00  0.00    -0.297 NA
ATOM      7  C   UNL     1      -1.721  -0.747  23.927  0.00  0.00    +0.092 C 
ATOM      8  C   UNL     1      -2.000  -1.388  25.298  0.00  0.00    +0.029 C 
ATOM      9  C   UNL     1      -2.966   0.102  23.636  0.00  0.00    +0.097 C 
ATOM     10  C   UNL     1      -3.361  -0.849  25.716  0.00  0.00    +0.085 C 
ENDROOT
BRANCH   7  12
ATOM      2  O   UNL     1       0.706  -0.660  23.616  0.00  0.00    -0.418 OA
ATOM      5  N   UNL     1      -0.241   1.337  23.964  0.00  0.00    -0.112 NA
ATOM      6  N   UNL     1       1.119   1.530  23.806  0.00  0.00    -0.104 NA
ATOM     12  C   UNL     1      -0.436   0.044  23.845  0.00  0.00    +0.222 A 
ATOM     14  C   UNL     1       1.631   0.338  23.605  0.00  0.00    +0.284 A 
BRANCH  14  17
ATOM      3  O   UNL     1       3.610  -1.064  23.735  0.00  0.00    -0.458 OA
ATOM     17  C   UNL     1       3.013   0.110  23.399  0.00  0.00    +0.191 A 
ATOM     19  C   UNL     1       3.930   0.981  22.858  0.00  0.00    +0.055 A 
ATOM     20  C   UNL     1       5.170   0.299  22.861  0.00  0.00    +0.042 A 
ATOM     21  C   UNL     1       4.923  -0.940  23.405  0.00  0.00    +0.196 A 
ENDBRANCH  14  17
ENDBRANCH   7  12
BRANCH   4  11
ATOM     11  C   UNL     1      -5.193   0.270  24.587  0.00  0.00    +0.126 C 
BRANCH  11  13
ATOM      1  S   UNL     1      -5.640   2.670  25.920  0.00  0.00    -0.100 S 
ATOM     13  C   UNL     1      -4.850   1.729  24.727  0.00  0.00    +0.004 A 
ATOM     15  C   UNL     1      -3.945   2.471  24.001  0.00  0.00    +0.012 A 
ATOM     16  C   UNL     1      -3.899   3.829  24.428  0.00  0.00    +0.008 A 
ATOM     18  C   UNL     1      -4.771   4.074  25.465  0.00  0.00    +0.045 A 
ENDBRANCH  11  13
ENDBRANCH   4  11
TORSDOF 4
ENDMDL
MODEL 4
REMARK VINA RESULT:      -3.4      2.458      4.052
REMARK  Name = 51137280
REMARK  4 active torsions:
REMARK  status: ('A' for Active; 'I' for Inactive)
REMARK    1  A    between atoms: N_4  and  C_11
REMARK    2  A    between atoms: C_7  and  C_12
REMARK    3  A    between atoms: C_11  and  C_13
REMARK    4  A    between atoms: C_14  and  C_17
REMARK                            x       y       z     vdW  Elec       q    Type
REMARK                         _______ _______ _______ _____ _____    ______ ____
ROOT
ATOM      4  N   UNL     1      -4.897   1.182  24.529  0.00  0.00    -0.297 NA
ATOM      7  C   UNL     1      -3.267  -0.450  24.106  0.00  0.00    +0.092 C 
ATOM      8  C   UNL     1      -4.061  -0.829  25.369  0.00  0.00    +0.029 C 
ATOM      9  C   UNL     1      -3.599   1.030  23.869  0.00  0.00    +0.097 C 
ATOM     10  C   UNL     1      -4.768   0.452  25.789  0.00  0.00    +0.085 C 
ENDROOT
BRANCH   7  12
ATOM      2  O   UNL     1      -0.974   0.077  23.430  0.00  0.00    -0.418 OA
ATOM      5  N   UNL     1      -1.130  -1.615  24.885  0.00  0.00    -0.112 NA
ATOM      6  N   UNL     1       0.208  -1.426  24.592  0.00  0.00    -0.104 NA
ATOM     12  C   UNL     1      -1.782  -0.716  24.185  0.00  0.00    +0.222 A 
ATOM     14  C   UNL     1       0.251  -0.428  23.739  0.00  0.00    +0.284 A 
BRANCH  14  17
ATOM      3  O   UNL     1       2.071   1.179  23.686  0.00  0.00    -0.458 OA
ATOM     17  C   UNL     1       1.457   0.074  23.190  0.00  0.00    +0.191 A 
ATOM     19  C   UNL     1       2.165  -0.438  22.129  0.00  0.00    +0.055 A 
ATOM     20  C   UNL     1       3.289   0.406  21.962  0.00  0.00    +0.042 A 
ATOM     21  C   UNL     1       3.185   1.375  22.933  0.00  0.00    +0.196 A 
ENDBRANCH  14  17
ENDBRANCH   7  12
BRANCH   4  11
ATOM     11  C   UNL     1      -5.257   2.578  24.731  0.00  0.00    +0.126 C 
BRANCH  11  13
ATOM      1  S   UNL     1      -3.087   4.107  23.903  0.00  0.00    -0.100 S 
ATOM     13  C   UNL     1      -4.068   3.413  25.123  0.00  0.00    +0.004 A 
ATOM     15  C   UNL     1      -3.618   3.725  26.387  0.00  0.00    +0.012 A 
ATOM     16  C   UNL     1      -2.453   4.543  26.354  0.00  0.00    +0.008 A 
ATOM     18  C   UNL     1      -2.056   4.827  25.067  0.00  0.00    +0.045 A 
ENDBRANCH  11  13
ENDBRANCH   4  11
TORSDOF 4
ENDMDL
MODEL 5
REMARK VINA RESULT:      -3.4      3.431      5.501
REMARK  Name = 51137280
REMARK  4 active torsions:
REMARK  status: ('A' for Active; 'I' for Inactive)
REMARK    1  A    between atoms: N_4  and  C_11
REMARK    2  A    between atoms: C_7  and  C_12
REMARK    3  A    between atoms: C_11  and  C_13
REMARK    4  A    between atoms: C_14  and  C_17
REMARK                            x       y       z     vdW  Elec       q    Type
REMARK                         _______ _______ _______ _____ _____    ______ ____
ROOT
ATOM      4  N   UNL     1      -0.998   4.254  25.354  0.00  0.00    -0.297 NA
ATOM      7  C   UNL     1       0.019   2.155  25.108  0.00  0.00    +0.092 C 
ATOM      8  C   UNL     1       0.447   3.074  23.950  0.00  0.00    +0.029 C 
ATOM      9  C   UNL     1      -1.201   2.853  25.726  0.00  0.00    +0.097 C 
ATOM     10  C   UNL     1      -0.562   4.215  23.958  0.00  0.00    +0.085 C 
ENDROOT
BRANCH   7  12
ATOM      2  O   UNL     1      -1.555   0.313  24.757  0.00  0.00    -0.418 OA
ATOM      5  N   UNL     1       0.576  -0.214  24.327  0.00  0.00    -0.112 NA
ATOM      6  N   UNL     1      -0.198  -1.334  24.090  0.00  0.00    -0.104 NA
ATOM     12  C   UNL     1      -0.258   0.724  24.714  0.00  0.00    +0.222 A 
ATOM     14  C   UNL     1      -1.434  -0.981  24.354  0.00  0.00    +0.284 A 
BRANCH  14  17
ATOM      3  O   UNL     1      -2.429  -3.193  24.471  0.00  0.00    -0.458 OA
ATOM     17  C   UNL     1      -2.538  -1.860  24.233  0.00  0.00    +0.191 A 
ATOM     19  C   UNL     1      -3.825  -1.536  23.876  0.00  0.00    +0.055 A 
ATOM     20  C   UNL     1      -4.556  -2.748  23.897  0.00  0.00    +0.042 A 
ATOM     21  C   UNL     1      -3.662  -3.727  24.264  0.00  0.00    +0.196 A 
ENDBRANCH  14  17
ENDBRANCH   7  12
BRANCH   4  11
ATOM     11  C   UNL     1      -2.198   5.058  25.536  0.00  0.00    +0.126 C 
BRANCH  11  13
ATOM      1  S   UNL     1      -3.868   3.481  23.967  0.00  0.00    -0.100 S 
ATOM     13  C   UNL     1      -3.449   4.224  25.452  0.00  0.00    +0.004 A 
ATOM     15  C   UNL     1      -4.365   3.950  26.443  0.00  0.00    +0.012 A 
ATOM     16  C   UNL     1      -5.425   3.120  25.979  0.00  0.00    +0.008 A 
ATOM     18  C   UNL     1      -5.279   2.790  24.650  0.00  0.00    +0.045 A 
ENDBRANCH  11  13
ENDBRANCH   4  11
TORSDOF 4
ENDMDL
MODEL 6
REMARK VINA RESULT:      -3.3      4.026      6.594
REMARK  Name = 51137280
REMARK  4 active torsions:
REMARK  status: ('A' for Active; 'I' for Inactive)
REMARK    1  A    between atoms: N_4  and  C_11
REMARK    2  A    between atoms: C_7  and  C_12
REMARK    3  A    between atoms: C_11  and  C_13
REMARK    4  A    between atoms: C_14  and  C_17
REMARK                            x       y       z     vdW  Elec       q    Type
REMARK                         _______ _______ _______ _____ _____    ______ ____
ROOT
ATOM      4  N   UNL     1      -2.501   4.965  25.184  0.00  0.00    -0.297 NA
ATOM      7  C   UNL     1      -4.452   3.680  24.971  0.00  0.00    +0.092 C 
ATOM      8  C   UNL     1      -4.341   4.214  26.410  0.00  0.00    +0.029 C 
ATOM      9  C   UNL     1      -3.050   3.873  24.377  0.00  0.00    +0.097 C 
ATOM     10  C   UNL     1      -2.889   4.649  26.559  0.00  0.00    +0.085 C 
ENDROOT
BRANCH   7  12
ATOM      2  O   UNL     1      -4.007   1.277  24.840  0.00  0.00    -0.418 OA
ATOM      5  N   UNL     1      -6.180   1.807  24.773  0.00  0.00    -0.112 NA
ATOM      6  N   UNL     1      -6.073   0.432  24.690  0.00  0.00    -0.104 NA
ATOM     12  C   UNL     1      -4.950   2.259  24.858  0.00  0.00    +0.222 A 
ATOM     14  C   UNL     1      -4.788   0.167  24.733  0.00  0.00    +0.284 A 
BRANCH  14  17
ATOM      3  O   UNL     1      -3.542  -1.685  25.692  0.00  0.00    -0.458 OA
ATOM     17  C   UNL     1      -4.262  -1.147  24.673  0.00  0.00    +0.191 A 
ATOM     19  C   UNL     1      -4.381  -2.045  23.639  0.00  0.00    +0.055 A 
ATOM     20  C   UNL     1      -3.691  -3.211  24.048  0.00  0.00    +0.042 A 
ATOM     21  C   UNL     1      -3.198  -2.941  25.304  0.00  0.00    +0.196 A 
ENDBRANCH  14  17
ENDBRANCH   7  12
BRANCH   4  11
ATOM     11  C   UNL     1      -1.059   5.098  25.032  0.00  0.00    +0.126 C 
BRANCH  11  13
ATOM      1  S   UNL     1      -0.265   2.668  26.128  0.00  0.00    -0.100 S 
ATOM     13  C   UNL     1      -0.392   3.765  24.819  0.00  0.00    +0.004 A 
ATOM     15  C   UNL     1       0.166   3.260  23.665  0.00  0.00    +0.012 A 
ATOM     16  C   UNL     1       0.706   1.956  23.858  0.00  0.00    +0.008 A 
ATOM     18  C   UNL     1       0.540   1.514  25.151  0.00  0.00    +0.045 A 
ENDBRANCH  11  13
ENDBRANCH   4  11
TORSDOF 4
ENDMDL
MODEL 7
REMARK VINA RESULT:      -3.2      2.030      2.537
REMARK  Name = 51137280
REMARK  4 active torsions:
REMARK  status: ('A' for Active; 'I' for Inactive)
REMARK    1  A    between atoms: N_4  and  C_11
REMARK    2  A    between atoms: C_7  and  C_12
REMARK    3  A    between atoms: C_11  and  C_13
REMARK    4  A    between atoms: C_14  and  C_17
REMARK                            x       y       z     vdW  Elec       q    Type
REMARK                         _______ _______ _______ _____ _____    ______ ____
ROOT
ATOM      4  N   UNL     1      -4.776   1.849  24.964  0.00  0.00    -0.297 NA
ATOM      7  C   UNL     1      -2.716   2.949  25.174  0.00  0.00    +0.092 C 
ATOM      8  C   UNL     1      -3.401   3.383  23.866  0.00  0.00    +0.029 C 
ATOM      9  C   UNL     1      -3.471   1.685  25.606  0.00  0.00    +0.097 C 
ATOM     10  C   UNL     1      -4.477   2.334  23.618  0.00  0.00    +0.085 C 
ENDROOT
BRANCH   7  12
ATOM      2  O   UNL     1      -0.789   1.894  24.094  0.00  0.00    -0.418 OA
ATOM      5  N   UNL     1      -0.253   3.254  25.788  0.00  0.00    -0.112 NA
ATOM      6  N   UNL     1       0.918   2.730  25.274  0.00  0.00    -0.104 NA
ATOM     12  C   UNL     1      -1.224   2.738  25.069  0.00  0.00    +0.222 A 
ATOM     14  C   UNL     1       0.558   1.942  24.287  0.00  0.00    +0.284 A 
BRANCH  14  17
ATOM      3  O   UNL     1       2.787   1.564  23.401  0.00  0.00    -0.458 OA
ATOM     17  C   UNL     1       1.480   1.210  23.500  0.00  0.00    +0.191 A 
ATOM     19  C   UNL     1       1.225   0.087  22.748  0.00  0.00    +0.055 A 
ATOM     20  C   UNL     1       2.455  -0.272  22.148  0.00  0.00    +0.042 A 
ATOM     21  C   UNL     1       3.374   0.658  22.576  0.00  0.00    +0.196 A 
ENDBRANCH  14  17
ENDBRANCH   7  12
BRANCH   4  11
ATOM     11  C   UNL     1      -5.548   0.615  24.950  0.00  0.00    +0.126 C 
BRANCH  11  13
ATOM      1  S   UNL     1      -3.607  -1.054  26.040  0.00  0.00    -0.100 S 
ATOM     13  C   UNL     1      -4.669  -0.595  24.777  0.00  0.00    +0.004 A 
ATOM     15  C   UNL     1      -4.579  -1.442  23.694  0.00  0.00    +0.012 A 
ATOM     16  C   UNL     1      -3.627  -2.480  23.904  0.00  0.00    +0.008 A 
ATOM     18  C   UNL     1      -3.025  -2.388  25.138  0.00  0.00    +0.045 A 
ENDBRANCH  11  13
ENDBRANCH   4  11
TORSDOF 4
ENDMDL
MODEL 8
REMARK VINA RESULT:      -2.4      3.322      7.665
REMARK  Name = 51137280
REMARK  4 active torsions:
REMARK  status: ('A' for Active; 'I' for Inactive)
REMARK    1  A    between atoms: N_4  and  C_11
REMARK    2  A    between atoms: C_7  and  C_12
REMARK    3  A    between atoms: C_11  and  C_13
REMARK    4  A    between atoms: C_14  and  C_17
REMARK                            x       y       z     vdW  Elec       q    Type
REMARK                         _______ _______ _______ _____ _____    ______ ____
ROOT
ATOM      4  N   UNL     1       0.689  -0.725  23.727  0.00  0.00    -0.297 NA
ATOM      7  C   UNL     1      -1.240  -0.703  25.060  0.00  0.00    +0.092 C 
ATOM      8  C   UNL     1      -1.171  -2.024  24.274  0.00  0.00    +0.029 C 
ATOM      9  C   UNL     1      -0.236   0.220  24.354  0.00  0.00    +0.097 C 
ATOM     10  C   UNL     1      -0.164  -1.769  23.161  0.00  0.00    +0.085 C 
ENDROOT
BRANCH   7  12
ATOM      2  O   UNL     1      -2.703   1.259  25.128  0.00  0.00    -0.418 OA
ATOM      5  N   UNL     1      -3.785  -0.692  25.296  0.00  0.00    -0.112 NA
ATOM      6  N   UNL     1      -4.723   0.322  25.349  0.00  0.00    -0.104 NA
ATOM     12  C   UNL     1      -2.621  -0.099  25.167  0.00  0.00    +0.222 A 
ATOM     14  C   UNL     1      -4.047   1.443  25.247  0.00  0.00    +0.284 A 
BRANCH  14  17
ATOM      3  O   UNL     1      -5.859   2.944  25.849  0.00  0.00    -0.458 OA
ATOM     17  C   UNL     1      -4.654   2.722  25.261  0.00  0.00    +0.191 A 
ATOM     19  C   UNL     1      -4.161   3.885  24.718  0.00  0.00    +0.055 A 
ATOM     20  C   UNL     1      -5.124   4.886  24.989  0.00  0.00    +0.042 A 
ATOM     21  C   UNL     1      -6.138   4.263  25.678  0.00  0.00    +0.196 A 
ENDBRANCH  14  17
ENDBRANCH   7  12
BRANCH   4  11
ATOM     11  C   UNL     1       1.532  -0.093  22.721  0.00  0.00    +0.126 C 
BRANCH  11  13
ATOM      1  S   UNL     1       4.058   1.068  22.645  0.00  0.00    -0.100 S 
ATOM     13  C   UNL     1       2.993  -0.206  23.063  0.00  0.00    +0.004 A 
ATOM     15  C   UNL     1       3.648  -1.239  23.697  0.00  0.00    +0.012 A 
ATOM     16  C   UNL     1       5.041  -0.982  23.842  0.00  0.00    +0.008 A 
ATOM     18  C   UNL     1       5.399   0.237  23.313  0.00  0.00    +0.045 A 
ENDBRANCH  11  13
ENDBRANCH   4  11
TORSDOF 4
ENDMDL
MODEL 9
REMARK VINA RESULT:      -2.4      3.220      7.855
REMARK  Name = 51137280
REMARK  4 active torsions:
REMARK  status: ('A' for Active; 'I' for Inactive)
REMARK    1  A    between atoms: N_4  and  C_11
REMARK    2  A    between atoms: C_7  and  C_12
REMARK    3  A    between atoms: C_11  and  C_13
REMARK    4  A    between atoms: C_14  and  C_17
REMARK                            x       y       z     vdW  Elec       q    Type
REMARK                         _______ _______ _______ _____ _____    ______ ____
ROOT
ATOM      4  N   UNL     1       1.247  -0.168  23.498  0.00  0.00    -0.297 NA
ATOM      7  C   UNL     1      -0.340   0.804  24.925  0.00  0.00    +0.092 C 
ATOM      8  C   UNL     1      -0.980  -0.372  24.167  0.00  0.00    +0.029 C 
ATOM      9  C   UNL     1       0.949   1.109  24.150  0.00  0.00    +0.097 C 
ATOM     10  C   UNL     1      -0.042  -0.647  23.000  0.00  0.00    +0.085 C 
ENDROOT
BRANCH   7  12
ATOM      2  O   UNL     1      -2.568   1.785  25.192  0.00  0.00    -0.418 OA
ATOM      5  N   UNL     1      -0.910   3.286  25.145  0.00  0.00    -0.112 NA
ATOM      6  N   UNL     1      -2.102   3.970  25.298  0.00  0.00    -0.104 NA
ATOM     12  C   UNL     1      -1.230   2.014  25.087  0.00  0.00    +0.222 A 
ATOM     14  C   UNL     1      -3.042   3.054  25.320  0.00  0.00    +0.284 A 
BRANCH  14  17
ATOM      3  O   UNL     1      -4.892   4.626  25.389  0.00  0.00    -0.458 OA
ATOM     17  C   UNL     1      -4.419   3.355  25.462  0.00  0.00    +0.191 A 
ATOM     19  C   UNL     1      -5.446   2.469  25.686  0.00  0.00    +0.055 A 
ATOM     20  C   UNL     1      -6.627   3.245  25.753  0.00  0.00    +0.042 A 
ATOM     21  C   UNL     1      -6.237   4.551  25.567  0.00  0.00    +0.196 A 
ENDBRANCH  14  17
ENDBRANCH   7  12
BRANCH   4  11
ATOM     11  C   UNL     1       2.236  -0.034  22.438  0.00  0.00    +0.126 C 
BRANCH  11  13
ATOM      1  S   UNL     1       4.218  -1.452  23.779  0.00  0.00    -0.100 S 
ATOM     13  C   UNL     1       3.641  -0.053  22.977  0.00  0.00    +0.004 A 
ATOM     15  C   UNL     1       4.594   0.940  22.921  0.00  0.00    +0.012 A 
ATOM     16  C   UNL     1       5.813   0.549  23.545  0.00  0.00    +0.008 A 
ATOM     18  C   UNL     1       5.746  -0.729  24.054  0.00  0.00    +0.045 A 
ENDBRANCH  11  13
ENDBRANCH   4  11
TORSDOF 4
ENDMDL
MODEL 10
REMARK VINA RESULT:      -2.4      2.257      2.886
REMARK  Name = 51137280
REMARK  4 active torsions:
REMARK  status: ('A' for Active; 'I' for Inactive)
REMARK    1  A    between atoms: N_4  and  C_11
REMARK    2  A    between atoms: C_7  and  C_12
REMARK    3  A    between atoms: C_11  and  C_13
REMARK    4  A    between atoms: C_14  and  C_17
REMARK                            x       y       z     vdW  Elec       q    Type
REMARK                         _______ _______ _______ _____ _____    ______ ____
ROOT
ATOM      4  N   UNL     1      -2.687   4.345  25.860  0.00  0.00    -0.297 NA
ATOM      7  C   UNL     1      -0.723   3.117  25.492  0.00  0.00    +0.092 C 
ATOM      8  C   UNL     1      -0.533   4.557  24.984  0.00  0.00    +0.029 C 
ATOM      9  C   UNL     1      -2.241   2.964  25.665  0.00  0.00    +0.097 C 
ATOM     10  C   UNL     1      -1.941   5.125  24.872  0.00  0.00    +0.085 C 
ENDROOT
BRANCH   7  12
ATOM      2  O   UNL     1       1.238   1.975  24.574  0.00  0.00    -0.418 OA
ATOM      5  N   UNL     1      -0.714   1.154  23.854  0.00  0.00    -0.112 NA
ATOM      6  N   UNL     1       0.300   0.425  23.263  0.00  0.00    -0.104 NA
ATOM     12  C   UNL     1      -0.120   2.048  24.611  0.00  0.00    +0.222 A 
ATOM     14  C   UNL     1       1.422   0.939  23.712  0.00  0.00    +0.284 A 
BRANCH  14  17
ATOM      3  O   UNL     1       3.046  -0.847  23.442  0.00  0.00    -0.458 OA
ATOM     17  C   UNL     1       2.701   0.463  23.335  0.00  0.00    +0.191 A 
ATOM     19  C   UNL     1       3.747   1.197  22.828  0.00  0.00    +0.055 A 
ATOM     20  C   UNL     1       4.803   0.281  22.610  0.00  0.00    +0.042 A 
ATOM     21  C   UNL     1       4.327  -0.950  23.000  0.00  0.00    +0.196 A 
ENDBRANCH  14  17
ENDBRANCH   7  12
BRANCH   4  11
ATOM     11  C   UNL     1      -4.128   4.490  25.707  0.00  0.00    +0.126 C 
BRANCH  11  13
ATOM      1  S   UNL     1      -4.326   2.210  24.126  0.00  0.00    -0.100 S 
ATOM     13  C   UNL     1      -4.802   3.166  25.464  0.00  0.00    +0.004 A 
ATOM     15  C   UNL     1      -5.805   2.568  26.196  0.00  0.00    +0.012 A 
ATOM     16  C   UNL     1      -6.187   1.309  25.651  0.00  0.00    +0.008 A 
ATOM     18  C   UNL     1      -5.463   0.992  24.524  0.00  0.00    +0.045 A 
ENDBRANCH  11  13
ENDBRANCH   4  11
TORSDOF 4
ENDMDL
