MODEL 1
REMARK VINA RESULT:      -2.9      0.000      0.000
REMARK  Name = 75537102
REMARK  3 active torsions:
REMARK  status: ('A' for Active; 'I' for Inactive)
REMARK    1  A    between atoms: N_3  and  C_12
REMARK    2  A    between atoms: N_4  and  C_14
REMARK    3  A    between atoms: C_12  and  C_13
REMARK                            x       y       z     vdW  Elec       q    Type
REMARK                         _______ _______ _______ _____ _____    ______ ____
ROOT
ATOM      1  O   UNL     1      -1.653  -3.356  23.522  0.00  0.00    -0.252 OA
ATOM      2  N   UNL     1      -2.919  -1.720  24.635  0.00  0.00    -0.278 N 
ATOM      3  N   UNL     1      -4.661   0.459  24.990  0.00  0.00    -0.295 NA
ATOM      4  N   UNL     1      -0.814  -2.089  25.326  0.00  0.00    -0.287 N 
ATOM      6  C   UNL     1      -2.770  -0.885  25.809  0.00  0.00    +0.109 C 
ATOM      7  C   UNL     1      -3.288   0.524  25.529  0.00  0.00    +0.109 C 
ATOM      8  C   UNL     1      -1.279  -0.971  26.128  0.00  0.00    +0.132 C 
ATOM      9  C   UNL     1      -4.187  -1.742  23.937  0.00  0.00    +0.125 C 
ATOM     10  C   UNL     1      -4.696  -0.313  23.732  0.00  0.00    +0.104 C 
ATOM     11  C   UNL     1      -1.781  -2.500  24.387  0.00  0.00    +0.305 C 
ATOM     14  C   UNL     1       0.542  -2.585  25.414  0.00  0.00    +0.133 C 
ENDROOT
BRANCH   3  12
ATOM     12  C   UNL     1      -5.188   1.807  24.775  0.00  0.00    +0.121 C 
BRANCH  12  13
ATOM      5  N   UNL     1      -3.308   4.612  26.237  0.00  0.00    -0.360 N 
ATOM     13  C   UNL     1      -4.208   2.867  25.199  0.00  0.00    -0.008 A 
ATOM     15  C   UNL     1      -2.882   3.040  24.711  0.00  0.00    +0.004 A 
ATOM     16  C   UNL     1      -4.440   3.849  26.135  0.00  0.00    +0.088 A 
ATOM     17  C   UNL     1      -2.339   4.141  25.378  0.00  0.00    +0.047 A 
ATOM     18  C   UNL     1      -2.089   2.362  23.764  0.00  0.00    +0.010 A 
ATOM     19  C   UNL     1      -1.039   4.601  25.143  0.00  0.00    +0.026 A 
ATOM     20  C   UNL     1      -0.785   2.812  23.519  0.00  0.00    +0.001 A 
ATOM     21  C   UNL     1      -0.271   3.913  24.198  0.00  0.00    +0.002 A 
ATOM     22  H   UNL     1      -3.198   5.406  26.851  0.00  0.00    +0.165 HD
ENDBRANCH  12  13
ENDBRANCH   3  12
TORSDOF 2
ENDMDL
MODEL 2
REMARK VINA RESULT:      -2.9     17.525     20.524
REMARK  Name = 75537102
REMARK  3 active torsions:
REMARK  status: ('A' for Active; 'I' for Inactive)
REMARK    1  A    between atoms: N_3  and  C_12
REMARK    2  A    between atoms: N_4  and  C_14
REMARK    3  A    between atoms: C_12  and  C_13
REMARK                            x       y       z     vdW  Elec       q    Type
REMARK                         _______ _______ _______ _____ _____    ______ ____
ROOT
ATOM      1  O   UNL     1      11.179  -4.897  32.872  0.00  0.00    -0.252 OA
ATOM      2  N   UNL     1      13.183  -5.854  32.105  0.00  0.00    -0.278 N 
ATOM      3  N   UNL     1      15.560  -6.137  30.629  0.00  0.00    -0.295 NA
ATOM      4  N   UNL     1      11.387  -7.184  32.332  0.00  0.00    -0.287 N 
ATOM      6  C   UNL     1      13.678  -7.185  31.818  0.00  0.00    +0.109 C 
ATOM      7  C   UNL     1      14.515  -7.177  30.541  0.00  0.00    +0.109 C 
ATOM      8  C   UNL     1      12.411  -8.036  31.752  0.00  0.00    +0.132 C 
ATOM      9  C   UNL     1      14.100  -4.735  32.071  0.00  0.00    +0.125 C 
ATOM     10  C   UNL     1      14.958  -4.800  30.805  0.00  0.00    +0.104 C 
ATOM     11  C   UNL     1      11.835  -5.857  32.489  0.00  0.00    +0.305 C 
ATOM     14  C   UNL     1      10.039  -7.653  32.561  0.00  0.00    +0.133 C 
ENDROOT
BRANCH   3  12
ATOM     12  C   UNL     1      16.405  -6.163  29.436  0.00  0.00    +0.121 C 
BRANCH  12  13
ATOM      5  N   UNL     1      17.402  -9.665  28.908  0.00  0.00    -0.360 N 
ATOM     13  C   UNL     1      16.675  -7.568  28.969  0.00  0.00    -0.008 A 
ATOM     15  C   UNL     1      16.260  -8.147  27.737  0.00  0.00    +0.004 A 
ATOM     16  C   UNL     1      17.376  -8.526  29.666  0.00  0.00    +0.088 A 
ATOM     17  C   UNL     1      16.728  -9.463  27.723  0.00  0.00    +0.047 A 
ATOM     18  C   UNL     1      15.528  -7.676  26.630  0.00  0.00    +0.010 A 
ATOM     19  C   UNL     1      16.501 -10.335  26.653  0.00  0.00    +0.026 A 
ATOM     20  C   UNL     1      15.292  -8.538  25.551  0.00  0.00    +0.001 A 
ATOM     21  C   UNL     1      15.772  -9.845  25.565  0.00  0.00    +0.002 A 
ATOM     22  H   UNL     1      17.851 -10.529  29.176  0.00  0.00    +0.165 HD
ENDBRANCH  12  13
ENDBRANCH   3  12
TORSDOF 2
ENDMDL
MODEL 3
REMARK VINA RESULT:      -2.7     20.033     21.332
REMARK  Name = 75537102
REMARK  3 active torsions:
REMARK  status: ('A' for Active; 'I' for Inactive)
REMARK    1  A    between atoms: N_3  and  C_12
REMARK    2  A    between atoms: N_4  and  C_14
REMARK    3  A    between atoms: C_12  and  C_13
REMARK                            x       y       z     vdW  Elec       q    Type
REMARK                         _______ _______ _______ _____ _____    ______ ____
ROOT
ATOM      1  O   UNL     1      17.374  -1.420  25.460  0.00  0.00    -0.252 OA
ATOM      2  N   UNL     1      16.788  -3.660  25.061  0.00  0.00    -0.278 N 
ATOM      3  N   UNL     1      16.817  -6.462  25.298  0.00  0.00    -0.295 NA
ATOM      4  N   UNL     1      17.051  -2.297  23.294  0.00  0.00    -0.287 N 
ATOM      6  C   UNL     1      16.402  -4.465  23.921  0.00  0.00    +0.109 C 
ATOM      7  C   UNL     1      17.074  -5.835  23.985  0.00  0.00    +0.109 C 
ATOM      8  C   UNL     1      16.802  -3.609  22.721  0.00  0.00    +0.132 C 
ATOM      9  C   UNL     1      16.716  -4.231  26.389  0.00  0.00    +0.125 C 
ATOM     10  C   UNL     1      17.347  -5.626  26.393  0.00  0.00    +0.104 C 
ATOM     11  C   UNL     1      17.101  -2.342  24.702  0.00  0.00    +0.305 C 
ATOM     14  C   UNL     1      17.355  -1.147  22.473  0.00  0.00    +0.133 C 
ENDROOT
BRANCH   3  12
ATOM     12  C   UNL     1      17.405  -7.800  25.347  0.00  0.00    +0.121 C 
BRANCH  12  13
ATOM      5  N   UNL     1      14.998 -10.533  25.875  0.00  0.00    -0.360 N 
ATOM     13  C   UNL     1      16.420  -8.828  25.836  0.00  0.00    -0.008 A 
ATOM     15  C   UNL     1      15.935  -8.973  27.166  0.00  0.00    +0.004 A 
ATOM     16  C   UNL     1      15.825  -9.801  25.066  0.00  0.00    +0.088 A 
ATOM     17  C   UNL     1      15.045 -10.048  27.164  0.00  0.00    +0.047 A 
ATOM     18  C   UNL     1      16.169  -8.289  28.375  0.00  0.00    +0.010 A 
ATOM     19  C   UNL     1      14.373 -10.476  28.315  0.00  0.00    +0.026 A 
ATOM     20  C   UNL     1      15.504  -8.706  29.535  0.00  0.00    +0.001 A 
ATOM     21  C   UNL     1      14.622  -9.782  29.503  0.00  0.00    +0.002 A 
ATOM     22  H   UNL     1      14.433 -11.314  25.572  0.00  0.00    +0.165 HD
ENDBRANCH  12  13
ENDBRANCH   3  12
TORSDOF 2
ENDMDL
MODEL 4
REMARK VINA RESULT:      -2.4      2.323      5.523
REMARK  Name = 75537102
REMARK  3 active torsions:
REMARK  status: ('A' for Active; 'I' for Inactive)
REMARK    1  A    between atoms: N_3  and  C_12
REMARK    2  A    between atoms: N_4  and  C_14
REMARK    3  A    between atoms: C_12  and  C_13
REMARK                            x       y       z     vdW  Elec       q    Type
REMARK                         _______ _______ _______ _____ _____    ______ ____
ROOT
ATOM      1  O   UNL     1      -2.746   5.340  26.118  0.00  0.00    -0.252 OA
ATOM      2  N   UNL     1      -3.636   3.506  24.951  0.00  0.00    -0.278 N 
ATOM      3  N   UNL     1      -5.064   1.126  24.498  0.00  0.00    -0.295 NA
ATOM      4  N   UNL     1      -1.495   4.069  24.575  0.00  0.00    -0.287 N 
ATOM      6  C   UNL     1      -3.211   2.623  23.885  0.00  0.00    +0.109 C 
ATOM      7  C   UNL     1      -3.621   1.184  24.189  0.00  0.00    +0.109 C 
ATOM      8  C   UNL     1      -1.704   2.858  23.800  0.00  0.00    +0.132 C 
ATOM      9  C   UNL     1      -4.998   3.427  25.435  0.00  0.00    +0.125 C 
ATOM     10  C   UNL     1      -5.386   1.965  25.670  0.00  0.00    +0.104 C 
ATOM     11  C   UNL     1      -2.641   4.424  25.314  0.00  0.00    +0.305 C 
ATOM     14  C   UNL     1      -0.201   4.709  24.664  0.00  0.00    +0.133 C 
ENDROOT
BRANCH   3  12
ATOM     12  C   UNL     1      -5.479  -0.257  24.732  0.00  0.00    +0.121 C 
BRANCH  12  13
ATOM      5  N   UNL     1      -3.252  -2.952  23.583  0.00  0.00    -0.360 N 
ATOM     13  C   UNL     1      -4.373  -1.233  24.431  0.00  0.00    -0.008 A 
ATOM     15  C   UNL     1      -3.053  -1.209  24.961  0.00  0.00    +0.004 A 
ATOM     16  C   UNL     1      -4.465  -2.317  23.588  0.00  0.00    +0.088 A 
ATOM     17  C   UNL     1      -2.370  -2.297  24.414  0.00  0.00    +0.047 A 
ATOM     18  C   UNL     1      -2.371  -0.362  25.857  0.00  0.00    +0.010 A 
ATOM     19  C   UNL     1      -1.034  -2.583  24.719  0.00  0.00    +0.026 A 
ATOM     20  C   UNL     1      -1.034  -0.636  26.172  0.00  0.00    +0.001 A 
ATOM     21  C   UNL     1      -0.379  -1.729  25.611  0.00  0.00    +0.002 A 
ATOM     22  H   UNL     1      -3.035  -3.782  23.049  0.00  0.00    +0.165 HD
ENDBRANCH  12  13
ENDBRANCH   3  12
TORSDOF 2
ENDMDL
MODEL 5
REMARK VINA RESULT:      -2.2     18.416     20.463
REMARK  Name = 75537102
REMARK  3 active torsions:
REMARK  status: ('A' for Active; 'I' for Inactive)
REMARK    1  A    between atoms: N_3  and  C_12
REMARK    2  A    between atoms: N_4  and  C_14
REMARK    3  A    between atoms: C_12  and  C_13
REMARK                            x       y       z     vdW  Elec       q    Type
REMARK                         _______ _______ _______ _____ _____    ______ ____
ROOT
ATOM      1  O   UNL     1      10.264  -7.799  32.064  0.00  0.00    -0.252 OA
ATOM      2  N   UNL     1      12.510  -8.487  32.075  0.00  0.00    -0.278 N 
ATOM      3  N   UNL     1      15.258  -8.487  31.474  0.00  0.00    -0.295 NA
ATOM      4  N   UNL     1      10.919 -10.054  31.834  0.00  0.00    -0.287 N 
ATOM      6  C   UNL     1      13.232  -9.743  32.086  0.00  0.00    +0.109 C 
ATOM      7  C   UNL     1      14.438  -9.672  31.152  0.00  0.00    +0.109 C 
ATOM      8  C   UNL     1      12.174 -10.772  31.695  0.00  0.00    +0.132 C 
ATOM      9  C   UNL     1      13.242  -7.248  32.234  0.00  0.00    +0.125 C 
ATOM     10  C   UNL     1      14.472  -7.246  31.323  0.00  0.00    +0.104 C 
ATOM     11  C   UNL     1      11.123  -8.670  32.003  0.00  0.00    +0.305 C 
ATOM     14  C   UNL     1       9.639 -10.704  31.659  0.00  0.00    +0.133 C 
ENDROOT
BRANCH   3  12
ATOM     12  C   UNL     1      16.447  -8.444  30.624  0.00  0.00    +0.121 C 
BRANCH  12  13
ATOM      5  N   UNL     1      15.679  -6.695  27.479  0.00  0.00    -0.360 N 
ATOM     13  C   UNL     1      16.121  -7.993  29.226  0.00  0.00    -0.008 A 
ATOM     15  C   UNL     1      15.911  -8.828  28.092  0.00  0.00    +0.004 A 
ATOM     16  C   UNL     1      15.971  -6.687  28.817  0.00  0.00    +0.088 A 
ATOM     17  C   UNL     1      15.636  -7.989  27.010  0.00  0.00    +0.047 A 
ATOM     18  C   UNL     1      15.929 -10.221  27.884  0.00  0.00    +0.010 A 
ATOM     19  C   UNL     1      15.376  -8.476  25.724  0.00  0.00    +0.026 A 
ATOM     20  C   UNL     1      15.671 -10.722  26.601  0.00  0.00    +0.001 A 
ATOM     21  C   UNL     1      15.399  -9.862  25.541  0.00  0.00    +0.002 A 
ATOM     22  H   UNL     1      15.518  -5.871  26.917  0.00  0.00    +0.165 HD
ENDBRANCH  12  13
ENDBRANCH   3  12
TORSDOF 2
ENDMDL
MODEL 6
REMARK VINA RESULT:      -2.2     19.341     20.667
REMARK  Name = 75537102
REMARK  3 active torsions:
REMARK  status: ('A' for Active; 'I' for Inactive)
REMARK    1  A    between atoms: N_3  and  C_12
REMARK    2  A    between atoms: N_4  and  C_14
REMARK    3  A    between atoms: C_12  and  C_13
REMARK                            x       y       z     vdW  Elec       q    Type
REMARK                         _______ _______ _______ _____ _____    ______ ____
ROOT
ATOM      1  O   UNL     1      17.097  -0.495  24.788  0.00  0.00    -0.252 OA
ATOM      2  N   UNL     1      16.639  -2.711  25.417  0.00  0.00    -0.278 N 
ATOM      3  N   UNL     1      16.767  -5.099  26.898  0.00  0.00    -0.295 NA
ATOM      4  N   UNL     1      16.979  -2.271  23.241  0.00  0.00    -0.287 N 
ATOM      6  C   UNL     1      16.376  -3.968  24.748  0.00  0.00    +0.109 C 
ATOM      7  C   UNL     1      17.098  -5.111  25.458  0.00  0.00    +0.109 C 
ATOM      8  C   UNL     1      16.830  -3.715  23.312  0.00  0.00    +0.132 C 
ATOM      9  C   UNL     1      16.489  -2.629  26.855  0.00  0.00    +0.125 C 
ATOM     10  C   UNL     1      17.175  -3.824  27.521  0.00  0.00    +0.104 C 
ATOM     11  C   UNL     1      16.923  -1.675  24.517  0.00  0.00    +0.305 C 
ATOM     14  C   UNL     1      17.297  -1.593  22.004  0.00  0.00    +0.133 C 
ENDROOT
BRANCH   3  12
ATOM     12  C   UNL     1      17.405  -6.226  27.576  0.00  0.00    +0.121 C 
BRANCH  12  13
ATOM      5  N   UNL     1      15.195  -8.984  28.600  0.00  0.00    -0.360 N 
ATOM     13  C   UNL     1      16.394  -7.163  28.181  0.00  0.00    -0.008 A 
ATOM     15  C   UNL     1      15.467  -6.857  29.217  0.00  0.00    +0.004 A 
ATOM     16  C   UNL     1      16.202  -8.478  27.822  0.00  0.00    +0.088 A 
ATOM     17  C   UNL     1      14.727  -8.016  29.461  0.00  0.00    +0.047 A 
ATOM     18  C   UNL     1      15.187  -5.702  29.972  0.00  0.00    +0.010 A 
ATOM     19  C   UNL     1      13.716  -8.078  30.427  0.00  0.00    +0.026 A 
ATOM     20  C   UNL     1      14.177  -5.749  30.942  0.00  0.00    +0.001 A 
ATOM     21  C   UNL     1      13.456  -6.919  31.163  0.00  0.00    +0.002 A 
ATOM     22  H   UNL     1      14.844  -9.930  28.550  0.00  0.00    +0.165 HD
ENDBRANCH  12  13
ENDBRANCH   3  12
TORSDOF 2
ENDMDL
MODEL 7
REMARK VINA RESULT:      -2.1     19.963     20.709
REMARK  Name = 75537102
REMARK  3 active torsions:
REMARK  status: ('A' for Active; 'I' for Inactive)
REMARK    1  A    between atoms: N_3  and  C_12
REMARK    2  A    between atoms: N_4  and  C_14
REMARK    3  A    between atoms: C_12  and  C_13
REMARK                            x       y       z     vdW  Elec       q    Type
REMARK                         _______ _______ _______ _____ _____    ______ ____
ROOT
ATOM      1  O   UNL     1      12.763  -7.760  31.614  0.00  0.00    -0.252 OA
ATOM      2  N   UNL     1      14.750  -7.982  30.381  0.00  0.00    -0.278 N 
ATOM      3  N   UNL     1      16.617  -7.579  28.316  0.00  0.00    -0.295 NA
ATOM      4  N   UNL     1      13.793  -9.842  31.200  0.00  0.00    -0.287 N 
ATOM      6  C   UNL     1      15.683  -9.042  30.060  0.00  0.00    +0.109 C 
ATOM      7  C   UNL     1      16.123  -8.941  28.601  0.00  0.00    +0.109 C 
ATOM      8  C   UNL     1      14.919 -10.316  30.415  0.00  0.00    +0.132 C 
ATOM      9  C   UNL     1      15.071  -6.620  30.010  0.00  0.00    +0.125 C 
ATOM     10  C   UNL     1      15.562  -6.575  28.561  0.00  0.00    +0.104 C 
ATOM     11  C   UNL     1      13.658  -8.441  31.130  0.00  0.00    +0.305 C 
ATOM     14  C   UNL     1      12.862 -10.750  31.833  0.00  0.00    +0.133 C 
ENDROOT
BRANCH   3  12
ATOM     12  C   UNL     1      17.096  -7.489  26.937  0.00  0.00    +0.121 C 
BRANCH  12  13
ATOM      5  N   UNL     1      17.304  -3.845  26.472  0.00  0.00    -0.360 N 
ATOM     13  C   UNL     1      17.187  -6.062  26.467  0.00  0.00    -0.008 A 
ATOM     15  C   UNL     1      17.253  -5.616  25.117  0.00  0.00    +0.004 A 
ATOM     16  C   UNL     1      17.220  -4.949  27.276  0.00  0.00    +0.088 A 
ATOM     17  C   UNL     1      17.325  -4.222  25.147  0.00  0.00    +0.047 A 
ATOM     18  C   UNL     1      17.258  -6.268  23.868  0.00  0.00    +0.010 A 
ATOM     19  C   UNL     1      17.402  -3.443  23.987  0.00  0.00    +0.026 A 
ATOM     20  C   UNL     1      17.334  -5.502  22.698  0.00  0.00    +0.001 A 
ATOM     21  C   UNL     1      17.405  -4.113  22.760  0.00  0.00    +0.002 A 
ATOM     22  H   UNL     1      17.343  -2.890  26.801  0.00  0.00    +0.165 HD
ENDBRANCH  12  13
ENDBRANCH   3  12
TORSDOF 2
ENDMDL
MODEL 8
REMARK VINA RESULT:      -2.0     18.118     19.914
REMARK  Name = 75537102
REMARK  3 active torsions:
REMARK  status: ('A' for Active; 'I' for Inactive)
REMARK    1  A    between atoms: N_3  and  C_12
REMARK    2  A    between atoms: N_4  and  C_14
REMARK    3  A    between atoms: C_12  and  C_13
REMARK                            x       y       z     vdW  Elec       q    Type
REMARK                         _______ _______ _______ _____ _____    ______ ____
ROOT
ATOM      1  O   UNL     1       9.869  -7.657  31.915  0.00  0.00    -0.252 OA
ATOM      2  N   UNL     1      12.089  -8.305  31.499  0.00  0.00    -0.278 N 
ATOM      3  N   UNL     1      14.571  -8.477  30.188  0.00  0.00    -0.295 NA
ATOM      4  N   UNL     1      10.628  -9.876  32.165  0.00  0.00    -0.287 N 
ATOM      6  C   UNL     1      12.892  -9.498  31.668  0.00  0.00    +0.109 C 
ATOM      7  C   UNL     1      13.798  -9.706  30.456  0.00  0.00    +0.109 C 
ATOM      8  C   UNL     1      11.859 -10.600  31.895  0.00  0.00    +0.132 C 
ATOM      9  C   UNL     1      12.729  -7.073  31.089  0.00  0.00    +0.125 C 
ATOM     10  C   UNL     1      13.671  -7.339  29.913  0.00  0.00    +0.104 C 
ATOM     11  C   UNL     1      10.752  -8.504  31.870  0.00  0.00    +0.305 C 
ATOM     14  C   UNL     1       9.408 -10.553  32.544  0.00  0.00    +0.133 C 
ENDROOT
BRANCH   3  12
ATOM     12  C   UNL     1      15.486  -8.685  29.066  0.00  0.00    +0.121 C 
BRANCH  12  13
ATOM      5  N   UNL     1      16.678  -5.273  28.379  0.00  0.00    -0.360 N 
ATOM     13  C   UNL     1      16.004  -7.384  28.516  0.00  0.00    -0.008 A 
ATOM     15  C   UNL     1      16.378  -7.122  27.167  0.00  0.00    +0.004 A 
ATOM     16  C   UNL     1      16.199  -6.227  29.235  0.00  0.00    +0.088 A 
ATOM     17  C   UNL     1      16.797  -5.791  27.108  0.00  0.00    +0.047 A 
ATOM     18  C   UNL     1      16.400  -7.893  25.989  0.00  0.00    +0.010 A 
ATOM     19  C   UNL     1      17.238  -5.190  25.924  0.00  0.00    +0.026 A 
ATOM     20  C   UNL     1      16.839  -7.304  24.796  0.00  0.00    +0.001 A 
ATOM     21  C   UNL     1      17.251  -5.975  24.767  0.00  0.00    +0.002 A 
ATOM     22  H   UNL     1      16.910  -4.324  28.639  0.00  0.00    +0.165 HD
ENDBRANCH  12  13
ENDBRANCH   3  12
TORSDOF 2
ENDMDL
MODEL 9
REMARK VINA RESULT:      -1.7     19.697     21.058
REMARK  Name = 75537102
REMARK  3 active torsions:
REMARK  status: ('A' for Active; 'I' for Inactive)
REMARK    1  A    between atoms: N_3  and  C_12
REMARK    2  A    between atoms: N_4  and  C_14
REMARK    3  A    between atoms: C_12  and  C_13
REMARK                            x       y       z     vdW  Elec       q    Type
REMARK                         _______ _______ _______ _____ _____    ______ ____
ROOT
ATOM      1  O   UNL     1      17.241  -0.155  24.604  0.00  0.00    -0.252 OA
ATOM      2  N   UNL     1      16.718  -2.340  25.291  0.00  0.00    -0.278 N 
ATOM      3  N   UNL     1      16.793  -4.699  26.819  0.00  0.00    -0.295 NA
ATOM      4  N   UNL     1      17.027  -1.958  23.099  0.00  0.00    -0.287 N 
ATOM      6  C   UNL     1      16.397  -3.600  24.654  0.00  0.00    +0.109 C 
ATOM      7  C   UNL     1      17.092  -4.753  25.374  0.00  0.00    +0.109 C 
ATOM      8  C   UNL     1      16.829  -3.393  23.203  0.00  0.00    +0.132 C 
ATOM      9  C   UNL     1      16.602  -2.223  26.729  0.00  0.00    +0.125 C 
ATOM     10  C   UNL     1      17.260  -3.427  27.406  0.00  0.00    +0.104 C 
ATOM     11  C   UNL     1      17.019  -1.334  24.362  0.00  0.00    +0.305 C 
ATOM     14  C   UNL     1      17.343  -1.317  21.842  0.00  0.00    +0.133 C 
ENDROOT
BRANCH   3  12
ATOM     12  C   UNL     1      17.405  -5.834  27.508  0.00  0.00    +0.121 C 
BRANCH  12  13
ATOM      5  N   UNL     1      14.807  -7.016  29.831  0.00  0.00    -0.360 N 
ATOM     13  C   UNL     1      16.410  -6.578  28.358  0.00  0.00    -0.008 A 
ATOM     15  C   UNL     1      16.193  -7.985  28.375  0.00  0.00    +0.004 A 
ATOM     16  C   UNL     1      15.544  -6.010  29.264  0.00  0.00    +0.088 A 
ATOM     17  C   UNL     1      15.183  -8.233  29.307  0.00  0.00    +0.047 A 
ATOM     18  C   UNL     1      16.760  -9.073  27.684  0.00  0.00    +0.010 A 
ATOM     19  C   UNL     1      14.710  -9.521  29.584  0.00  0.00    +0.026 A 
ATOM     20  C   UNL     1      16.297 -10.368  27.951  0.00  0.00    +0.001 A 
ATOM     21  C   UNL     1      15.289 -10.585  28.887  0.00  0.00    +0.002 A 
ATOM     22  H   UNL     1      14.093  -6.885  30.533  0.00  0.00    +0.165 HD
ENDBRANCH  12  13
ENDBRANCH   3  12
TORSDOF 2
ENDMDL
MODEL 10
REMARK VINA RESULT:      -1.7      2.431      5.550
REMARK  Name = 75537102
REMARK  3 active torsions:
REMARK  status: ('A' for Active; 'I' for Inactive)
REMARK    1  A    between atoms: N_3  and  C_12
REMARK    2  A    between atoms: N_4  and  C_14
REMARK    3  A    between atoms: C_12  and  C_13
REMARK                            x       y       z     vdW  Elec       q    Type
REMARK                         _______ _______ _______ _____ _____    ______ ____
ROOT
ATOM      1  O   UNL     1      -6.337   1.631  24.078  0.00  0.00    -0.252 OA
ATOM      2  N   UNL     1      -4.290   2.747  24.369  0.00  0.00    -0.278 N 
ATOM      3  N   UNL     1      -1.531   3.260  24.183  0.00  0.00    -0.295 NA
ATOM      4  N   UNL     1      -5.673   2.585  26.131  0.00  0.00    -0.287 N 
ATOM      6  C   UNL     1      -3.648   3.527  25.407  0.00  0.00    +0.109 C 
ATOM      7  C   UNL     1      -2.169   3.161  25.511  0.00  0.00    +0.109 C 
ATOM      8  C   UNL     1      -4.476   3.221  26.653  0.00  0.00    +0.132 C 
ATOM      9  C   UNL     1      -3.666   2.654  23.066  0.00  0.00    +0.125 C 
ATOM     10  C   UNL     1      -2.175   2.345  23.220  0.00  0.00    +0.104 C 
ATOM     11  C   UNL     1      -5.536   2.247  24.770  0.00  0.00    +0.305 C 
ATOM     14  C   UNL     1      -6.785   2.226  26.983  0.00  0.00    +0.133 C 
ENDROOT
BRANCH   3  12
ATOM     12  C   UNL     1      -0.101   2.970  24.283  0.00  0.00    +0.121 C 
BRANCH  12  13
ATOM      5  N   UNL     1       1.152  -0.377  23.408  0.00  0.00    -0.360 N 
ATOM     13  C   UNL     1       0.190   1.507  24.082  0.00  0.00    -0.008 A 
ATOM     15  C   UNL     1      -0.553   0.414  24.610  0.00  0.00    +0.004 A 
ATOM     16  C   UNL     1       1.232   0.988  23.347  0.00  0.00    +0.088 A 
ATOM     17  C   UNL     1       0.071  -0.756  24.173  0.00  0.00    +0.047 A 
ATOM     18  C   UNL     1      -1.700   0.309  25.421  0.00  0.00    +0.010 A 
ATOM     19  C   UNL     1      -0.397  -2.032  24.506  0.00  0.00    +0.026 A 
ATOM     20  C   UNL     1      -2.180  -0.962  25.762  0.00  0.00    +0.001 A 
ATOM     21  C   UNL     1      -1.537  -2.112  25.311  0.00  0.00    +0.002 A 
ATOM     22  H   UNL     1       1.792  -1.015  22.957  0.00  0.00    +0.165 HD
ENDBRANCH  12  13
ENDBRANCH   3  12
TORSDOF 2
ENDMDL
