MODEL 1
REMARK VINA RESULT:      -4.5      0.000      0.000
REMARK  Name = 75536602
REMARK  8 active torsions:
REMARK  status: ('A' for Active; 'I' for Inactive)
REMARK    1  A    between atoms: O_3  and  C_9
REMARK    2  A    between atoms: O_5  and  C_16
REMARK    3  A    between atoms: N_6  and  C_8
REMARK    4  A    between atoms: N_6  and  C_13
REMARK    5  A    between atoms: N_7  and  C_12
REMARK    6  A    between atoms: C_10  and  C_12
REMARK    7  A    between atoms: C_13  and  C_14
REMARK    8  A    between atoms: C_15  and  C_18
REMARK                            x       y       z     vdW  Elec       q    Type
REMARK                         _______ _______ _______ _____ _____    ______ ____
ROOT
ATOM      2  O   UNL     1       0.274   3.598  23.502  0.00  0.00    -0.371 OA
ATOM      8  C   UNL     1      -0.930   4.159  25.471  0.00  0.00    +0.111 C 
ATOM      9  C   UNL     1      -0.625   2.672  25.484  0.00  0.00    +0.164 C 
ATOM     10  C   UNL     1       0.538   2.603  24.506  0.00  0.00    +0.165 C 
ATOM     11  C   UNL     1      -0.735   4.492  24.001  0.00  0.00    +0.181 C 
ENDROOT
BRANCH   9   3
ATOM      3  O   UNL     1      -0.264   2.201  26.768  0.00  0.00    -0.388 OA
ATOM     26  H   UNL     1      -0.934   1.558  27.057  0.00  0.00    +0.210 HD
ENDBRANCH   9   3
BRANCH   8   6
ATOM      6  N   UNL     1      -2.262   4.487  25.953  0.00  0.00    -0.305 NA
ATOM     25  H   UNL     1      -2.248   5.424  26.359  0.00  0.00    +0.123 HD
BRANCH   6  13
ATOM     13  C   UNL     1      -3.236   4.456  24.870  0.00  0.00    +0.120 C 
BRANCH  13  14
ATOM     14  C   UNL     1      -4.179   3.290  24.996  0.00  0.00    +0.008 A 
ATOM     16  C   UNL     1      -4.046   2.173  24.172  0.00  0.00    +0.121 A 
ATOM     17  C   UNL     1      -5.194   3.335  25.951  0.00  0.00    +0.008 A 
ATOM     19  C   UNL     1      -4.929   1.101  24.302  0.00  0.00    +0.046 A 
ATOM     20  C   UNL     1      -6.078   2.262  26.081  0.00  0.00    +0.001 A 
ATOM     21  C   UNL     1      -5.945   1.145  25.257  0.00  0.00    +0.004 A 
BRANCH  16   5
ATOM      5  O   UNL     1      -3.061   2.113  23.234  0.00  0.00    -0.506 OA
ATOM     28  H   UNL     1      -3.126   1.268  22.756  0.00  0.00    +0.292 HD
ENDBRANCH  16   5
ENDBRANCH  13  14
ENDBRANCH   6  13
ENDBRANCH   8   6
BRANCH  10  12
ATOM     12  C   UNL     1       0.692   1.242  23.851  0.00  0.00    +0.138 C 
BRANCH  12   7
ATOM      4  O   UNL     1       0.676  -1.506  24.682  0.00  0.00    -0.270 OA
ATOM      7  N   UNL     1      -0.463   0.421  24.073  0.00  0.00    -0.308 N 
ATOM     15  C   UNL     1      -0.377  -0.907  24.477  0.00  0.00    +0.251 C 
ATOM     27  H   UNL     1      -1.368   0.848  23.909  0.00  0.00    +0.149 HD
BRANCH  15  18
ATOM      1  S   UNL     1      -2.809  -1.048  25.775  0.00  0.00    -0.092 S 
ATOM     18  C   UNL     1      -1.666  -1.628  24.639  0.00  0.00    +0.074 A 
ATOM     22  C   UNL     1      -2.114  -2.754  23.984  0.00  0.00    +0.021 A 
ATOM     23  C   UNL     1      -3.413  -3.145  24.420  0.00  0.00    +0.008 A 
ATOM     24  C   UNL     1      -3.908  -2.303  25.392  0.00  0.00    +0.046 A 
ENDBRANCH  15  18
ENDBRANCH  12   7
ENDBRANCH  10  12
TORSDOF 8
ENDMDL
MODEL 2
REMARK VINA RESULT:      -4.3      2.118      4.493
REMARK  Name = 75536602
REMARK  8 active torsions:
REMARK  status: ('A' for Active; 'I' for Inactive)
REMARK    1  A    between atoms: O_3  and  C_9
REMARK    2  A    between atoms: O_5  and  C_16
REMARK    3  A    between atoms: N_6  and  C_8
REMARK    4  A    between atoms: N_6  and  C_13
REMARK    5  A    between atoms: N_7  and  C_12
REMARK    6  A    between atoms: C_10  and  C_12
REMARK    7  A    between atoms: C_13  and  C_14
REMARK    8  A    between atoms: C_15  and  C_18
REMARK                            x       y       z     vdW  Elec       q    Type
REMARK                         _______ _______ _______ _____ _____    ______ ____
ROOT
ATOM      2  O   UNL     1      -2.602   3.365  23.149  0.00  0.00    -0.371 OA
ATOM      8  C   UNL     1      -4.457   2.620  24.431  0.00  0.00    +0.111 C 
ATOM      9  C   UNL     1      -3.377   3.125  25.371  0.00  0.00    +0.164 C 
ATOM     10  C   UNL     1      -2.563   4.007  24.434  0.00  0.00    +0.165 C 
ATOM     11  C   UNL     1      -3.665   2.396  23.154  0.00  0.00    +0.181 C 
ENDROOT
BRANCH   9   3
ATOM      3  O   UNL     1      -3.901   3.855  26.463  0.00  0.00    -0.388 OA
ATOM     26  H   UNL     1      -4.572   4.471  26.124  0.00  0.00    +0.210 HD
ENDBRANCH   9   3
BRANCH   8   6
ATOM      6  N   UNL     1      -5.126   1.417  24.901  0.00  0.00    -0.305 NA
ATOM     25  H   UNL     1      -5.383   0.844  24.097  0.00  0.00    +0.123 HD
BRANCH   6  13
ATOM     13  C   UNL     1      -4.256   0.641  25.776  0.00  0.00    +0.120 C 
BRANCH  13  14
ATOM     14  C   UNL     1      -3.804  -0.639  25.125  0.00  0.00    +0.008 A 
ATOM     16  C   UNL     1      -2.557  -1.189  25.423  0.00  0.00    +0.121 A 
ATOM     17  C   UNL     1      -4.647  -1.276  24.215  0.00  0.00    +0.008 A 
ATOM     19  C   UNL     1      -2.153  -2.375  24.811  0.00  0.00    +0.046 A 
ATOM     20  C   UNL     1      -4.243  -2.463  23.603  0.00  0.00    +0.001 A 
ATOM     21  C   UNL     1      -2.996  -3.012  23.900  0.00  0.00    +0.004 A 
BRANCH  16   5
ATOM      5  O   UNL     1      -1.721  -0.579  26.309  0.00  0.00    -0.506 OA
ATOM     28  H   UNL     1      -0.810  -0.883  26.148  0.00  0.00    +0.292 HD
ENDBRANCH  16   5
ENDBRANCH  13  14
ENDBRANCH   6  13
ENDBRANCH   8   6
BRANCH  10  12
ATOM     12  C   UNL     1      -1.122   4.183  24.876  0.00  0.00    +0.138 C 
BRANCH  12   7
ATOM      4  O   UNL     1      -0.224   1.592  25.726  0.00  0.00    -0.270 OA
ATOM      7  N   UNL     1      -0.244   3.303  24.160  0.00  0.00    -0.308 N 
ATOM     15  C   UNL     1       0.140   2.059  24.650  0.00  0.00    +0.251 C 
ATOM     27  H   UNL     1       0.107   3.631  23.267  0.00  0.00    +0.149 HD
BRANCH  15  18
ATOM      1  S   UNL     1       0.541  -0.197  23.111  0.00  0.00    -0.092 S 
ATOM     18  C   UNL     1       1.074   1.279  23.798  0.00  0.00    +0.074 A 
ATOM     22  C   UNL     1       2.376   1.568  23.454  0.00  0.00    +0.021 A 
ATOM     23  C   UNL     1       2.943   0.567  22.615  0.00  0.00    +0.008 A 
ATOM     24  C   UNL     1       2.053  -0.451  22.349  0.00  0.00    +0.046 A 
ENDBRANCH  15  18
ENDBRANCH  12   7
ENDBRANCH  10  12
TORSDOF 8
ENDMDL
MODEL 3
REMARK VINA RESULT:      -4.0      1.698      4.708
REMARK  Name = 75536602
REMARK  8 active torsions:
REMARK  status: ('A' for Active; 'I' for Inactive)
REMARK    1  A    between atoms: O_3  and  C_9
REMARK    2  A    between atoms: O_5  and  C_16
REMARK    3  A    between atoms: N_6  and  C_8
REMARK    4  A    between atoms: N_6  and  C_13
REMARK    5  A    between atoms: N_7  and  C_12
REMARK    6  A    between atoms: C_10  and  C_12
REMARK    7  A    between atoms: C_13  and  C_14
REMARK    8  A    between atoms: C_15  and  C_18
REMARK                            x       y       z     vdW  Elec       q    Type
REMARK                         _______ _______ _______ _____ _____    ______ ____
ROOT
ATOM      2  O   UNL     1       0.107   3.757  25.926  0.00  0.00    -0.371 OA
ATOM      8  C   UNL     1       0.303   1.680  24.790  0.00  0.00    +0.111 C 
ATOM      9  C   UNL     1      -0.782   2.508  24.124  0.00  0.00    +0.164 C 
ATOM     10  C   UNL     1      -0.411   3.908  24.594  0.00  0.00    +0.165 C 
ATOM     11  C   UNL     1       0.422   2.370  26.139  0.00  0.00    +0.181 C 
ENDROOT
BRANCH   9   3
ATOM      3  O   UNL     1      -0.761   2.401  22.714  0.00  0.00    -0.388 OA
ATOM     26  H   UNL     1      -1.103   1.525  22.470  0.00  0.00    +0.210 HD
ENDBRANCH   9   3
BRANCH   8   6
ATOM      6  N   UNL     1      -0.027   0.269  24.903  0.00  0.00    -0.305 NA
ATOM     25  H   UNL     1       0.767  -0.228  25.308  0.00  0.00    +0.123 HD
BRANCH   6  13
ATOM     13  C   UNL     1      -1.193   0.068  25.755  0.00  0.00    +0.120 C 
BRANCH  13  14
ATOM     14  C   UNL     1      -2.209  -0.837  25.111  0.00  0.00    +0.008 A 
ATOM     16  C   UNL     1      -1.907  -2.172  24.843  0.00  0.00    +0.121 A 
ATOM     17  C   UNL     1      -3.464  -0.327  24.780  0.00  0.00    +0.008 A 
ATOM     19  C   UNL     1      -2.860  -2.997  24.246  0.00  0.00    +0.046 A 
ATOM     20  C   UNL     1      -4.417  -1.152  24.182  0.00  0.00    +0.001 A 
ATOM     21  C   UNL     1      -4.115  -2.487  23.915  0.00  0.00    +0.004 A 
BRANCH  16   5
ATOM      5  O   UNL     1      -0.686  -2.687  25.158  0.00  0.00    -0.506 OA
ATOM     28  H   UNL     1      -0.394  -2.316  26.010  0.00  0.00    +0.292 HD
ENDBRANCH  16   5
ENDBRANCH  13  14
ENDBRANCH   6  13
ENDBRANCH   8   6
BRANCH  10  12
ATOM     12  C   UNL     1      -1.586   4.869  24.606  0.00  0.00    +0.138 C 
BRANCH  12   7
ATOM      4  O   UNL     1      -2.979   3.934  26.936  0.00  0.00    -0.270 OA
ATOM      7  N   UNL     1      -2.836   4.165  24.632  0.00  0.00    -0.308 N 
ATOM     15  C   UNL     1      -3.441   3.748  25.813  0.00  0.00    +0.251 C 
ATOM     27  H   UNL     1      -3.269   3.965  23.737  0.00  0.00    +0.149 HD
BRANCH  15  18
ATOM      1  S   UNL     1      -5.223   2.509  24.108  0.00  0.00    -0.092 S 
ATOM     18  C   UNL     1      -4.721   3.008  25.668  0.00  0.00    +0.074 A 
ATOM     22  C   UNL     1      -5.622   2.639  26.642  0.00  0.00    +0.021 A 
ATOM     23  C   UNL     1      -6.737   1.937  26.102  0.00  0.00    +0.008 A 
ATOM     24  C   UNL     1      -6.648   1.796  24.735  0.00  0.00    +0.046 A 
ENDBRANCH  15  18
ENDBRANCH  12   7
ENDBRANCH  10  12
TORSDOF 8
ENDMDL
MODEL 4
REMARK VINA RESULT:      -3.9      2.982      5.060
REMARK  Name = 75536602
REMARK  8 active torsions:
REMARK  status: ('A' for Active; 'I' for Inactive)
REMARK    1  A    between atoms: O_3  and  C_9
REMARK    2  A    between atoms: O_5  and  C_16
REMARK    3  A    between atoms: N_6  and  C_8
REMARK    4  A    between atoms: N_6  and  C_13
REMARK    5  A    between atoms: N_7  and  C_12
REMARK    6  A    between atoms: C_10  and  C_12
REMARK    7  A    between atoms: C_13  and  C_14
REMARK    8  A    between atoms: C_15  and  C_18
REMARK                            x       y       z     vdW  Elec       q    Type
REMARK                         _______ _______ _______ _____ _____    ______ ____
ROOT
ATOM      2  O   UNL     1      -0.765  -0.163  25.504  0.00  0.00    -0.371 OA
ATOM      8  C   UNL     1      -2.931  -1.116  25.696  0.00  0.00    +0.111 C 
ATOM      9  C   UNL     1      -2.382  -1.410  24.311  0.00  0.00    +0.164 C 
ATOM     10  C   UNL     1      -0.889  -1.225  24.543  0.00  0.00    +0.165 C 
ATOM     11  C   UNL     1      -2.043   0.036  26.133  0.00  0.00    +0.181 C 
ENDROOT
BRANCH   9   3
ATOM      3  O   UNL     1      -2.690  -2.718  23.868  0.00  0.00    -0.388 OA
ATOM     26  H   UNL     1      -3.386  -3.079  24.443  0.00  0.00    +0.210 HD
ENDBRANCH   9   3
BRANCH   8   6
ATOM      6  N   UNL     1      -4.345  -0.775  25.702  0.00  0.00    -0.305 NA
ATOM     25  H   UNL     1      -4.539  -0.177  26.507  0.00  0.00    +0.123 HD
BRANCH   6  13
ATOM     13  C   UNL     1      -4.720  -0.065  24.486  0.00  0.00    +0.120 C 
BRANCH  13  14
ATOM     14  C   UNL     1      -4.695   1.428  24.677  0.00  0.00    +0.008 A 
ATOM     16  C   UNL     1      -3.798   2.223  23.963  0.00  0.00    +0.121 A 
ATOM     17  C   UNL     1      -5.580   2.015  25.579  0.00  0.00    +0.008 A 
ATOM     19  C   UNL     1      -3.787   3.604  24.152  0.00  0.00    +0.046 A 
ATOM     20  C   UNL     1      -5.570   3.397  25.769  0.00  0.00    +0.001 A 
ATOM     21  C   UNL     1      -4.673   4.192  25.055  0.00  0.00    +0.004 A 
BRANCH  16   5
ATOM      5  O   UNL     1      -2.925   1.665  23.078  0.00  0.00    -0.506 OA
ATOM     28  H   UNL     1      -2.050   2.075  23.193  0.00  0.00    +0.292 HD
ENDBRANCH  16   5
ENDBRANCH  13  14
ENDBRANCH   6  13
ENDBRANCH   8   6
BRANCH  10  12
ATOM     12  C   UNL     1      -0.125  -0.867  23.282  0.00  0.00    +0.138 C 
BRANCH  12   7
ATOM      4  O   UNL     1       1.920  -0.218  21.374  0.00  0.00    -0.270 OA
ATOM      7  N   UNL     1       1.262  -0.631  23.560  0.00  0.00    -0.308 N 
ATOM     15  C   UNL     1       2.188  -0.321  22.569  0.00  0.00    +0.251 C 
ATOM     27  H   UNL     1       1.557  -0.713  24.527  0.00  0.00    +0.149 HD
BRANCH  15  18
ATOM      1  S   UNL     1       4.403  -1.427  23.789  0.00  0.00    -0.092 S 
ATOM     18  C   UNL     1       3.591  -0.130  23.018  0.00  0.00    +0.074 A 
ATOM     22  C   UNL     1       4.390   0.987  22.908  0.00  0.00    +0.021 A 
ATOM     23  C   UNL     1       5.684   0.775  23.464  0.00  0.00    +0.008 A 
ATOM     24  C   UNL     1       5.827  -0.495  23.977  0.00  0.00    +0.046 A 
ENDBRANCH  15  18
ENDBRANCH  12   7
ENDBRANCH  10  12
TORSDOF 8
ENDMDL
MODEL 5
REMARK VINA RESULT:      -3.8      1.853      4.456
REMARK  Name = 75536602
REMARK  8 active torsions:
REMARK  status: ('A' for Active; 'I' for Inactive)
REMARK    1  A    between atoms: O_3  and  C_9
REMARK    2  A    between atoms: O_5  and  C_16
REMARK    3  A    between atoms: N_6  and  C_8
REMARK    4  A    between atoms: N_6  and  C_13
REMARK    5  A    between atoms: N_7  and  C_12
REMARK    6  A    between atoms: C_10  and  C_12
REMARK    7  A    between atoms: C_13  and  C_14
REMARK    8  A    between atoms: C_15  and  C_18
REMARK                            x       y       z     vdW  Elec       q    Type
REMARK                         _______ _______ _______ _____ _____    ______ ____
ROOT
ATOM      2  O   UNL     1      -4.290   3.600  26.804  0.00  0.00    -0.371 OA
ATOM      8  C   UNL     1      -2.479   4.321  25.446  0.00  0.00    +0.111 C 
ATOM      9  C   UNL     1      -3.522   3.655  24.567  0.00  0.00    +0.164 C 
ATOM     10  C   UNL     1      -4.756   3.752  25.453  0.00  0.00    +0.165 C 
ATOM     11  C   UNL     1      -2.865   3.797  26.819  0.00  0.00    +0.181 C 
ENDROOT
BRANCH   9   3
ATOM      3  O   UNL     1      -3.703   4.324  23.334  0.00  0.00    -0.388 OA
ATOM     26  H   UNL     1      -4.640   4.257  23.085  0.00  0.00    +0.210 HD
ENDBRANCH   9   3
BRANCH   8   6
ATOM      6  N   UNL     1      -1.111   3.992  25.079  0.00  0.00    -0.305 NA
ATOM     25  H   UNL     1      -0.532   4.828  25.170  0.00  0.00    +0.123 HD
BRANCH   6  13
ATOM     13  C   UNL     1      -0.571   2.949  25.942  0.00  0.00    +0.120 C 
BRANCH  13  14
ATOM     14  C   UNL     1      -0.291   1.680  25.181  0.00  0.00    +0.008 A 
ATOM     16  C   UNL     1       0.429   1.710  23.987  0.00  0.00    +0.121 A 
ATOM     17  C   UNL     1      -0.761   0.467  25.682  0.00  0.00    +0.008 A 
ATOM     19  C   UNL     1       0.680   0.525  23.294  0.00  0.00    +0.046 A 
ATOM     20  C   UNL     1      -0.511  -0.718  24.989  0.00  0.00    +0.001 A 
ATOM     21  C   UNL     1       0.210  -0.689  23.795  0.00  0.00    +0.004 A 
BRANCH  16   5
ATOM      5  O   UNL     1       0.894   2.887  23.483  0.00  0.00    -0.506 OA
ATOM     28  H   UNL     1       1.609   2.701  22.850  0.00  0.00    +0.292 HD
ENDBRANCH  16   5
ENDBRANCH  13  14
ENDBRANCH   6  13
ENDBRANCH   8   6
BRANCH  10  12
ATOM     12  C   UNL     1      -5.800   2.692  25.148  0.00  0.00    +0.138 C 
BRANCH  12   7
ATOM      4  O   UNL     1      -4.025   1.228  23.431  0.00  0.00    -0.270 OA
ATOM      7  N   UNL     1      -5.285   1.373  25.374  0.00  0.00    -0.308 N 
ATOM     15  C   UNL     1      -4.426   0.737  24.483  0.00  0.00    +0.251 C 
ATOM     27  H   UNL     1      -5.586   0.900  26.219  0.00  0.00    +0.149 HD
BRANCH  15  18
ATOM      1  S   UNL     1      -4.033  -1.867  23.655  0.00  0.00    -0.092 S 
ATOM     18  C   UNL     1      -4.002  -0.640  24.849  0.00  0.00    +0.074 A 
ATOM     22  C   UNL     1      -3.566  -1.114  26.066  0.00  0.00    +0.021 A 
ATOM     23  C   UNL     1      -3.251  -2.503  26.017  0.00  0.00    +0.008 A 
ATOM     24  C   UNL     1      -3.460  -3.037  24.764  0.00  0.00    +0.046 A 
ENDBRANCH  15  18
ENDBRANCH  12   7
ENDBRANCH  10  12
TORSDOF 8
ENDMDL
MODEL 6
REMARK VINA RESULT:      -3.8      2.756      6.900
REMARK  Name = 75536602
REMARK  8 active torsions:
REMARK  status: ('A' for Active; 'I' for Inactive)
REMARK    1  A    between atoms: O_3  and  C_9
REMARK    2  A    between atoms: O_5  and  C_16
REMARK    3  A    between atoms: N_6  and  C_8
REMARK    4  A    between atoms: N_6  and  C_13
REMARK    5  A    between atoms: N_7  and  C_12
REMARK    6  A    between atoms: C_10  and  C_12
REMARK    7  A    between atoms: C_13  and  C_14
REMARK    8  A    between atoms: C_15  and  C_18
REMARK                            x       y       z     vdW  Elec       q    Type
REMARK                         _______ _______ _______ _____ _____    ______ ____
ROOT
ATOM      2  O   UNL     1      -1.678  -2.661  24.003  0.00  0.00    -0.371 OA
ATOM      8  C   UNL     1      -0.004  -1.034  24.440  0.00  0.00    +0.111 C 
ATOM      9  C   UNL     1      -1.223  -0.732  25.293  0.00  0.00    +0.164 C 
ATOM     10  C   UNL     1      -1.920  -2.084  25.297  0.00  0.00    +0.165 C 
ATOM     11  C   UNL     1      -0.599  -1.944  23.378  0.00  0.00    +0.181 C 
ENDROOT
BRANCH   9   3
ATOM      3  O   UNL     1      -0.883  -0.308  26.599  0.00  0.00    -0.388 OA
ATOM     26  H   UNL     1      -1.417   0.475  26.815  0.00  0.00    +0.210 HD
ENDBRANCH   9   3
BRANCH   8   6
ATOM      6  N   UNL     1       0.625   0.152  23.880  0.00  0.00    -0.305 NA
ATOM     25  H   UNL     1       1.197   0.596  24.600  0.00  0.00    +0.123 HD
BRANCH   6  13
ATOM     13  C   UNL     1       1.475  -0.190  22.747  0.00  0.00    +0.120 C 
BRANCH  13  14
ATOM     14  C   UNL     1       2.927  -0.263  23.136  0.00  0.00    +0.008 A 
ATOM     16  C   UNL     1       3.733   0.874  23.102  0.00  0.00    +0.121 A 
ATOM     17  C   UNL     1       3.465  -1.487  23.534  0.00  0.00    +0.008 A 
ATOM     19  C   UNL     1       5.077   0.789  23.466  0.00  0.00    +0.046 A 
ATOM     20  C   UNL     1       4.810  -1.573  23.898  0.00  0.00    +0.001 A 
ATOM     21  C   UNL     1       5.615  -0.435  23.864  0.00  0.00    +0.004 A 
BRANCH  16   5
ATOM      5  O   UNL     1       3.224   2.077  22.715  0.00  0.00    -0.506 OA
ATOM     28  H   UNL     1       3.903   2.565  22.217  0.00  0.00    +0.292 HD
ENDBRANCH  16   5
ENDBRANCH  13  14
ENDBRANCH   6  13
ENDBRANCH   8   6
BRANCH  10  12
ATOM     12  C   UNL     1      -3.415  -1.989  25.545  0.00  0.00    +0.138 C 
BRANCH  12   7
ATOM      4  O   UNL     1      -4.044  -0.146  23.436  0.00  0.00    -0.270 OA
ATOM      7  N   UNL     1      -3.834  -0.626  25.696  0.00  0.00    -0.308 N 
ATOM     15  C   UNL     1      -4.119   0.199  24.612  0.00  0.00    +0.251 C 
ATOM     27  H   UNL     1      -3.904  -0.269  26.643  0.00  0.00    +0.149 HD
BRANCH  15  18
ATOM      1  S   UNL     1      -3.383   2.858  24.702  0.00  0.00    -0.092 S 
ATOM     18  C   UNL     1      -4.515   1.594  24.936  0.00  0.00    +0.074 A 
ATOM     22  C   UNL     1      -5.716   2.060  25.424  0.00  0.00    +0.021 A 
ATOM     23  C   UNL     1      -5.707   3.473  25.607  0.00  0.00    +0.008 A 
ATOM     24  C   UNL     1      -4.499   4.033  25.252  0.00  0.00    +0.046 A 
ENDBRANCH  15  18
ENDBRANCH  12   7
ENDBRANCH  10  12
TORSDOF 8
ENDMDL
MODEL 7
REMARK VINA RESULT:      -3.4      1.882      4.780
REMARK  Name = 75536602
REMARK  8 active torsions:
REMARK  status: ('A' for Active; 'I' for Inactive)
REMARK    1  A    between atoms: O_3  and  C_9
REMARK    2  A    between atoms: O_5  and  C_16
REMARK    3  A    between atoms: N_6  and  C_8
REMARK    4  A    between atoms: N_6  and  C_13
REMARK    5  A    between atoms: N_7  and  C_12
REMARK    6  A    between atoms: C_10  and  C_12
REMARK    7  A    between atoms: C_13  and  C_14
REMARK    8  A    between atoms: C_15  and  C_18
REMARK                            x       y       z     vdW  Elec       q    Type
REMARK                         _______ _______ _______ _____ _____    ______ ____
ROOT
ATOM      2  O   UNL     1      -1.330  -2.095  23.580  0.00  0.00    -0.371 OA
ATOM      8  C   UNL     1       0.064  -0.564  24.743  0.00  0.00    +0.111 C 
ATOM      9  C   UNL     1      -1.214  -0.770  25.535  0.00  0.00    +0.164 C 
ATOM     10  C   UNL     1      -1.700  -2.096  24.969  0.00  0.00    +0.165 C 
ATOM     11  C   UNL     1      -0.350  -1.064  23.369  0.00  0.00    +0.181 C 
ENDROOT
BRANCH   9   3
ATOM      3  O   UNL     1      -0.987  -0.842  26.929  0.00  0.00    -0.388 OA
ATOM     26  H   UNL     1      -1.592  -0.223  27.370  0.00  0.00    +0.210 HD
ENDBRANCH   9   3
BRANCH   8   6
ATOM      6  N   UNL     1       0.527   0.814  24.728  0.00  0.00    -0.305 NA
ATOM     25  H   UNL     1       1.495   0.837  24.406  0.00  0.00    +0.123 HD
BRANCH   6  13
ATOM     13  C   UNL     1      -0.286   1.632  23.837  0.00  0.00    +0.120 C 
BRANCH  13  14
ATOM     14  C   UNL     1      -0.880   2.818  24.549  0.00  0.00    +0.008 A 
ATOM     16  C   UNL     1      -0.604   4.117  24.123  0.00  0.00    +0.121 A 
ATOM     17  C   UNL     1      -1.713   2.606  25.647  0.00  0.00    +0.008 A 
ATOM     19  C   UNL     1      -1.162   5.205  24.794  0.00  0.00    +0.046 A 
ATOM     20  C   UNL     1      -2.272   3.695  26.318  0.00  0.00    +0.001 A 
ATOM     21  C   UNL     1      -1.996   4.994  25.892  0.00  0.00    +0.004 A 
BRANCH  16   5
ATOM      5  O   UNL     1       0.209   4.341  23.053  0.00  0.00    -0.506 OA
ATOM     28  H   UNL     1      -0.299   4.209  22.234  0.00  0.00    +0.292 HD
ENDBRANCH  16   5
ENDBRANCH  13  14
ENDBRANCH   6  13
ENDBRANCH   8   6
BRANCH  10  12
ATOM     12  C   UNL     1      -3.199  -2.293  25.100  0.00  0.00    +0.138 C 
BRANCH  12   7
ATOM      4  O   UNL     1      -3.909  -0.226  23.239  0.00  0.00    -0.270 OA
ATOM      7  N   UNL     1      -3.864  -1.059  25.404  0.00  0.00    -0.308 N 
ATOM     15  C   UNL     1      -4.170  -0.110  24.433  0.00  0.00    +0.251 C 
ATOM     27  H   UNL     1      -4.098  -0.890  26.376  0.00  0.00    +0.149 HD
BRANCH  15  18
ATOM      1  S   UNL     1      -4.558   2.600  24.085  0.00  0.00    -0.092 S 
ATOM     18  C   UNL     1      -4.836   1.128  24.914  0.00  0.00    +0.074 A 
ATOM     22  C   UNL     1      -5.690   1.291  25.982  0.00  0.00    +0.021 A 
ATOM     23  C   UNL     1      -6.122   2.641  26.121  0.00  0.00    +0.008 A 
ATOM     24  C   UNL     1      -5.582   3.460  25.154  0.00  0.00    +0.046 A 
ENDBRANCH  15  18
ENDBRANCH  12   7
ENDBRANCH  10  12
TORSDOF 8
ENDMDL
MODEL 8
REMARK VINA RESULT:      -3.4     15.052     16.785
REMARK  Name = 75536602
REMARK  8 active torsions:
REMARK  status: ('A' for Active; 'I' for Inactive)
REMARK    1  A    between atoms: O_3  and  C_9
REMARK    2  A    between atoms: O_5  and  C_16
REMARK    3  A    between atoms: N_6  and  C_8
REMARK    4  A    between atoms: N_6  and  C_13
REMARK    5  A    between atoms: N_7  and  C_12
REMARK    6  A    between atoms: C_10  and  C_12
REMARK    7  A    between atoms: C_13  and  C_14
REMARK    8  A    between atoms: C_15  and  C_18
REMARK                            x       y       z     vdW  Elec       q    Type
REMARK                         _______ _______ _______ _____ _____    ______ ____
ROOT
ATOM      2  O   UNL     1      -2.845 -10.559  14.276  0.00  0.00    -0.371 OA
ATOM      8  C   UNL     1      -4.826 -10.781  15.567  0.00  0.00    +0.111 C 
ATOM      9  C   UNL     1      -5.186 -10.229  14.200  0.00  0.00    +0.164 C 
ATOM     10  C   UNL     1      -3.970 -10.647  13.385  0.00  0.00    +0.165 C 
ATOM     11  C   UNL     1      -3.336 -10.490  15.626  0.00  0.00    +0.181 C 
ENDROOT
BRANCH   9   3
ATOM      3  O   UNL     1      -6.382 -10.781  13.686  0.00  0.00    -0.388 OA
ATOM     26  H   UNL     1      -7.116 -10.184  13.910  0.00  0.00    +0.210 HD
ENDBRANCH   9   3
BRANCH   8   6
ATOM      6  N   UNL     1      -5.566 -10.168  16.658  0.00  0.00    -0.305 NA
ATOM     25  H   UNL     1      -4.914  -9.666  17.262  0.00  0.00    +0.123 HD
BRANCH   6  13
ATOM     13  C   UNL     1      -6.562  -9.230  16.156  0.00  0.00    +0.120 C 
BRANCH  13  14
ATOM     14  C   UNL     1      -7.925  -9.494  16.738  0.00  0.00    +0.008 A 
ATOM     16  C   UNL     1      -9.078  -9.251  15.992  0.00  0.00    +0.121 A 
ATOM     17  C   UNL     1      -8.027  -9.988  18.038  0.00  0.00    +0.008 A 
ATOM     19  C   UNL     1     -10.333  -9.501  16.547  0.00  0.00    +0.046 A 
ATOM     20  C   UNL     1      -9.283 -10.238  18.593  0.00  0.00    +0.001 A 
ATOM     21  C   UNL     1     -10.436  -9.995  17.847  0.00  0.00    +0.004 A 
BRANCH  16   5
ATOM      5  O   UNL     1      -8.997  -8.768  14.721  0.00  0.00    -0.506 OA
ATOM     28  H   UNL     1      -9.870  -8.435  14.451  0.00  0.00    +0.292 HD
ENDBRANCH  16   5
ENDBRANCH  13  14
ENDBRANCH   6  13
ENDBRANCH   8   6
BRANCH  10  12
ATOM     12  C   UNL     1      -3.732  -9.771  12.169  0.00  0.00    +0.138 C 
BRANCH  12   7
ATOM      4  O   UNL     1      -4.112  -8.994   9.431  0.00  0.00    -0.270 OA
ATOM      7  N   UNL     1      -4.968  -9.385  11.552  0.00  0.00    -0.308 N 
ATOM     15  C   UNL     1      -5.060  -9.022  10.212  0.00  0.00    +0.251 C 
ATOM     27  H   UNL     1      -5.792  -9.372  12.143  0.00  0.00    +0.149 HD
BRANCH  15  18
ATOM      1  S   UNL     1      -7.790  -9.378  10.406  0.00  0.00    -0.092 S 
ATOM     18  C   UNL     1      -6.408  -8.623   9.732  0.00  0.00    +0.074 A 
ATOM     22  C   UNL     1      -6.744  -7.691   8.776  0.00  0.00    +0.021 A 
ATOM     23  C   UNL     1      -8.154  -7.594   8.595  0.00  0.00    +0.008 A 
ATOM     24  C   UNL     1      -8.843  -8.457   9.419  0.00  0.00    +0.046 A 
ENDBRANCH  15  18
ENDBRANCH  12   7
ENDBRANCH  10  12
TORSDOF 8
ENDMDL
MODEL 9
REMARK VINA RESULT:      -3.2      2.160      5.508
REMARK  Name = 75536602
REMARK  8 active torsions:
REMARK  status: ('A' for Active; 'I' for Inactive)
REMARK    1  A    between atoms: O_3  and  C_9
REMARK    2  A    between atoms: O_5  and  C_16
REMARK    3  A    between atoms: N_6  and  C_8
REMARK    4  A    between atoms: N_6  and  C_13
REMARK    5  A    between atoms: N_7  and  C_12
REMARK    6  A    between atoms: C_10  and  C_12
REMARK    7  A    between atoms: C_13  and  C_14
REMARK    8  A    between atoms: C_15  and  C_18
REMARK                            x       y       z     vdW  Elec       q    Type
REMARK                         _______ _______ _______ _____ _____    ______ ____
ROOT
ATOM      2  O   UNL     1      -2.303  -2.976  23.653  0.00  0.00    -0.371 OA
ATOM      8  C   UNL     1      -0.911  -1.871  25.228  0.00  0.00    +0.111 C 
ATOM      9  C   UNL     1      -2.321  -1.318  25.340  0.00  0.00    +0.164 C 
ATOM     10  C   UNL     1      -3.127  -2.441  24.703  0.00  0.00    +0.165 C 
ATOM     11  C   UNL     1      -0.953  -2.526  23.858  0.00  0.00    +0.181 C 
ENDROOT
BRANCH   9   3
ATOM      3  O   UNL     1      -2.710  -1.082  26.679  0.00  0.00    -0.388 OA
ATOM     26  H   UNL     1      -1.907  -0.954  27.212  0.00  0.00    +0.210 HD
ENDBRANCH   9   3
BRANCH   8   6
ATOM      6  N   UNL     1       0.125  -0.856  25.340  0.00  0.00    -0.305 NA
ATOM     25  H   UNL     1       1.034  -1.315  25.409  0.00  0.00    +0.123 HD
BRANCH   6  13
ATOM     13  C   UNL     1       0.127   0.022  24.177  0.00  0.00    +0.120 C 
BRANCH  13  14
ATOM     14  C   UNL     1      -0.180   1.448  24.550  0.00  0.00    +0.008 A 
ATOM     16  C   UNL     1      -0.484   1.791  25.868  0.00  0.00    +0.121 A 
ATOM     17  C   UNL     1      -0.157   2.431  23.562  0.00  0.00    +0.008 A 
ATOM     19  C   UNL     1      -0.766   3.116  26.196  0.00  0.00    +0.046 A 
ATOM     20  C   UNL     1      -0.439   3.758  23.891  0.00  0.00    +0.001 A 
ATOM     21  C   UNL     1      -0.744   4.100  25.208  0.00  0.00    +0.004 A 
BRANCH  16   5
ATOM      5  O   UNL     1      -0.511   0.842  26.845  0.00  0.00    -0.506 OA
ATOM     28  H   UNL     1      -0.650   1.276  27.705  0.00  0.00    +0.292 HD
ENDBRANCH  16   5
ENDBRANCH  13  14
ENDBRANCH   6  13
ENDBRANCH   8   6
BRANCH  10  12
ATOM     12  C   UNL     1      -4.453  -1.977  24.128  0.00  0.00    +0.138 C 
BRANCH  12   7
ATOM      4  O   UNL     1      -3.328   0.443  23.070  0.00  0.00    -0.270 OA
ATOM      7  N   UNL     1      -4.761  -0.638  24.540  0.00  0.00    -0.308 N 
ATOM     15  C   UNL     1      -4.165   0.481  23.969  0.00  0.00    +0.251 C 
ATOM     27  H   UNL     1      -5.436  -0.532  25.289  0.00  0.00    +0.149 HD
BRANCH  15  18
ATOM      1  S   UNL     1      -6.039   1.912  25.403  0.00  0.00    -0.092 S 
ATOM     18  C   UNL     1      -4.573   1.798  24.525  0.00  0.00    +0.074 A 
ATOM     22  C   UNL     1      -3.925   3.010  24.442  0.00  0.00    +0.021 A 
ATOM     23  C   UNL     1      -4.640   4.046  25.108  0.00  0.00    +0.008 A 
ATOM     24  C   UNL     1      -5.809   3.587  25.675  0.00  0.00    +0.046 A 
ENDBRANCH  15  18
ENDBRANCH  12   7
ENDBRANCH  10  12
TORSDOF 8
ENDMDL
MODEL 10
REMARK VINA RESULT:      -2.6     15.646     17.760
REMARK  Name = 75536602
REMARK  8 active torsions:
REMARK  status: ('A' for Active; 'I' for Inactive)
REMARK    1  A    between atoms: O_3  and  C_9
REMARK    2  A    between atoms: O_5  and  C_16
REMARK    3  A    between atoms: N_6  and  C_8
REMARK    4  A    between atoms: N_6  and  C_13
REMARK    5  A    between atoms: N_7  and  C_12
REMARK    6  A    between atoms: C_10  and  C_12
REMARK    7  A    between atoms: C_13  and  C_14
REMARK    8  A    between atoms: C_15  and  C_18
REMARK                            x       y       z     vdW  Elec       q    Type
REMARK                         _______ _______ _______ _____ _____    ______ ____
ROOT
ATOM      2  O   UNL     1      -3.956  -8.645  10.420  0.00  0.00    -0.371 OA
ATOM      8  C   UNL     1      -6.313  -8.708  10.143  0.00  0.00    +0.111 C 
ATOM      9  C   UNL     1      -5.853 -10.014  10.764  0.00  0.00    +0.164 C 
ATOM     10  C   UNL     1      -4.503  -9.607  11.337  0.00  0.00    +0.165 C 
ATOM     11  C   UNL     1      -5.013  -8.174   9.566  0.00  0.00    +0.181 C 
ENDROOT
BRANCH   9   3
ATOM      3  O   UNL     1      -6.734 -10.482  11.767  0.00  0.00    -0.388 OA
ATOM     26  H   UNL     1      -6.743  -9.834  12.491  0.00  0.00    +0.210 HD
ENDBRANCH   9   3
BRANCH   8   6
ATOM      6  N   UNL     1      -7.353  -8.872   9.139  0.00  0.00    -0.305 NA
ATOM     25  H   UNL     1      -8.264  -8.852   9.597  0.00  0.00    +0.123 HD
BRANCH   6  13
ATOM     13  C   UNL     1      -7.300  -7.805   8.148  0.00  0.00    +0.120 C 
BRANCH  13  14
ATOM     14  C   UNL     1      -8.375  -6.776   8.374  0.00  0.00    +0.008 A 
ATOM     16  C   UNL     1      -9.712  -7.156   8.496  0.00  0.00    +0.121 A 
ATOM     17  C   UNL     1      -8.023  -5.430   8.461  0.00  0.00    +0.008 A 
ATOM     19  C   UNL     1     -10.696  -6.190   8.705  0.00  0.00    +0.046 A 
ATOM     20  C   UNL     1      -9.008  -4.463   8.670  0.00  0.00    +0.001 A 
ATOM     21  C   UNL     1     -10.344  -4.843   8.792  0.00  0.00    +0.004 A 
BRANCH  16   5
ATOM      5  O   UNL     1     -10.073  -8.467   8.412  0.00  0.00    -0.506 OA
ATOM     28  H   UNL     1     -10.347  -8.778   9.293  0.00  0.00    +0.292 HD
ENDBRANCH  16   5
ENDBRANCH  13  14
ENDBRANCH   6  13
ENDBRANCH   8   6
BRANCH  10  12
ATOM     12  C   UNL     1      -3.542 -10.770  11.496  0.00  0.00    +0.138 C 
BRANCH  12   7
ATOM      4  O   UNL     1      -4.915 -10.583  14.010  0.00  0.00    -0.270 OA
ATOM      7  N   UNL     1      -2.945 -10.781  12.800  0.00  0.00    -0.308 N 
ATOM     15  C   UNL     1      -3.691 -10.685  13.970  0.00  0.00    +0.251 C 
ATOM     27  H   UNL     1      -1.934 -10.849  12.843  0.00  0.00    +0.149 HD
BRANCH  15  18
ATOM      1  S   UNL     1      -3.765 -10.781  16.728  0.00  0.00    -0.092 S 
ATOM     18  C   UNL     1      -2.921 -10.684  15.241  0.00  0.00    +0.074 A 
ATOM     22  C   UNL     1      -1.558 -10.612  15.425  0.00  0.00    +0.021 A 
ATOM     23  C   UNL     1      -1.202 -10.638  16.804  0.00  0.00    +0.008 A 
ATOM     24  C   UNL     1      -2.307 -10.728  17.623  0.00  0.00    +0.046 A 
ENDBRANCH  15  18
ENDBRANCH  12   7
ENDBRANCH  10  12
TORSDOF 8
ENDMDL
