MODEL 1
REMARK VINA RESULT:      -2.2      0.000      0.000
REMARK  Name = 75367749
REMARK  7 active torsions:
REMARK  status: ('A' for Active; 'I' for Inactive)
REMARK    1  A    between atoms: O_2  and  C_8
REMARK    2  A    between atoms: O_2  and  C_15
REMARK    3  A    between atoms: O_4  and  C_24
REMARK    4  A    between atoms: O_4  and  C_25
REMARK    5  A    between atoms: N_6  and  C_18
REMARK    6  A    between atoms: C_13  and  C_14
REMARK    7  A    between atoms: C_17  and  C_21
REMARK                            x       y       z     vdW  Elec       q    Type
REMARK                         _______ _______ _______ _____ _____    ______ ____
ROOT
ATOM      1  O   UNL     1      -0.905  -3.041  25.331  0.00  0.00    -0.375 OA
ATOM      3  O   UNL     1      -4.982  -0.997  23.251  0.00  0.00    -0.268 OA
ATOM      5  N   UNL     1      -3.352  -1.285  24.911  0.00  0.00    -0.291 N 
ATOM      8  C   UNL     1      -1.059  -0.542  25.452  0.00  0.00    +0.216 C 
ATOM      9  C   UNL     1      -2.489  -0.714  25.958  0.00  0.00    +0.155 C 
ATOM     10  C   UNL     1      -3.187  -2.715  24.640  0.00  0.00    +0.136 C 
ATOM     11  C   UNL     1      -0.213  -1.817  25.541  0.00  0.00    +0.206 C 
ATOM     12  C   UNL     1      -1.770  -3.067  24.202  0.00  0.00    +0.179 C 
ATOM     13  C   UNL     1      -4.272  -0.550  24.151  0.00  0.00    +0.265 C 
ENDROOT
BRANCH  13  14
ATOM      6  N   UNL     1      -3.762   1.888  23.791  0.00  0.00    -0.262 N 
ATOM      7  N   UNL     1      -4.073   3.116  24.241  0.00  0.00    -0.176 NA
ATOM     14  C   UNL     1      -4.419   0.882  24.436  0.00  0.00    +0.123 A 
ATOM     16  C   UNL     1      -5.213   1.494  25.375  0.00  0.00    +0.057 A 
ATOM     17  C   UNL     1      -4.959   2.868  25.208  0.00  0.00    +0.061 A 
ATOM     18  C   UNL     1      -2.809   1.751  22.714  0.00  0.00    +0.173 C 
ATOM     21  C   UNL     1      -5.550   3.987  25.962  0.00  0.00    +0.067 C 
ENDBRANCH  13  14
BRANCH   8   2
ATOM      2  O   UNL     1      -0.424   0.488  26.207  0.00  0.00    -0.485 OA
BRANCH   2  15
ATOM     15  C   UNL     1      -0.551   1.763  25.727  0.00  0.00    +0.121 A 
ATOM     19  C   UNL     1      -1.383   2.674  26.378  0.00  0.00    +0.049 A 
ATOM     20  C   UNL     1       0.152   2.152  24.587  0.00  0.00    +0.049 A 
ATOM     22  C   UNL     1      -1.512   3.973  25.890  0.00  0.00    +0.049 A 
ATOM     23  C   UNL     1       0.022   3.453  24.098  0.00  0.00    +0.049 A 
ATOM     24  C   UNL     1      -0.809   4.363  24.749  0.00  0.00    +0.120 A 
BRANCH  24   4
ATOM      4  O   UNL     1      -0.936   5.632  24.273  0.00  0.00    -0.495 OA
ATOM     25  C   UNL     1      -1.987   6.428  24.817  0.00  0.00    +0.277 C 
ENDBRANCH  24   4
ENDBRANCH   2  15
ENDBRANCH   8   2
TORSDOF 4
ENDMDL
MODEL 2
REMARK VINA RESULT:      -1.5      1.841      6.014
REMARK  Name = 75367749
REMARK  7 active torsions:
REMARK  status: ('A' for Active; 'I' for Inactive)
REMARK    1  A    between atoms: O_2  and  C_8
REMARK    2  A    between atoms: O_2  and  C_15
REMARK    3  A    between atoms: O_4  and  C_24
REMARK    4  A    between atoms: O_4  and  C_25
REMARK    5  A    between atoms: N_6  and  C_18
REMARK    6  A    between atoms: C_13  and  C_14
REMARK    7  A    between atoms: C_17  and  C_21
REMARK                            x       y       z     vdW  Elec       q    Type
REMARK                         _______ _______ _______ _____ _____    ______ ____
ROOT
ATOM      1  O   UNL     1      -6.001   3.474  26.202  0.00  0.00    -0.375 OA
ATOM      3  O   UNL     1      -1.353   4.540  24.655  0.00  0.00    -0.268 OA
ATOM      5  N   UNL     1      -3.051   3.176  25.524  0.00  0.00    -0.291 N 
ATOM      8  C   UNL     1      -4.911   1.752  24.742  0.00  0.00    +0.216 C 
ATOM      9  C   UNL     1      -3.682   1.852  25.642  0.00  0.00    +0.155 C 
ATOM     10  C   UNL     1      -3.735   4.285  26.193  0.00  0.00    +0.136 C 
ATOM     11  C   UNL     1      -6.183   2.341  25.362  0.00  0.00    +0.206 C 
ATOM     12  C   UNL     1      -5.155   4.491  25.679  0.00  0.00    +0.179 C 
ATOM     13  C   UNL     1      -1.883   3.438  24.795  0.00  0.00    +0.265 C 
ENDROOT
BRANCH  13  14
ATOM      6  N   UNL     1      -1.618   1.733  22.962  0.00  0.00    -0.262 N 
ATOM      7  N   UNL     1      -0.834   0.718  22.561  0.00  0.00    -0.176 NA
ATOM     14  C   UNL     1      -1.215   2.314  24.129  0.00  0.00    +0.123 A 
ATOM     16  C   UNL     1      -0.090   1.629  24.519  0.00  0.00    +0.057 A 
ATOM     17  C   UNL     1       0.097   0.660  23.516  0.00  0.00    +0.061 A 
ATOM     18  C   UNL     1      -2.762   2.102  22.160  0.00  0.00    +0.173 C 
ATOM     21  C   UNL     1       1.166  -0.351  23.434  0.00  0.00    +0.067 C 
ENDBRANCH  13  14
BRANCH   8   2
ATOM      2  O   UNL     1      -5.142   0.379  24.429  0.00  0.00    -0.485 OA
BRANCH   2  15
ATOM     15  C   UNL     1      -4.081  -0.469  24.586  0.00  0.00    +0.121 A 
ATOM     19  C   UNL     1      -3.917  -1.548  23.717  0.00  0.00    +0.049 A 
ATOM     20  C   UNL     1      -3.163  -0.257  25.614  0.00  0.00    +0.049 A 
ATOM     22  C   UNL     1      -2.835  -2.413  23.876  0.00  0.00    +0.049 A 
ATOM     23  C   UNL     1      -2.081  -1.123  25.774  0.00  0.00    +0.049 A 
ATOM     24  C   UNL     1      -1.917  -2.201  24.905  0.00  0.00    +0.120 A 
BRANCH  24   4
ATOM      4  O   UNL     1      -0.861  -3.046  25.060  0.00  0.00    -0.495 OA
ATOM     25  C   UNL     1       0.281  -2.539  25.747  0.00  0.00    +0.277 C 
ENDBRANCH  24   4
ENDBRANCH   2  15
ENDBRANCH   8   2
TORSDOF 4
ENDMDL
MODEL 3
REMARK VINA RESULT:      -1.1      1.937      3.794
REMARK  Name = 75367749
REMARK  7 active torsions:
REMARK  status: ('A' for Active; 'I' for Inactive)
REMARK    1  A    between atoms: O_2  and  C_8
REMARK    2  A    between atoms: O_2  and  C_15
REMARK    3  A    between atoms: O_4  and  C_24
REMARK    4  A    between atoms: O_4  and  C_25
REMARK    5  A    between atoms: N_6  and  C_18
REMARK    6  A    between atoms: C_13  and  C_14
REMARK    7  A    between atoms: C_17  and  C_21
REMARK                            x       y       z     vdW  Elec       q    Type
REMARK                         _______ _______ _______ _____ _____    ______ ____
ROOT
ATOM      1  O   UNL     1      -4.351  -3.149  23.916  0.00  0.00    -0.375 OA
ATOM      3  O   UNL     1       0.118  -1.950  25.846  0.00  0.00    -0.268 OA
ATOM      5  N   UNL     1      -1.648  -1.811  24.311  0.00  0.00    -0.291 N 
ATOM      8  C   UNL     1      -3.838  -0.699  24.051  0.00  0.00    +0.216 C 
ATOM      9  C   UNL     1      -2.488  -1.006  23.409  0.00  0.00    +0.155 C 
ATOM     10  C   UNL     1      -2.002  -3.226  24.440  0.00  0.00    +0.136 C 
ATOM     11  C   UNL     1      -4.867  -1.825  23.898  0.00  0.00    +0.206 C 
ATOM     12  C   UNL     1      -3.422  -3.428  24.957  0.00  0.00    +0.179 C 
ATOM     13  C   UNL     1      -0.579  -1.306  25.063  0.00  0.00    +0.265 C 
ENDROOT
BRANCH  13  14
ATOM      6  N   UNL     1       0.473   0.662  23.897  0.00  0.00    -0.262 N 
ATOM      7  N   UNL     1       0.644   1.990  24.002  0.00  0.00    -0.176 NA
ATOM     14  C   UNL     1      -0.243   0.115  24.922  0.00  0.00    +0.123 A 
ATOM     16  C   UNL     1      -0.560   1.160  25.756  0.00  0.00    +0.057 A 
ATOM     17  C   UNL     1       0.011   2.289  25.139  0.00  0.00    +0.061 A 
ATOM     18  C   UNL     1       1.032  -0.036  22.762  0.00  0.00    +0.173 C 
ATOM     21  C   UNL     1      -0.026   3.683  25.611  0.00  0.00    +0.067 C 
ENDBRANCH  13  14
BRANCH   8   2
ATOM      2  O   UNL     1      -4.366   0.491  23.469  0.00  0.00    -0.485 OA
BRANCH   2  15
ATOM     15  C   UNL     1      -4.012   1.671  24.065  0.00  0.00    +0.121 A 
ATOM     19  C   UNL     1      -4.429   1.945  25.368  0.00  0.00    +0.049 A 
ATOM     20  C   UNL     1      -3.236   2.598  23.371  0.00  0.00    +0.049 A 
ATOM     22  C   UNL     1      -4.068   3.146  25.976  0.00  0.00    +0.049 A 
ATOM     23  C   UNL     1      -2.876   3.801  23.980  0.00  0.00    +0.049 A 
ATOM     24  C   UNL     1      -3.292   4.075  25.282  0.00  0.00    +0.120 A 
BRANCH  24   4
ATOM      4  O   UNL     1      -2.940   5.248  25.877  0.00  0.00    -0.495 OA
ATOM     25  C   UNL     1      -1.982   6.058  25.200  0.00  0.00    +0.277 C 
ENDBRANCH  24   4
ENDBRANCH   2  15
ENDBRANCH   8   2
TORSDOF 4
ENDMDL
MODEL 4
REMARK VINA RESULT:      -0.3      2.310      3.833
REMARK  Name = 75367749
REMARK  7 active torsions:
REMARK  status: ('A' for Active; 'I' for Inactive)
REMARK    1  A    between atoms: O_2  and  C_8
REMARK    2  A    between atoms: O_2  and  C_15
REMARK    3  A    between atoms: O_4  and  C_24
REMARK    4  A    between atoms: O_4  and  C_25
REMARK    5  A    between atoms: N_6  and  C_18
REMARK    6  A    between atoms: C_13  and  C_14
REMARK    7  A    between atoms: C_17  and  C_21
REMARK                            x       y       z     vdW  Elec       q    Type
REMARK                         _______ _______ _______ _____ _____    ______ ____
ROOT
ATOM      1  O   UNL     1      -3.771  -2.691  24.459  0.00  0.00    -0.375 OA
ATOM      3  O   UNL     1      -5.503   1.946  23.668  0.00  0.00    -0.268 OA
ATOM      5  N   UNL     1      -4.320   0.279  24.816  0.00  0.00    -0.291 N 
ATOM      8  C   UNL     1      -2.116  -0.835  24.777  0.00  0.00    +0.216 C 
ATOM      9  C   UNL     1      -3.164  -0.126  25.632  0.00  0.00    +0.155 C 
ATOM     10  C   UNL     1      -5.243  -0.787  24.419  0.00  0.00    +0.136 C 
ATOM     11  C   UNL     1      -2.400  -2.324  24.558  0.00  0.00    +0.206 C 
ATOM     12  C   UNL     1      -4.559  -1.876  23.600  0.00  0.00    +0.179 C 
ATOM     13  C   UNL     1      -4.563   1.587  24.375  0.00  0.00    +0.265 C 
ENDROOT
BRANCH  13  14
ATOM      6  N   UNL     1      -3.852   3.573  25.749  0.00  0.00    -0.262 N 
ATOM      7  N   UNL     1      -2.831   4.429  25.930  0.00  0.00    -0.176 NA
ATOM     14  C   UNL     1      -3.624   2.640  24.781  0.00  0.00    +0.123 A 
ATOM     16  C   UNL     1      -2.368   2.905  24.293  0.00  0.00    +0.057 A 
ATOM     17  C   UNL     1      -1.928   4.015  25.038  0.00  0.00    +0.061 A 
ATOM     18  C   UNL     1      -5.041   3.710  26.559  0.00  0.00    +0.173 C 
ATOM     21  C   UNL     1      -0.638   4.717  24.924  0.00  0.00    +0.067 C 
ENDBRANCH  13  14
BRANCH   8   2
ATOM      2  O   UNL     1      -0.841  -0.695  25.402  0.00  0.00    -0.485 OA
BRANCH   2  15
ATOM     15  C   UNL     1       0.189  -0.283  24.602  0.00  0.00    +0.121 A 
ATOM     19  C   UNL     1       0.458   1.079  24.457  0.00  0.00    +0.049 A 
ATOM     20  C   UNL     1       0.970  -1.223  23.931  0.00  0.00    +0.049 A 
ATOM     22  C   UNL     1       1.507   1.499  23.643  0.00  0.00    +0.049 A 
ATOM     23  C   UNL     1       2.021  -0.801  23.115  0.00  0.00    +0.049 A 
ATOM     24  C   UNL     1       2.289   0.559  22.971  0.00  0.00    +0.120 A 
BRANCH  24   4
ATOM      4  O   UNL     1       3.314   0.970  22.175  0.00  0.00    -0.495 OA
ATOM     25  C   UNL     1       4.637   0.659  22.607  0.00  0.00    +0.277 C 
ENDBRANCH  24   4
ENDBRANCH   2  15
ENDBRANCH   8   2
TORSDOF 4
ENDMDL
MODEL 5
REMARK VINA RESULT:      -0.1      2.063      6.204
REMARK  Name = 75367749
REMARK  7 active torsions:
REMARK  status: ('A' for Active; 'I' for Inactive)
REMARK    1  A    between atoms: O_2  and  C_8
REMARK    2  A    between atoms: O_2  and  C_15
REMARK    3  A    between atoms: O_4  and  C_24
REMARK    4  A    between atoms: O_4  and  C_25
REMARK    5  A    between atoms: N_6  and  C_18
REMARK    6  A    between atoms: C_13  and  C_14
REMARK    7  A    between atoms: C_17  and  C_21
REMARK                            x       y       z     vdW  Elec       q    Type
REMARK                         _______ _______ _______ _____ _____    ______ ____
ROOT
ATOM      1  O   UNL     1      -1.943   5.727  25.172  0.00  0.00    -0.375 OA
ATOM      3  O   UNL     1       1.524   2.276  24.076  0.00  0.00    -0.268 OA
ATOM      5  N   UNL     1      -0.343   3.141  25.200  0.00  0.00    -0.291 N 
ATOM      8  C   UNL     1      -2.782   3.381  24.897  0.00  0.00    +0.216 C 
ATOM      9  C   UNL     1      -1.658   2.932  25.827  0.00  0.00    +0.155 C 
ATOM     10  C   UNL     1       0.141   4.523  25.145  0.00  0.00    +0.136 C 
ATOM     11  C   UNL     1      -3.068   4.885  24.951  0.00  0.00    +0.206 C 
ATOM     12  C   UNL     1      -0.802   5.440  24.373  0.00  0.00    +0.179 C 
ATOM     13  C   UNL     1       0.437   2.124  24.633  0.00  0.00    +0.265 C 
ENDROOT
BRANCH  13  14
ATOM      6  N   UNL     1       0.143  -0.216  23.753  0.00  0.00    -0.262 N 
ATOM      7  N   UNL     1      -0.427  -1.397  24.047  0.00  0.00    -0.176 NA
ATOM     14  C   UNL     1      -0.067   0.747  24.696  0.00  0.00    +0.123 A 
ATOM     16  C   UNL     1      -0.829   0.155  25.673  0.00  0.00    +0.057 A 
ATOM     17  C   UNL     1      -1.019  -1.164  25.220  0.00  0.00    +0.061 A 
ATOM     18  C   UNL     1       0.892  -0.079  22.525  0.00  0.00    +0.173 C 
ATOM     21  C   UNL     1      -1.768  -2.242  25.888  0.00  0.00    +0.067 C 
ENDBRANCH  13  14
BRANCH   8   2
ATOM      2  O   UNL     1      -3.972   2.672  25.239  0.00  0.00    -0.485 OA
BRANCH   2  15
ATOM     15  C   UNL     1      -4.076   1.391  24.769  0.00  0.00    +0.121 A 
ATOM     19  C   UNL     1      -4.731   0.421  25.529  0.00  0.00    +0.049 A 
ATOM     20  C   UNL     1      -3.528   1.055  23.532  0.00  0.00    +0.049 A 
ATOM     22  C   UNL     1      -4.837  -0.884  25.051  0.00  0.00    +0.049 A 
ATOM     23  C   UNL     1      -3.634  -0.252  23.054  0.00  0.00    +0.049 A 
ATOM     24  C   UNL     1      -4.288  -1.220  23.813  0.00  0.00    +0.120 A 
BRANCH  24   4
ATOM      4  O   UNL     1      -4.392  -2.495  23.346  0.00  0.00    -0.495 OA
ATOM     25  C   UNL     1      -3.723  -3.514  24.086  0.00  0.00    +0.277 C 
ENDBRANCH  24   4
ENDBRANCH   2  15
ENDBRANCH   8   2
TORSDOF 4
ENDMDL
MODEL 6
REMARK VINA RESULT:       0.0      1.566      5.296
REMARK  Name = 75367749
REMARK  7 active torsions:
REMARK  status: ('A' for Active; 'I' for Inactive)
REMARK    1  A    between atoms: O_2  and  C_8
REMARK    2  A    between atoms: O_2  and  C_15
REMARK    3  A    between atoms: O_4  and  C_24
REMARK    4  A    between atoms: O_4  and  C_25
REMARK    5  A    between atoms: N_6  and  C_18
REMARK    6  A    between atoms: C_13  and  C_14
REMARK    7  A    between atoms: C_17  and  C_21
REMARK                            x       y       z     vdW  Elec       q    Type
REMARK                         _______ _______ _______ _____ _____    ______ ____
ROOT
ATOM      1  O   UNL     1      -1.607   5.944  25.088  0.00  0.00    -0.375 OA
ATOM      3  O   UNL     1      -5.623   2.953  25.328  0.00  0.00    -0.268 OA
ATOM      5  N   UNL     1      -3.573   3.705  24.475  0.00  0.00    -0.291 N 
ATOM      8  C   UNL     1      -1.153   3.484  24.915  0.00  0.00    +0.216 C 
ATOM      9  C   UNL     1      -2.264   3.412  23.870  0.00  0.00    +0.155 C 
ATOM     10  C   UNL     1      -3.845   5.110  24.790  0.00  0.00    +0.136 C 
ATOM     11  C   UNL     1      -0.640   4.904  25.177  0.00  0.00    +0.206 C 
ATOM     12  C   UNL     1      -2.832   5.696  25.767  0.00  0.00    +0.179 C 
ATOM     13  C   UNL     1      -4.536   2.738  24.794  0.00  0.00    +0.265 C 
ENDROOT
BRANCH  13  14
ATOM      6  N   UNL     1      -3.584   0.900  23.361  0.00  0.00    -0.262 N 
ATOM      7  N   UNL     1      -3.442  -0.435  23.303  0.00  0.00    -0.176 NA
ATOM     14  C   UNL     1      -4.242   1.336  24.474  0.00  0.00    +0.123 A 
ATOM     16  C   UNL     1      -4.553   0.208  25.193  0.00  0.00    +0.057 A 
ATOM     17  C   UNL     1      -4.035  -0.852  24.424  0.00  0.00    +0.061 A 
ATOM     18  C   UNL     1      -3.052   1.715  22.293  0.00  0.00    +0.173 C 
ATOM     21  C   UNL     1      -4.090  -2.291  24.731  0.00  0.00    +0.067 C 
ENDBRANCH  13  14
BRANCH   8   2
ATOM      2  O   UNL     1      -0.062   2.672  24.484  0.00  0.00    -0.485 OA
BRANCH   2  15
ATOM     15  C   UNL     1      -0.216   1.320  24.624  0.00  0.00    +0.121 A 
ATOM     19  C   UNL     1      -0.797   0.801  25.781  0.00  0.00    +0.049 A 
ATOM     20  C   UNL     1       0.207   0.461  23.610  0.00  0.00    +0.049 A 
ATOM     22  C   UNL     1      -0.955  -0.577  25.924  0.00  0.00    +0.049 A 
ATOM     23  C   UNL     1       0.050  -0.919  23.754  0.00  0.00    +0.049 A 
ATOM     24  C   UNL     1      -0.531  -1.437  24.910  0.00  0.00    +0.120 A 
BRANCH  24   4
ATOM      4  O   UNL     1      -0.685  -2.782  25.050  0.00  0.00    -0.495 OA
ATOM     25  C   UNL     1      -1.432  -3.459  24.041  0.00  0.00    +0.277 C 
ENDBRANCH  24   4
ENDBRANCH   2  15
ENDBRANCH   8   2
TORSDOF 4
ENDMDL
MODEL 7
REMARK VINA RESULT:       0.2      1.977      5.013
REMARK  Name = 75367749
REMARK  7 active torsions:
REMARK  status: ('A' for Active; 'I' for Inactive)
REMARK    1  A    between atoms: O_2  and  C_8
REMARK    2  A    between atoms: O_2  and  C_15
REMARK    3  A    between atoms: O_4  and  C_24
REMARK    4  A    between atoms: O_4  and  C_25
REMARK    5  A    between atoms: N_6  and  C_18
REMARK    6  A    between atoms: C_13  and  C_14
REMARK    7  A    between atoms: C_17  and  C_21
REMARK                            x       y       z     vdW  Elec       q    Type
REMARK                         _______ _______ _______ _____ _____    ______ ____
ROOT
ATOM      1  O   UNL     1      -3.029   4.595  25.416  0.00  0.00    -0.375 OA
ATOM      3  O   UNL     1      -6.064   0.752  24.340  0.00  0.00    -0.268 OA
ATOM      5  N   UNL     1      -4.028   1.913  24.384  0.00  0.00    -0.291 N 
ATOM      8  C   UNL     1      -2.116   2.310  25.896  0.00  0.00    +0.216 C 
ATOM      9  C   UNL     1      -2.560   1.902  24.494  0.00  0.00    +0.155 C 
ATOM     10  C   UNL     1      -4.664   3.230  24.293  0.00  0.00    +0.136 C 
ATOM     11  C   UNL     1      -2.054   3.826  26.110  0.00  0.00    +0.206 C 
ATOM     12  C   UNL     1      -4.363   4.108  25.503  0.00  0.00    +0.179 C 
ATOM     13  C   UNL     1      -4.835   0.768  24.399  0.00  0.00    +0.265 C 
ENDROOT
BRANCH  13  14
ATOM      6  N   UNL     1      -3.741  -1.124  25.649  0.00  0.00    -0.262 N 
ATOM      7  N   UNL     1      -3.173  -2.328  25.467  0.00  0.00    -0.176 NA
ATOM     14  C   UNL     1      -4.178  -0.541  24.495  0.00  0.00    +0.123 A 
ATOM     16  C   UNL     1      -3.872  -1.425  23.489  0.00  0.00    +0.057 A 
ATOM     17  C   UNL     1      -3.255  -2.506  24.146  0.00  0.00    +0.061 A 
ATOM     18  C   UNL     1      -3.837  -0.583  26.984  0.00  0.00    +0.173 C 
ATOM     21  C   UNL     1      -2.726  -3.739  23.539  0.00  0.00    +0.067 C 
ENDBRANCH  13  14
BRANCH   8   2
ATOM      2  O   UNL     1      -0.826   1.755  26.151  0.00  0.00    -0.485 OA
BRANCH   2  15
ATOM     15  C   UNL     1      -0.167   1.226  25.076  0.00  0.00    +0.121 A 
ATOM     19  C   UNL     1      -0.432  -0.083  24.671  0.00  0.00    +0.049 A 
ATOM     20  C   UNL     1       0.770   1.993  24.384  0.00  0.00    +0.049 A 
ATOM     22  C   UNL     1       0.239  -0.623  23.575  0.00  0.00    +0.049 A 
ATOM     23  C   UNL     1       1.442   1.452  23.288  0.00  0.00    +0.049 A 
ATOM     24  C   UNL     1       1.176   0.145  22.883  0.00  0.00    +0.120 A 
BRANCH  24   4
ATOM      4  O   UNL     1       1.832  -0.383  21.813  0.00  0.00    -0.495 OA
ATOM     25  C   UNL     1       3.181   0.031  21.608  0.00  0.00    +0.277 C 
ENDBRANCH  24   4
ENDBRANCH   2  15
ENDBRANCH   8   2
TORSDOF 4
ENDMDL
MODEL 8
REMARK VINA RESULT:       1.0      2.163      3.599
REMARK  Name = 75367749
REMARK  7 active torsions:
REMARK  status: ('A' for Active; 'I' for Inactive)
REMARK    1  A    between atoms: O_2  and  C_8
REMARK    2  A    between atoms: O_2  and  C_15
REMARK    3  A    between atoms: O_4  and  C_24
REMARK    4  A    between atoms: O_4  and  C_25
REMARK    5  A    between atoms: N_6  and  C_18
REMARK    6  A    between atoms: C_13  and  C_14
REMARK    7  A    between atoms: C_17  and  C_21
REMARK                            x       y       z     vdW  Elec       q    Type
REMARK                         _______ _______ _______ _____ _____    ______ ____
ROOT
ATOM      1  O   UNL     1       2.166   0.782  23.324  0.00  0.00    -0.375 OA
ATOM      3  O   UNL     1      -1.789  -2.299  23.347  0.00  0.00    -0.268 OA
ATOM      5  N   UNL     1      -0.367  -0.649  24.214  0.00  0.00    -0.291 N 
ATOM      8  C   UNL     1      -0.004   1.790  24.075  0.00  0.00    +0.216 C 
ATOM      9  C   UNL     1      -0.178   0.584  24.995  0.00  0.00    +0.155 C 
ATOM     10  C   UNL     1       0.829  -1.204  23.574  0.00  0.00    +0.136 C 
ATOM     11  C   UNL     1       1.428   1.975  23.560  0.00  0.00    +0.206 C 
ATOM     12  C   UNL     1       1.475  -0.228  22.598  0.00  0.00    +0.179 C 
ATOM     13  C   UNL     1      -1.600  -1.287  24.020  0.00  0.00    +0.265 C 
ENDROOT
BRANCH  13  14
ATOM      6  N   UNL     1      -3.054  -0.748  26.003  0.00  0.00    -0.262 N 
ATOM      7  N   UNL     1      -4.208  -0.149  26.341  0.00  0.00    -0.176 NA
ATOM     14  C   UNL     1      -2.786  -0.712  24.666  0.00  0.00    +0.123 A 
ATOM     16  C   UNL     1      -3.838  -0.043  24.090  0.00  0.00    +0.057 A 
ATOM     17  C   UNL     1      -4.682   0.280  25.169  0.00  0.00    +0.061 A 
ATOM     18  C   UNL     1      -2.240  -1.347  27.035  0.00  0.00    +0.173 C 
ATOM     21  C   UNL     1      -5.964   1.004  25.119  0.00  0.00    +0.067 C 
ENDBRANCH  13  14
BRANCH   8   2
ATOM      2  O   UNL     1      -0.397   2.967  24.778  0.00  0.00    -0.485 OA
BRANCH   2  15
ATOM     15  C   UNL     1      -1.741   3.211  24.855  0.00  0.00    +0.121 A 
ATOM     19  C   UNL     1      -2.326   3.507  26.087  0.00  0.00    +0.049 A 
ATOM     20  C   UNL     1      -2.526   3.166  23.704  0.00  0.00    +0.049 A 
ATOM     22  C   UNL     1      -3.695   3.757  26.166  0.00  0.00    +0.049 A 
ATOM     23  C   UNL     1      -3.896   3.415  23.783  0.00  0.00    +0.049 A 
ATOM     24  C   UNL     1      -4.481   3.711  25.014  0.00  0.00    +0.120 A 
BRANCH  24   4
ATOM      4  O   UNL     1      -5.818   3.955  25.091  0.00  0.00    -0.495 OA
ATOM     25  C   UNL     1      -6.217   5.257  25.516  0.00  0.00    +0.277 C 
ENDBRANCH  24   4
ENDBRANCH   2  15
ENDBRANCH   8   2
TORSDOF 4
ENDMDL
MODEL 9
REMARK VINA RESULT:       1.0      3.151      5.571
REMARK  Name = 75367749
REMARK  7 active torsions:
REMARK  status: ('A' for Active; 'I' for Inactive)
REMARK    1  A    between atoms: O_2  and  C_8
REMARK    2  A    between atoms: O_2  and  C_15
REMARK    3  A    between atoms: O_4  and  C_24
REMARK    4  A    between atoms: O_4  and  C_25
REMARK    5  A    between atoms: N_6  and  C_18
REMARK    6  A    between atoms: C_13  and  C_14
REMARK    7  A    between atoms: C_17  and  C_21
REMARK                            x       y       z     vdW  Elec       q    Type
REMARK                         _______ _______ _______ _____ _____    ______ ____
ROOT
ATOM      1  O   UNL     1       0.033   3.690  24.025  0.00  0.00    -0.375 OA
ATOM      3  O   UNL     1      -4.147   1.711  25.960  0.00  0.00    -0.268 OA
ATOM      5  N   UNL     1      -2.467   1.988  24.348  0.00  0.00    -0.291 N 
ATOM      8  C   UNL     1      -0.180   1.198  23.854  0.00  0.00    +0.216 C 
ATOM      9  C   UNL     1      -1.591   1.415  23.314  0.00  0.00    +0.155 C 
ATOM     10  C   UNL     1      -2.275   3.408  24.651  0.00  0.00    +0.136 C 
ATOM     11  C   UNL     1       0.699   2.453  23.810  0.00  0.00    +0.206 C 
ATOM     12  C   UNL     1      -0.861   3.716  25.132  0.00  0.00    +0.179 C 
ATOM     13  C   UNL     1      -3.425   1.263  25.070  0.00  0.00    +0.265 C 
ENDROOT
BRANCH  13  14
ATOM      6  N   UNL     1      -2.823  -1.176  25.229  0.00  0.00    -0.262 N 
ATOM      7  N   UNL     1      -3.191  -2.391  24.789  0.00  0.00    -0.176 NA
ATOM     14  C   UNL     1      -3.600  -0.160  24.755  0.00  0.00    +0.123 A 
ATOM     16  C   UNL     1      -4.540  -0.751  23.947  0.00  0.00    +0.057 A 
ATOM     17  C   UNL     1      -4.240  -2.126  24.007  0.00  0.00    +0.061 A 
ATOM     18  C   UNL     1      -1.694  -1.060  26.123  0.00  0.00    +0.173 C 
ATOM     21  C   UNL     1      -4.940  -3.226  23.322  0.00  0.00    +0.067 C 
ENDBRANCH  13  14
BRANCH   8   2
ATOM      2  O   UNL     1       0.449   0.166  23.096  0.00  0.00    -0.485 OA
BRANCH   2  15
ATOM     15  C   UNL     1       1.817   0.140  23.120  0.00  0.00    +0.121 A 
ATOM     19  C   UNL     1       2.485  -1.020  23.514  0.00  0.00    +0.049 A 
ATOM     20  C   UNL     1       2.544   1.271  22.749  0.00  0.00    +0.049 A 
ATOM     22  C   UNL     1       3.878  -1.048  23.537  0.00  0.00    +0.049 A 
ATOM     23  C   UNL     1       3.939   1.243  22.774  0.00  0.00    +0.049 A 
ATOM     24  C   UNL     1       4.605   0.084  23.168  0.00  0.00    +0.120 A 
BRANCH  24   4
ATOM      4  O   UNL     1       5.967   0.056  23.191  0.00  0.00    -0.495 OA
ATOM     25  C   UNL     1       6.583  -0.729  24.210  0.00  0.00    +0.277 C 
ENDBRANCH  24   4
ENDBRANCH   2  15
ENDBRANCH   8   2
TORSDOF 4
ENDMDL
MODEL 10
REMARK VINA RESULT:       1.4     16.220     19.131
REMARK  Name = 75367749
REMARK  7 active torsions:
REMARK  status: ('A' for Active; 'I' for Inactive)
REMARK    1  A    between atoms: O_2  and  C_8
REMARK    2  A    between atoms: O_2  and  C_15
REMARK    3  A    between atoms: O_4  and  C_24
REMARK    4  A    between atoms: O_4  and  C_25
REMARK    5  A    between atoms: N_6  and  C_18
REMARK    6  A    between atoms: C_13  and  C_14
REMARK    7  A    between atoms: C_17  and  C_21
REMARK                            x       y       z     vdW  Elec       q    Type
REMARK                         _______ _______ _______ _____ _____    ______ ____
ROOT
ATOM      1  O   UNL     1      10.083   8.096  21.855  0.00  0.00    -0.375 OA
ATOM      3  O   UNL     1      14.896   8.750  23.094  0.00  0.00    -0.268 OA
ATOM      5  N   UNL     1      13.075   7.628  22.135  0.00  0.00    -0.291 N 
ATOM      8  C   UNL     1      11.754   7.616  20.049  0.00  0.00    +0.216 C 
ATOM      9  C   UNL     1      12.525   6.779  21.065  0.00  0.00    +0.155 C 
ATOM     10  C   UNL     1      12.122   8.115  23.135  0.00  0.00    +0.136 C 
ATOM     11  C   UNL     1      10.309   7.918  20.462  0.00  0.00    +0.206 C 
ATOM     12  C   UNL     1      11.006   8.952  22.518  0.00  0.00    +0.179 C 
ATOM     13  C   UNL     1      14.418   8.017  22.229  0.00  0.00    +0.265 C 
ENDROOT
BRANCH  13  14
ATOM      6  N   UNL     1      16.610   8.010  20.991  0.00  0.00    -0.262 N 
ATOM      7  N   UNL     1      17.269   7.381  20.003  0.00  0.00    -0.176 NA
ATOM     14  C   UNL     1      15.356   7.521  21.216  0.00  0.00    +0.123 A 
ATOM     16  C   UNL     1      15.183   6.503  20.310  0.00  0.00    +0.057 A 
ATOM     17  C   UNL     1      16.393   6.462  19.592  0.00  0.00    +0.061 A 
ATOM     18  C   UNL     1      17.257   9.093  21.695  0.00  0.00    +0.173 C 
ATOM     21  C   UNL     1      16.752   5.550  18.492  0.00  0.00    +0.067 C 
ENDBRANCH  13  14
BRANCH   8   2
ATOM      2  O   UNL     1      11.742   6.928  18.799  0.00  0.00    -0.485 OA
BRANCH   2  15
ATOM     15  C   UNL     1      12.506   7.466  17.799  0.00  0.00    +0.121 A 
ATOM     19  C   UNL     1      13.828   7.054  17.634  0.00  0.00    +0.049 A 
ATOM     20  C   UNL     1      11.962   8.424  16.945  0.00  0.00    +0.049 A 
ATOM     22  C   UNL     1      14.607   7.600  16.615  0.00  0.00    +0.049 A 
ATOM     23  C   UNL     1      12.742   8.972  15.925  0.00  0.00    +0.049 A 
ATOM     24  C   UNL     1      14.063   8.560  15.761  0.00  0.00    +0.120 A 
BRANCH  24   4
ATOM      4  O   UNL     1      14.824   9.094  14.765  0.00  0.00    -0.495 OA
ATOM     25  C   UNL     1      14.979   8.318  13.579  0.00  0.00    +0.277 C 
ENDBRANCH  24   4
ENDBRANCH   2  15
ENDBRANCH   8   2
TORSDOF 4
ENDMDL
