MODEL 1
REMARK VINA RESULT:       6.1      0.000      0.000
REMARK  Name = 23843913
REMARK  13 active torsions:
REMARK  status: ('A' for Active; 'I' for Inactive)
REMARK    1  A    between atoms: O_4  and  C_18
REMARK    2  A    between atoms: O_4  and  C_28
REMARK    3  A    between atoms: O_5  and  C_19
REMARK    4  A    between atoms: O_6  and  C_24
REMARK    5  A    between atoms: O_9  and  C_32
REMARK    6  A    between atoms: N_11  and  C_33
REMARK    7  A    between atoms: C_12  and  C_22
REMARK    8  A    between atoms: C_14  and  C_24
REMARK    9  A    between atoms: C_14  and  C_25
REMARK   10  A    between atoms: C_15  and  C_23
REMARK   11  A    between atoms: C_23  and  C_26
REMARK   12  A    between atoms: C_27  and  C_32
REMARK   13  A    between atoms: C_36  and  C_39
REMARK                            x       y       z     vdW  Elec       q    Type
REMARK                         _______ _______ _______ _____ _____    ______ ____
ROOT
ATOM     12  C   UNL     1      -3.658   1.948  25.176  0.00  0.00    -0.023 C 
ATOM     13  C   UNL     1      -3.931   3.357  25.815  0.00  0.00    +0.007 C 
ATOM     14  C   UNL     1      -2.719   4.374  25.784  0.00  0.00    +0.031 C 
ATOM     15  C   UNL     1      -4.911   1.021  25.466  0.00  0.00    +0.032 C 
ATOM     16  C   UNL     1      -2.398   1.313  25.853  0.00  0.00    +0.011 C 
ATOM     17  C   UNL     1      -5.264   3.964  25.324  0.00  0.00    +0.007 C 
ATOM     18  C   UNL     1      -1.350   3.636  25.941  0.00  0.00    +0.186 C 
ATOM     19  C   UNL     1      -6.267   1.647  25.061  0.00  0.00    +0.119 C 
ATOM     20  C   UNL     1      -1.507   2.286  26.630  0.00  0.00    +0.046 C 
ATOM     21  C   UNL     1      -6.444   3.047  25.638  0.00  0.00    +0.032 C 
ATOM     22  C   UNL     1      -3.399   2.036  23.653  0.00  0.00    +0.012 C 
ATOM     25  C   UNL     1      -2.868   5.310  27.019  0.00  0.00    +0.017 C 
ENDROOT
BRANCH  19   5
ATOM      5  O   UNL     1      -6.429   1.721  23.648  0.00  0.00    -0.391 OA
ATOM     40  H   UNL     1      -6.140   2.604  23.361  0.00  0.00    +0.210 HD
ENDBRANCH  19   5
BRANCH  18   4
ATOM      4  O   UNL     1      -0.683   3.415  24.701  0.00  0.00    -0.446 OA
BRANCH   4  28
ATOM      8  O   UNL     1       0.976   2.231  25.739  0.00  0.00    -0.226 OA
ATOM     11  N   UNL     1       0.557   2.037  23.443  0.00  0.00    -0.251 N 
ATOM     28  C   UNL     1       0.356   2.521  24.722  0.00  0.00    +0.405 C 
ATOM     42  H   UNL     1      -0.064   2.399  22.724  0.00  0.00    +0.158 HD
BRANCH  11  33
ATOM     33  C   UNL     1       1.520   1.098  23.009  0.00  0.00    +0.037 A 
ATOM     34  C   UNL     1       2.826   1.160  23.497  0.00  0.00    +0.035 A 
ATOM     35  C   UNL     1       1.164   0.109  22.092  0.00  0.00    +0.023 A 
ATOM     36  C   UNL     1       3.775   0.232  23.068  0.00  0.00    +0.057 A 
ATOM     37  C   UNL     1       2.114  -0.819  21.663  0.00  0.00    +0.002 A 
ATOM     38  C   UNL     1       3.419  -0.757  22.152  0.00  0.00    +0.012 A 
BRANCH  36  39
ATOM      1  F   UNL     1       5.592   1.567  23.867  0.00  0.00    -0.166 F 
ATOM      2  F   UNL     1       5.355  -0.401  24.749  0.00  0.00    -0.166 F 
ATOM      3  F   UNL     1       6.084  -0.208  22.710  0.00  0.00    -0.166 F 
ATOM     39  C   UNL     1       5.171   0.298  23.590  0.00  0.00    +0.417 C 
ENDBRANCH  36  39
ENDBRANCH  11  33
ENDBRANCH   4  28
ENDBRANCH  18   4
BRANCH  15  23
ATOM     23  C   UNL     1      -4.790  -0.403  24.898  0.00  0.00    +0.102 C 
BRANCH  23  26
ATOM      7  O   UNL     1      -3.796  -1.349  26.843  0.00  0.00    -0.276 OA
ATOM     10  N   UNL     1      -2.641  -1.577  24.850  0.00  0.00    -0.296 N 
ATOM     26  C   UNL     1      -3.705  -1.153  25.630  0.00  0.00    +0.216 C 
ATOM     27  C   UNL     1      -1.553  -2.400  25.382  0.00  0.00    +0.101 C 
ATOM     29  C   UNL     1      -2.492  -1.366  23.412  0.00  0.00    +0.108 C 
ATOM     30  C   UNL     1      -0.886  -2.975  24.128  0.00  0.00    +0.026 C 
ATOM     31  C   UNL     1      -1.102  -1.887  23.083  0.00  0.00    +0.021 C 
BRANCH  27  32
ATOM     32  C   UNL     1      -0.583  -1.570  26.220  0.00  0.00    +0.178 C 
BRANCH  32   9
ATOM      9  O   UNL     1       0.094  -0.671  25.361  0.00  0.00    -0.393 OA
ATOM     43  H   UNL     1       1.042  -0.729  25.574  0.00  0.00    +0.209 HD
ENDBRANCH  32   9
ENDBRANCH  27  32
ENDBRANCH  23  26
ENDBRANCH  15  23
BRANCH  14  24
ATOM     24  C   UNL     1      -2.726   5.297  24.547  0.00  0.00    +0.166 C 
BRANCH  24   6
ATOM      6  O   UNL     1      -1.528   6.041  24.555  0.00  0.00    -0.394 OA
ATOM     41  H   UNL     1      -1.332   6.284  23.634  0.00  0.00    +0.209 HD
ENDBRANCH  24   6
ENDBRANCH  14  24
TORSDOF 11
ENDMDL
MODEL 2
REMARK VINA RESULT:       6.7      1.665      4.521
REMARK  Name = 23843913
REMARK  13 active torsions:
REMARK  status: ('A' for Active; 'I' for Inactive)
REMARK    1  A    between atoms: O_4  and  C_18
REMARK    2  A    between atoms: O_4  and  C_28
REMARK    3  A    between atoms: O_5  and  C_19
REMARK    4  A    between atoms: O_6  and  C_24
REMARK    5  A    between atoms: O_9  and  C_32
REMARK    6  A    between atoms: N_11  and  C_33
REMARK    7  A    between atoms: C_12  and  C_22
REMARK    8  A    between atoms: C_14  and  C_24
REMARK    9  A    between atoms: C_14  and  C_25
REMARK   10  A    between atoms: C_15  and  C_23
REMARK   11  A    between atoms: C_23  and  C_26
REMARK   12  A    between atoms: C_27  and  C_32
REMARK   13  A    between atoms: C_36  and  C_39
REMARK                            x       y       z     vdW  Elec       q    Type
REMARK                         _______ _______ _______ _____ _____    ______ ____
ROOT
ATOM     12  C   UNL     1      -3.972   1.497  24.796  0.00  0.00    -0.023 C 
ATOM     13  C   UNL     1      -4.677   0.173  24.327  0.00  0.00    +0.007 C 
ATOM     14  C   UNL     1      -3.746  -1.103  24.223  0.00  0.00    +0.031 C 
ATOM     15  C   UNL     1      -5.012   2.686  24.660  0.00  0.00    +0.032 C 
ATOM     16  C   UNL     1      -2.753   1.789  23.859  0.00  0.00    +0.011 C 
ATOM     17  C   UNL     1      -5.995  -0.080  25.092  0.00  0.00    +0.007 C 
ATOM     18  C   UNL     1      -2.300  -0.720  23.768  0.00  0.00    +0.186 C 
ATOM     19  C   UNL     1      -6.372   2.417  25.347  0.00  0.00    +0.119 C 
ATOM     20  C   UNL     1      -2.273   0.604  23.015  0.00  0.00    +0.046 C 
ATOM     21  C   UNL     1      -6.971   1.081  24.921  0.00  0.00    +0.032 C 
ATOM     22  C   UNL     1      -3.455   1.401  26.251  0.00  0.00    +0.012 C 
ATOM     25  C   UNL     1      -4.337  -2.018  23.110  0.00  0.00    +0.017 C 
ENDROOT
BRANCH  19   5
ATOM      5  O   UNL     1      -6.275   2.432  26.767  0.00  0.00    -0.391 OA
ATOM     40  H   UNL     1      -7.009   1.902  27.122  0.00  0.00    +0.210 HD
ENDBRANCH  19   5
BRANCH  18   4
ATOM      4  O   UNL     1      -1.377  -0.622  24.850  0.00  0.00    -0.446 OA
BRANCH   4  28
ATOM      8  O   UNL     1       0.153   1.051  25.157  0.00  0.00    -0.226 OA
ATOM     11  N   UNL     1       0.481  -0.667  23.600  0.00  0.00    -0.251 N 
ATOM     28  C   UNL     1      -0.198   0.025  24.584  0.00  0.00    +0.405 C 
ATOM     42  H   UNL     1       0.025  -1.504  23.245  0.00  0.00    +0.158 HD
BRANCH  11  33
ATOM     33  C   UNL     1       1.734  -0.357  23.024  0.00  0.00    +0.037 A 
ATOM     34  C   UNL     1       2.890  -0.395  23.804  0.00  0.00    +0.035 A 
ATOM     35  C   UNL     1       1.814  -0.014  21.674  0.00  0.00    +0.023 A 
ATOM     36  C   UNL     1       4.126  -0.089  23.234  0.00  0.00    +0.057 A 
ATOM     37  C   UNL     1       3.050   0.291  21.104  0.00  0.00    +0.002 A 
ATOM     38  C   UNL     1       4.206   0.253  21.885  0.00  0.00    +0.012 A 
BRANCH  36  39
ATOM      1  F   UNL     1       6.511   0.052  23.353  0.00  0.00    -0.166 F 
ATOM      2  F   UNL     1       5.394   0.826  25.044  0.00  0.00    -0.166 F 
ATOM      3  F   UNL     1       5.519  -1.321  24.717  0.00  0.00    -0.166 F 
ATOM     39  C   UNL     1       5.362  -0.130  24.068  0.00  0.00    +0.417 C 
ENDBRANCH  36  39
ENDBRANCH  11  33
ENDBRANCH   4  28
ENDBRANCH  18   4
BRANCH  15  23
ATOM     23  C   UNL     1      -4.462   4.058  25.085  0.00  0.00    +0.102 C 
BRANCH  23  26
ATOM      7  O   UNL     1      -3.490   4.809  23.047  0.00  0.00    -0.276 OA
ATOM     10  N   UNL     1      -2.046   4.323  24.788  0.00  0.00    -0.296 N 
ATOM     26  C   UNL     1      -3.297   4.435  24.205  0.00  0.00    +0.216 C 
ATOM     27  C   UNL     1      -0.818   4.739  24.108  0.00  0.00    +0.101 C 
ATOM     29  C   UNL     1      -1.771   3.884  26.154  0.00  0.00    +0.108 C 
ATOM     30  C   UNL     1       0.206   4.852  25.241  0.00  0.00    +0.026 C 
ATOM     31  C   UNL     1      -0.256   3.796  26.239  0.00  0.00    +0.021 C 
BRANCH  27  32
ATOM     32  C   UNL     1      -0.394   3.724  23.049  0.00  0.00    +0.178 C 
BRANCH  32   9
ATOM      9  O   UNL     1       0.786   3.079  23.492  0.00  0.00    -0.393 OA
ATOM     43  H   UNL     1       0.519   2.235  23.895  0.00  0.00    +0.209 HD
ENDBRANCH  32   9
ENDBRANCH  27  32
ENDBRANCH  23  26
ENDBRANCH  15  23
BRANCH  14  24
ATOM     24  C   UNL     1      -3.728  -1.954  25.510  0.00  0.00    +0.166 C 
BRANCH  24   6
ATOM      6  O   UNL     1      -3.259  -3.241  25.172  0.00  0.00    -0.394 OA
ATOM     41  H   UNL     1      -4.015  -3.849  25.231  0.00  0.00    +0.209 HD
ENDBRANCH  24   6
ENDBRANCH  14  24
TORSDOF 11
ENDMDL
MODEL 3
REMARK VINA RESULT:       7.3      1.557      2.096
REMARK  Name = 23843913
REMARK  13 active torsions:
REMARK  status: ('A' for Active; 'I' for Inactive)
REMARK    1  A    between atoms: O_4  and  C_18
REMARK    2  A    between atoms: O_4  and  C_28
REMARK    3  A    between atoms: O_5  and  C_19
REMARK    4  A    between atoms: O_6  and  C_24
REMARK    5  A    between atoms: O_9  and  C_32
REMARK    6  A    between atoms: N_11  and  C_33
REMARK    7  A    between atoms: C_12  and  C_22
REMARK    8  A    between atoms: C_14  and  C_24
REMARK    9  A    between atoms: C_14  and  C_25
REMARK   10  A    between atoms: C_15  and  C_23
REMARK   11  A    between atoms: C_23  and  C_26
REMARK   12  A    between atoms: C_27  and  C_32
REMARK   13  A    between atoms: C_36  and  C_39
REMARK                            x       y       z     vdW  Elec       q    Type
REMARK                         _______ _______ _______ _____ _____    ______ ____
ROOT
ATOM     12  C   UNL     1      -2.936   1.960  24.859  0.00  0.00    -0.023 C 
ATOM     13  C   UNL     1      -2.468   3.430  25.157  0.00  0.00    +0.007 C 
ATOM     14  C   UNL     1      -1.076   3.850  24.532  0.00  0.00    +0.031 C 
ATOM     15  C   UNL     1      -4.241   1.673  25.712  0.00  0.00    +0.032 C 
ATOM     16  C   UNL     1      -1.816   0.964  25.308  0.00  0.00    +0.011 C 
ATOM     17  C   UNL     1      -3.596   4.455  24.908  0.00  0.00    +0.007 C 
ATOM     18  C   UNL     1      -0.079   2.646  24.497  0.00  0.00    +0.186 C 
ATOM     19  C   UNL     1      -5.352   2.737  25.543  0.00  0.00    +0.119 C 
ATOM     20  C   UNL     1      -0.433   1.584  25.530  0.00  0.00    +0.046 C 
ATOM     21  C   UNL     1      -4.825   4.151  25.760  0.00  0.00    +0.032 C 
ATOM     22  C   UNL     1      -3.218   1.729  23.355  0.00  0.00    +0.012 C 
ATOM     25  C   UNL     1      -0.450   4.922  25.471  0.00  0.00    +0.017 C 
ENDROOT
BRANCH  19   5
ATOM      5  O   UNL     1      -5.967   2.680  24.260  0.00  0.00    -0.391 OA
ATOM     40  H   UNL     1      -5.269   2.781  23.591  0.00  0.00    +0.210 HD
ENDBRANCH  19   5
BRANCH  18   4
ATOM      4  O   UNL     1      -0.012   2.008  23.224  0.00  0.00    -0.446 OA
BRANCH   4  28
ATOM      8  O   UNL     1       0.152  -0.248  22.883  0.00  0.00    -0.226 OA
ATOM     11  N   UNL     1       1.996   1.054  23.505  0.00  0.00    -0.251 N 
ATOM     28  C   UNL     1       0.674   0.821  23.176  0.00  0.00    +0.405 C 
ATOM     42  H   UNL     1       2.242   2.018  23.719  0.00  0.00    +0.158 HD
BRANCH  11  33
ATOM     33  C   UNL     1       3.053   0.118  23.579  0.00  0.00    +0.037 A 
ATOM     34  C   UNL     1       4.376   0.553  23.512  0.00  0.00    +0.035 A 
ATOM     35  C   UNL     1       2.771  -1.241  23.721  0.00  0.00    +0.023 A 
ATOM     36  C   UNL     1       5.418  -0.371  23.586  0.00  0.00    +0.057 A 
ATOM     37  C   UNL     1       3.813  -2.165  23.795  0.00  0.00    +0.002 A 
ATOM     38  C   UNL     1       5.137  -1.729  23.728  0.00  0.00    +0.012 A 
BRANCH  36  39
ATOM      1  F   UNL     1       7.616  -0.374  24.532  0.00  0.00    -0.166 F 
ATOM      2  F   UNL     1       7.476  -0.282  22.369  0.00  0.00    -0.166 F 
ATOM      3  F   UNL     1       6.943   1.454  23.565  0.00  0.00    -0.166 F 
ATOM     39  C   UNL     1       6.834   0.094  23.515  0.00  0.00    +0.417 C 
ENDBRANCH  36  39
ENDBRANCH  11  33
ENDBRANCH   4  28
ENDBRANCH  18   4
BRANCH  15  23
ATOM     23  C   UNL     1      -4.821   0.261  25.525  0.00  0.00    +0.102 C 
BRANCH  23  26
ATOM      7  O   UNL     1      -2.908  -0.648  26.610  0.00  0.00    -0.276 OA
ATOM     10  N   UNL     1      -3.734  -1.804  24.784  0.00  0.00    -0.296 N 
ATOM     26  C   UNL     1      -3.730  -0.766  25.700  0.00  0.00    +0.216 C 
ATOM     27  C   UNL     1      -2.806  -2.934  24.868  0.00  0.00    +0.101 C 
ATOM     29  C   UNL     1      -4.687  -1.982  23.691  0.00  0.00    +0.108 C 
ATOM     30  C   UNL     1      -3.445  -3.997  23.970  0.00  0.00    +0.026 C 
ATOM     31  C   UNL     1      -4.163  -3.174  22.906  0.00  0.00    +0.021 C 
BRANCH  27  32
ATOM     32  C   UNL     1      -1.408  -2.545  24.394  0.00  0.00    +0.178 C 
BRANCH  32   9
ATOM      9  O   UNL     1      -0.666  -2.090  25.511  0.00  0.00    -0.393 OA
ATOM     43  H   UNL     1      -1.081  -2.468  26.305  0.00  0.00    +0.209 HD
ENDBRANCH  32   9
ENDBRANCH  27  32
ENDBRANCH  23  26
ENDBRANCH  15  23
BRANCH  14  24
ATOM     24  C   UNL     1      -1.204   4.520  23.147  0.00  0.00    +0.166 C 
BRANCH  24   6
ATOM      6  O   UNL     1       0.074   4.981  22.769  0.00  0.00    -0.394 OA
ATOM     41  H   UNL     1       0.178   5.876  23.133  0.00  0.00    +0.209 HD
ENDBRANCH  24   6
ENDBRANCH  14  24
TORSDOF 11
ENDMDL
MODEL 4
REMARK VINA RESULT:       8.9      2.307      5.439
REMARK  Name = 23843913
REMARK  13 active torsions:
REMARK  status: ('A' for Active; 'I' for Inactive)
REMARK    1  A    between atoms: O_4  and  C_18
REMARK    2  A    between atoms: O_4  and  C_28
REMARK    3  A    between atoms: O_5  and  C_19
REMARK    4  A    between atoms: O_6  and  C_24
REMARK    5  A    between atoms: O_9  and  C_32
REMARK    6  A    between atoms: N_11  and  C_33
REMARK    7  A    between atoms: C_12  and  C_22
REMARK    8  A    between atoms: C_14  and  C_24
REMARK    9  A    between atoms: C_14  and  C_25
REMARK   10  A    between atoms: C_15  and  C_23
REMARK   11  A    between atoms: C_23  and  C_26
REMARK   12  A    between atoms: C_27  and  C_32
REMARK   13  A    between atoms: C_36  and  C_39
REMARK                            x       y       z     vdW  Elec       q    Type
REMARK                         _______ _______ _______ _____ _____    ______ ____
ROOT
ATOM     12  C   UNL     1      -2.111   2.854  24.679  0.00  0.00    -0.023 C 
ATOM     13  C   UNL     1      -2.682   4.300  24.451  0.00  0.00    +0.007 C 
ATOM     14  C   UNL     1      -4.257   4.439  24.522  0.00  0.00    +0.031 C 
ATOM     15  C   UNL     1      -0.553   2.884  24.388  0.00  0.00    +0.032 C 
ATOM     16  C   UNL     1      -2.791   1.869  23.670  0.00  0.00    +0.011 C 
ATOM     17  C   UNL     1      -1.926   5.355  25.287  0.00  0.00    +0.007 C 
ATOM     18  C   UNL     1      -4.969   3.163  23.967  0.00  0.00    +0.186 C 
ATOM     19  C   UNL     1       0.211   3.991  25.151  0.00  0.00    +0.119 C 
ATOM     20  C   UNL     1      -4.075   2.383  23.011  0.00  0.00    +0.046 C 
ATOM     21  C   UNL     1      -0.434   5.360  24.964  0.00  0.00    +0.032 C 
ATOM     22  C   UNL     1      -2.378   2.339  26.114  0.00  0.00    +0.012 C 
ATOM     25  C   UNL     1      -4.661   5.619  23.590  0.00  0.00    +0.017 C 
ENDROOT
BRANCH  19   5
ATOM      5  O   UNL     1       0.299   3.726  26.547  0.00  0.00    -0.391 OA
ATOM     40  H   UNL     1       1.223   3.860  26.818  0.00  0.00    +0.210 HD
ENDBRANCH  19   5
BRANCH  18   4
ATOM      4  O   UNL     1      -5.396   2.266  24.989  0.00  0.00    -0.446 OA
BRANCH   4  28
ATOM      8  O   UNL     1      -6.188   0.238  24.289  0.00  0.00    -0.226 OA
ATOM     11  N   UNL     1      -3.976   0.534  24.995  0.00  0.00    -0.251 N 
ATOM     28  C   UNL     1      -5.270   0.929  24.715  0.00  0.00    +0.405 C 
ATOM     42  H   UNL     1      -3.351   1.258  25.342  0.00  0.00    +0.158 HD
BRANCH  11  33
ATOM     33  C   UNL     1      -3.409  -0.754  24.858  0.00  0.00    +0.037 A 
ATOM     34  C   UNL     1      -2.073  -0.969  25.199  0.00  0.00    +0.035 A 
ATOM     35  C   UNL     1      -4.186  -1.810  24.381  0.00  0.00    +0.023 A 
ATOM     36  C   UNL     1      -1.515  -2.240  25.063  0.00  0.00    +0.057 A 
ATOM     37  C   UNL     1      -3.628  -3.081  24.246  0.00  0.00    +0.002 A 
ATOM     38  C   UNL     1      -2.292  -3.295  24.587  0.00  0.00    +0.012 A 
BRANCH  36  39
ATOM      1  F   UNL     1       0.247  -3.791  25.522  0.00  0.00    -0.166 F 
ATOM      2  F   UNL     1       0.798  -1.940  24.533  0.00  0.00    -0.166 F 
ATOM      3  F   UNL     1       0.241  -1.922  26.635  0.00  0.00    -0.166 F 
ATOM     39  C   UNL     1      -0.087  -2.470  25.428  0.00  0.00    +0.417 C 
ENDBRANCH  36  39
ENDBRANCH  11  33
ENDBRANCH   4  28
ENDBRANCH  18   4
BRANCH  15  23
ATOM     23  C   UNL     1       0.150   1.528  24.570  0.00  0.00    +0.102 C 
BRANCH  23  26
ATOM      7  O   UNL     1      -0.367   0.716  22.393  0.00  0.00    -0.276 OA
ATOM     10  N   UNL     1       1.862   0.731  23.012  0.00  0.00    -0.296 N 
ATOM     26  C   UNL     1       0.512   0.956  23.222  0.00  0.00    +0.216 C 
ATOM     27  C   UNL     1       2.395   0.271  21.727  0.00  0.00    +0.101 C 
ATOM     29  C   UNL     1       2.937   1.000  23.964  0.00  0.00    +0.108 C 
ATOM     30  C   UNL     1       3.891   0.586  21.820  0.00  0.00    +0.026 C 
ATOM     31  C   UNL     1       4.190   0.443  23.308  0.00  0.00    +0.021 C 
BRANCH  27  32
ATOM     32  C   UNL     1       2.133  -1.218  21.515  0.00  0.00    +0.178 C 
BRANCH  32   9
ATOM      9  O   UNL     1       0.994  -1.359  20.686  0.00  0.00    -0.393 OA
ATOM     43  H   UNL     1       1.314  -1.495  19.777  0.00  0.00    +0.209 HD
ENDBRANCH  32   9
ENDBRANCH  27  32
ENDBRANCH  23  26
ENDBRANCH  15  23
BRANCH  14  24
ATOM     24  C   UNL     1      -4.775   4.810  25.928  0.00  0.00    +0.166 C 
BRANCH  24   6
ATOM      6  O   UNL     1      -6.184   4.746  25.901  0.00  0.00    -0.394 OA
ATOM     41  H   UNL     1      -6.514   5.365  26.574  0.00  0.00    +0.209 HD
ENDBRANCH  24   6
ENDBRANCH  14  24
TORSDOF 11
ENDMDL
