MODEL 1
REMARK VINA RESULT:       2.0      0.000      0.000
REMARK  Name = 38027105
REMARK  13 active torsions:
REMARK  status: ('A' for Active; 'I' for Inactive)
REMARK    1  A    between atoms: N_4  and  C_15
REMARK    2  A    between atoms: N_5  and  C_22
REMARK    3  A    between atoms: N_6  and  C_23
REMARK    4  A    between atoms: C_8  and  C_12
REMARK    5  A    between atoms: C_9  and  C_15
REMARK    6  A    between atoms: C_11  and  C_16
REMARK    7  A    between atoms: C_12  and  C_17
REMARK    8  A    between atoms: C_12  and  C_18
REMARK    9  A    between atoms: C_13  and  C_19
REMARK   10  A    between atoms: C_16  and  C_20
REMARK   11  A    between atoms: C_21  and  C_24
REMARK   12  A    between atoms: C_22  and  C_23
REMARK   13  A    between atoms: C_33  and  C_34
REMARK                            x       y       z     vdW  Elec       q    Type
REMARK                         _______ _______ _______ _____ _____    ______ ____
ROOT
ATOM      8  C   UNL     1      -4.531   2.271  25.488  0.00  0.00    +0.000 C 
ATOM      9  C   UNL     1      -4.164   2.405  23.989  0.00  0.00    +0.032 C 
ATOM     10  C   UNL     1      -4.548   3.653  26.161  0.00  0.00    +0.012 C 
ATOM     11  C   UNL     1      -3.189   4.369  26.053  0.00  0.00    +0.023 C 
ATOM     13  C   UNL     1      -2.630   4.308  24.646  0.00  0.00    -0.073 C 
ATOM     14  C   UNL     1      -3.088   3.433  23.733  0.00  0.00    -0.022 C 
ATOM     19  C   UNL     1      -1.564   5.309  24.297  0.00  0.00    +0.039 C 
ENDROOT
BRANCH   8  12
ATOM     12  C   UNL     1      -5.886   1.583  25.683  0.00  0.00    -0.013 C 
ATOM     17  C   UNL     1      -6.473   1.941  27.045  0.00  0.00    +0.007 C 
ATOM     18  C   UNL     1      -6.846   1.971  24.563  0.00  0.00    +0.007 C 
ENDBRANCH   8  12
BRANCH   9  15
ATOM     15  C   UNL     1      -3.731   1.055  23.404  0.00  0.00    +0.112 C 
BRANCH  15   4
ATOM      2  O   UNL     1      -1.869   1.433  21.251  0.00  0.00    -0.270 OA
ATOM      4  N   UNL     1      -2.311   0.907  23.468  0.00  0.00    -0.311 N 
ATOM     21  C   UNL     1      -1.477   1.111  22.369  0.00  0.00    +0.244 C 
ATOM     35  H   UNL     1      -1.905   0.733  24.382  0.00  0.00    +0.149 HD
BRANCH  21  24
ATOM     24  C   UNL     1      -0.024   0.892  22.594  0.00  0.00    +0.037 A 
ATOM     29  C   UNL     1       0.701   1.783  23.386  0.00  0.00    +0.014 A 
ATOM     30  C   UNL     1       0.614  -0.205  22.015  0.00  0.00    +0.014 A 
ATOM     31  C   UNL     1       2.064   1.578  23.596  0.00  0.00    +0.019 A 
ATOM     32  C   UNL     1       1.978  -0.410  22.226  0.00  0.00    +0.019 A 
ATOM     33  C   UNL     1       2.702   0.481  23.017  0.00  0.00    +0.052 A 
BRANCH  33  34
ATOM      7  N   UNL     1       5.234   0.100  23.408  0.00  0.00    -0.191 NA
ATOM     34  C   UNL     1       4.099   0.270  23.233  0.00  0.00    +0.099 C 
ENDBRANCH  33  34
ENDBRANCH  21  24
ENDBRANCH  15   4
ENDBRANCH   9  15
BRANCH  11  16
ATOM     16  C   UNL     1      -2.186   3.806  27.066  0.00  0.00    +0.103 C 
BRANCH  16  20
ATOM      1  O   UNL     1      -0.119   3.462  25.855  0.00  0.00    -0.276 OA
ATOM      5  N   UNL     1      -1.394   1.626  26.491  0.00  0.00    -0.314 N 
ATOM     20  C   UNL     1      -1.109   2.979  26.400  0.00  0.00    +0.214 C 
ATOM     36  H   UNL     1      -2.237   1.326  26.972  0.00  0.00    +0.149 HD
BRANCH   5  22
ATOM     22  C   UNL     1      -0.538   0.600  25.939  0.00  0.00    +0.119 C 
BRANCH  22  23
ATOM     23  C   UNL     1      -1.030  -0.789  26.317  0.00  0.00    +0.103 C 
BRANCH  23   6
ATOM      3  O   UNL     1      -3.680  -3.286  24.230  0.00  0.00    -0.377 OA
ATOM      6  N   UNL     1      -1.923  -1.310  25.286  0.00  0.00    -0.297 NA
ATOM     25  C   UNL     1      -3.283  -1.493  25.815  0.00  0.00    +0.112 C 
ATOM     26  C   UNL     1      -1.417  -2.581  24.750  0.00  0.00    +0.112 C 
ATOM     27  C   UNL     1      -4.193  -2.048  24.724  0.00  0.00    +0.175 C 
ATOM     28  C   UNL     1      -2.372  -3.111  23.684  0.00  0.00    +0.175 C 
ENDBRANCH  23   6
ENDBRANCH  22  23
ENDBRANCH   5  22
ENDBRANCH  16  20
ENDBRANCH  11  16
TORSDOF 10
ENDMDL
MODEL 2
REMARK VINA RESULT:       2.2      1.898      4.534
REMARK  Name = 38027105
REMARK  13 active torsions:
REMARK  status: ('A' for Active; 'I' for Inactive)
REMARK    1  A    between atoms: N_4  and  C_15
REMARK    2  A    between atoms: N_5  and  C_22
REMARK    3  A    between atoms: N_6  and  C_23
REMARK    4  A    between atoms: C_8  and  C_12
REMARK    5  A    between atoms: C_9  and  C_15
REMARK    6  A    between atoms: C_11  and  C_16
REMARK    7  A    between atoms: C_12  and  C_17
REMARK    8  A    between atoms: C_12  and  C_18
REMARK    9  A    between atoms: C_13  and  C_19
REMARK   10  A    between atoms: C_16  and  C_20
REMARK   11  A    between atoms: C_21  and  C_24
REMARK   12  A    between atoms: C_22  and  C_23
REMARK   13  A    between atoms: C_33  and  C_34
REMARK                            x       y       z     vdW  Elec       q    Type
REMARK                         _______ _______ _______ _____ _____    ______ ____
ROOT
ATOM      8  C   UNL     1      -3.694  -0.926  24.913  0.00  0.00    +0.000 C 
ATOM      9  C   UNL     1      -2.324  -0.300  24.550  0.00  0.00    +0.032 C 
ATOM     10  C   UNL     1      -4.767  -0.486  23.905  0.00  0.00    +0.012 C 
ATOM     11  C   UNL     1      -4.928   1.044  23.856  0.00  0.00    +0.023 C 
ATOM     13  C   UNL     1      -3.589   1.749  23.769  0.00  0.00    -0.073 C 
ATOM     14  C   UNL     1      -2.435   1.128  24.069  0.00  0.00    -0.022 C 
ATOM     19  C   UNL     1      -3.603   3.171  23.282  0.00  0.00    +0.039 C 
ENDROOT
BRANCH   8  12
ATOM     12  C   UNL     1      -3.625  -2.455  24.963  0.00  0.00    -0.013 C 
ATOM     17  C   UNL     1      -4.403  -3.061  23.799  0.00  0.00    +0.007 C 
ATOM     18  C   UNL     1      -2.174  -2.924  24.944  0.00  0.00    +0.007 C 
ENDBRANCH   8  12
BRANCH   9  15
ATOM     15  C   UNL     1      -1.355  -0.365  25.736  0.00  0.00    +0.112 C 
BRANCH  15   4
ATOM      2  O   UNL     1      -0.380  -0.973  23.105  0.00  0.00    -0.270 OA
ATOM      4  N   UNL     1      -0.001  -0.286  25.289  0.00  0.00    -0.311 N 
ATOM     21  C   UNL     1       0.388  -0.600  23.987  0.00  0.00    +0.244 C 
ATOM     35  H   UNL     1       0.679   0.103  25.936  0.00  0.00    +0.149 HD
BRANCH  21  24
ATOM     24  C   UNL     1       1.840  -0.491  23.687  0.00  0.00    +0.037 A 
ATOM     29  C   UNL     1       2.704  -1.527  24.040  0.00  0.00    +0.014 A 
ATOM     30  C   UNL     1       2.337   0.647  23.051  0.00  0.00    +0.014 A 
ATOM     31  C   UNL     1       4.067  -1.425  23.758  0.00  0.00    +0.019 A 
ATOM     32  C   UNL     1       3.699   0.749  22.769  0.00  0.00    +0.019 A 
ATOM     33  C   UNL     1       4.564  -0.287  23.122  0.00  0.00    +0.052 A 
BRANCH  33  34
ATOM      7  N   UNL     1       7.093  -0.095  22.600  0.00  0.00    -0.191 NA
ATOM     34  C   UNL     1       5.959  -0.181  22.834  0.00  0.00    +0.099 C 
ENDBRANCH  33  34
ENDBRANCH  21  24
ENDBRANCH  15   4
ENDBRANCH   9  15
BRANCH  11  16
ATOM     16  C   UNL     1      -5.738   1.554  25.054  0.00  0.00    +0.103 C 
BRANCH  16  20
ATOM      1  O   UNL     1      -5.933   3.964  25.144  0.00  0.00    -0.276 OA
ATOM      5  N   UNL     1      -4.181   2.914  26.252  0.00  0.00    -0.314 N 
ATOM     20  C   UNL     1      -5.324   2.948  25.469  0.00  0.00    +0.214 C 
ATOM     36  H   UNL     1      -3.756   2.018  26.473  0.00  0.00    +0.149 HD
BRANCH   5  22
ATOM     22  C   UNL     1      -3.557   4.102  26.790  0.00  0.00    +0.119 C 
BRANCH  22  23
ATOM     23  C   UNL     1      -2.784   4.852  25.715  0.00  0.00    +0.103 C 
BRANCH  23   6
ATOM      3  O   UNL     1       0.590   2.445  25.058  0.00  0.00    -0.377 OA
ATOM      6  N   UNL     1      -1.400   4.387  25.667  0.00  0.00    -0.297 NA
ATOM     25  C   UNL     1      -0.987   4.116  24.282  0.00  0.00    +0.112 C 
ATOM     26  C   UNL     1      -1.227   3.180  26.488  0.00  0.00    +0.112 C 
ATOM     27  C   UNL     1       0.456   3.621  24.259  0.00  0.00    +0.175 C 
ATOM     28  C   UNL     1       0.222   2.706  26.413  0.00  0.00    +0.175 C 
ENDBRANCH  23   6
ENDBRANCH  22  23
ENDBRANCH   5  22
ENDBRANCH  16  20
ENDBRANCH  11  16
TORSDOF 10
ENDMDL
MODEL 3
REMARK VINA RESULT:       2.3      1.804      3.217
REMARK  Name = 38027105
REMARK  13 active torsions:
REMARK  status: ('A' for Active; 'I' for Inactive)
REMARK    1  A    between atoms: N_4  and  C_15
REMARK    2  A    between atoms: N_5  and  C_22
REMARK    3  A    between atoms: N_6  and  C_23
REMARK    4  A    between atoms: C_8  and  C_12
REMARK    5  A    between atoms: C_9  and  C_15
REMARK    6  A    between atoms: C_11  and  C_16
REMARK    7  A    between atoms: C_12  and  C_17
REMARK    8  A    between atoms: C_12  and  C_18
REMARK    9  A    between atoms: C_13  and  C_19
REMARK   10  A    between atoms: C_16  and  C_20
REMARK   11  A    between atoms: C_21  and  C_24
REMARK   12  A    between atoms: C_22  and  C_23
REMARK   13  A    between atoms: C_33  and  C_34
REMARK                            x       y       z     vdW  Elec       q    Type
REMARK                         _______ _______ _______ _____ _____    ______ ____
ROOT
ATOM      8  C   UNL     1      -2.780   2.197  23.757  0.00  0.00    +0.000 C 
ATOM      9  C   UNL     1      -1.480   2.470  24.554  0.00  0.00    +0.032 C 
ATOM     10  C   UNL     1      -3.530   3.511  23.489  0.00  0.00    +0.012 C 
ATOM     11  C   UNL     1      -3.900   4.247  24.790  0.00  0.00    +0.023 C 
ATOM     13  C   UNL     1      -2.728   4.320  25.748  0.00  0.00    -0.073 C 
ATOM     14  C   UNL     1      -1.649   3.528  25.618  0.00  0.00    -0.022 C 
ATOM     19  C   UNL     1      -2.805   5.358  26.832  0.00  0.00    +0.039 C 
ENDROOT
BRANCH   8  12
ATOM     12  C   UNL     1      -2.496   1.482  22.432  0.00  0.00    -0.013 C 
ATOM     17  C   UNL     1      -3.244   0.153  22.375  0.00  0.00    +0.007 C 
ATOM     18  C   UNL     1      -2.882   2.370  21.255  0.00  0.00    +0.007 C 
ENDBRANCH   8  12
BRANCH   9  15
ATOM     15  C   UNL     1      -0.942   1.184  25.192  0.00  0.00    +0.112 C 
BRANCH  15   4
ATOM      2  O   UNL     1       0.065  -0.108  22.834  0.00  0.00    -0.270 OA
ATOM      4  N   UNL     1       0.430   0.984  24.849  0.00  0.00    -0.311 N 
ATOM     21  C   UNL     1       0.834   0.344  23.678  0.00  0.00    +0.244 C 
ATOM     35  H   UNL     1       1.125   1.412  25.453  0.00  0.00    +0.149 HD
BRANCH  21  24
ATOM     24  C   UNL     1       2.300   0.192  23.480  0.00  0.00    +0.037 A 
ATOM     29  C   UNL     1       3.045   1.250  22.960  0.00  0.00    +0.014 A 
ATOM     30  C   UNL     1       2.928  -1.007  23.816  0.00  0.00    +0.014 A 
ATOM     31  C   UNL     1       4.421   1.107  22.773  0.00  0.00    +0.019 A 
ATOM     32  C   UNL     1       4.303  -1.149  23.630  0.00  0.00    +0.019 A 
ATOM     33  C   UNL     1       5.049  -0.092  23.109  0.00  0.00    +0.052 A 
BRANCH  33  34
ATOM      7  N   UNL     1       7.603  -0.357  22.764  0.00  0.00    -0.191 NA
ATOM     34  C   UNL     1       6.458  -0.238  22.919  0.00  0.00    +0.099 C 
ENDBRANCH  33  34
ENDBRANCH  21  24
ENDBRANCH  15   4
ENDBRANCH   9  15
BRANCH  11  16
ATOM     16  C   UNL     1      -5.118   3.603  25.462  0.00  0.00    +0.103 C 
BRANCH  16  20
ATOM      1  O   UNL     1      -6.164   1.947  24.040  0.00  0.00    -0.276 OA
ATOM      5  N   UNL     1      -4.616   1.273  25.637  0.00  0.00    -0.314 N 
ATOM     20  C   UNL     1      -5.378   2.205  24.948  0.00  0.00    +0.214 C 
ATOM     36  H   UNL     1      -3.986   1.589  26.369  0.00  0.00    +0.149 HD
BRANCH   5  22
ATOM     22  C   UNL     1      -4.662  -0.144  25.359  0.00  0.00    +0.119 C 
BRANCH  22  23
ATOM     23  C   UNL     1      -3.873  -0.934  26.393  0.00  0.00    +0.103 C 
BRANCH  23   6
ATOM      3  O   UNL     1      -1.578  -3.046  23.585  0.00  0.00    -0.377 OA
ATOM      6  N   UNL     1      -3.105  -1.995  25.745  0.00  0.00    -0.297 NA
ATOM     25  C   UNL     1      -1.721  -1.564  25.500  0.00  0.00    +0.112 C 
ATOM     26  C   UNL     1      -3.737  -2.397  24.480  0.00  0.00    +0.112 C 
ATOM     27  C   UNL     1      -0.945  -2.683  24.813  0.00  0.00    +0.175 C 
ATOM     28  C   UNL     1      -2.914  -3.497  23.817  0.00  0.00    +0.175 C 
ENDBRANCH  23   6
ENDBRANCH  22  23
ENDBRANCH   5  22
ENDBRANCH  16  20
ENDBRANCH  11  16
TORSDOF 10
ENDMDL
MODEL 4
REMARK VINA RESULT:       3.4      2.000      3.316
REMARK  Name = 38027105
REMARK  13 active torsions:
REMARK  status: ('A' for Active; 'I' for Inactive)
REMARK    1  A    between atoms: N_4  and  C_15
REMARK    2  A    between atoms: N_5  and  C_22
REMARK    3  A    between atoms: N_6  and  C_23
REMARK    4  A    between atoms: C_8  and  C_12
REMARK    5  A    between atoms: C_9  and  C_15
REMARK    6  A    between atoms: C_11  and  C_16
REMARK    7  A    between atoms: C_12  and  C_17
REMARK    8  A    between atoms: C_12  and  C_18
REMARK    9  A    between atoms: C_13  and  C_19
REMARK   10  A    between atoms: C_16  and  C_20
REMARK   11  A    between atoms: C_21  and  C_24
REMARK   12  A    between atoms: C_22  and  C_23
REMARK   13  A    between atoms: C_33  and  C_34
REMARK                            x       y       z     vdW  Elec       q    Type
REMARK                         _______ _______ _______ _____ _____    ______ ____
ROOT
ATOM      8  C   UNL     1      -2.695   2.598  23.468  0.00  0.00    +0.000 C 
ATOM      9  C   UNL     1      -1.161   2.407  23.383  0.00  0.00    +0.032 C 
ATOM     10  C   UNL     1      -3.041   4.089  23.613  0.00  0.00    +0.012 C 
ATOM     11  C   UNL     1      -2.401   4.716  24.865  0.00  0.00    +0.023 C 
ATOM     13  C   UNL     1      -0.937   4.345  24.995  0.00  0.00    -0.073 C 
ATOM     14  C   UNL     1      -0.397   3.319  24.314  0.00  0.00    -0.022 C 
ATOM     19  C   UNL     1      -0.097   5.212  25.890  0.00  0.00    +0.039 C 
ENDROOT
BRANCH   8  12
ATOM     12  C   UNL     1      -3.409   2.017  22.244  0.00  0.00    -0.013 C 
ATOM     17  C   UNL     1      -4.256   3.088  21.564  0.00  0.00    +0.007 C 
ATOM     18  C   UNL     1      -2.398   1.428  21.267  0.00  0.00    +0.007 C 
ENDBRANCH   8  12
BRANCH   9  15
ATOM     15  C   UNL     1      -0.769   0.950  23.662  0.00  0.00    +0.112 C 
BRANCH  15   4
ATOM      2  O   UNL     1       0.839  -0.607  21.863  0.00  0.00    -0.270 OA
ATOM      4  N   UNL     1       0.651   0.805  23.696  0.00  0.00    -0.311 N 
ATOM     21  C   UNL     1       1.357   0.026  22.779  0.00  0.00    +0.244 C 
ATOM     35  H   UNL     1       1.158   1.372  24.369  0.00  0.00    +0.149 HD
BRANCH  21  24
ATOM     24  C   UNL     1       2.830  -0.043  22.967  0.00  0.00    +0.037 A 
ATOM     29  C   UNL     1       3.629   1.044  22.610  0.00  0.00    +0.014 A 
ATOM     30  C   UNL     1       3.412  -1.192  23.499  0.00  0.00    +0.014 A 
ATOM     31  C   UNL     1       5.011   0.980  22.786  0.00  0.00    +0.019 A 
ATOM     32  C   UNL     1       4.795  -1.257  23.675  0.00  0.00    +0.019 A 
ATOM     33  C   UNL     1       5.594  -0.170  23.318  0.00  0.00    +0.052 A 
BRANCH  33  34
ATOM      7  N   UNL     1       8.160  -0.290  23.644  0.00  0.00    -0.191 NA
ATOM     34  C   UNL     1       7.010  -0.237  23.498  0.00  0.00    +0.099 C 
ENDBRANCH  33  34
ENDBRANCH  21  24
ENDBRANCH  15   4
ENDBRANCH   9  15
BRANCH  11  16
ATOM     16  C   UNL     1      -3.177   4.337  26.131  0.00  0.00    +0.103 C 
BRANCH  16  20
ATOM      1  O   UNL     1      -5.514   4.269  25.508  0.00  0.00    -0.276 OA
ATOM      5  N   UNL     1      -4.378   2.282  25.910  0.00  0.00    -0.314 N 
ATOM     20  C   UNL     1      -4.491   3.660  25.812  0.00  0.00    +0.214 C 
ATOM     36  H   UNL     1      -3.482   1.874  26.161  0.00  0.00    +0.149 HD
BRANCH   5  22
ATOM     22  C   UNL     1      -5.479   1.380  25.661  0.00  0.00    +0.119 C 
BRANCH  22  23
ATOM     23  C   UNL     1      -5.173   0.446  24.499  0.00  0.00    +0.103 C 
BRANCH  23   6
ATOM      3  O   UNL     1      -2.162  -2.460  24.819  0.00  0.00    -0.377 OA
ATOM      6  N   UNL     1      -4.397  -0.702  24.961  0.00  0.00    -0.297 NA
ATOM     25  C   UNL     1      -3.060  -0.284  25.406  0.00  0.00    +0.112 C 
ATOM     26  C   UNL     1      -4.280  -1.713  23.900  0.00  0.00    +0.112 C 
ATOM     27  C   UNL     1      -2.265  -1.501  25.872  0.00  0.00    +0.175 C 
ATOM     28  C   UNL     1      -3.456  -2.896  24.401  0.00  0.00    +0.175 C 
ENDBRANCH  23   6
ENDBRANCH  22  23
ENDBRANCH   5  22
ENDBRANCH  16  20
ENDBRANCH  11  16
TORSDOF 10
ENDMDL
MODEL 5
REMARK VINA RESULT:       3.4      2.403      5.397
REMARK  Name = 38027105
REMARK  13 active torsions:
REMARK  status: ('A' for Active; 'I' for Inactive)
REMARK    1  A    between atoms: N_4  and  C_15
REMARK    2  A    between atoms: N_5  and  C_22
REMARK    3  A    between atoms: N_6  and  C_23
REMARK    4  A    between atoms: C_8  and  C_12
REMARK    5  A    between atoms: C_9  and  C_15
REMARK    6  A    between atoms: C_11  and  C_16
REMARK    7  A    between atoms: C_12  and  C_17
REMARK    8  A    between atoms: C_12  and  C_18
REMARK    9  A    between atoms: C_13  and  C_19
REMARK   10  A    between atoms: C_16  and  C_20
REMARK   11  A    between atoms: C_21  and  C_24
REMARK   12  A    between atoms: C_22  and  C_23
REMARK   13  A    between atoms: C_33  and  C_34
REMARK                            x       y       z     vdW  Elec       q    Type
REMARK                         _______ _______ _______ _____ _____    ______ ____
ROOT
ATOM      8  C   UNL     1      -3.141   1.969  23.416  0.00  0.00    +0.000 C 
ATOM      9  C   UNL     1      -4.025   3.133  23.928  0.00  0.00    +0.032 C 
ATOM     10  C   UNL     1      -3.954   0.666  23.356  0.00  0.00    +0.012 C 
ATOM     11  C   UNL     1      -4.529   0.275  24.729  0.00  0.00    +0.023 C 
ATOM     13  C   UNL     1      -5.188   1.452  25.420  0.00  0.00    -0.073 C 
ATOM     14  C   UNL     1      -4.962   2.721  25.039  0.00  0.00    -0.022 C 
ATOM     19  C   UNL     1      -6.151   1.133  26.530  0.00  0.00    +0.039 C 
ENDROOT
BRANCH   8  12
ATOM     12  C   UNL     1      -2.543   2.272  22.039  0.00  0.00    -0.013 C 
ATOM     17  C   UNL     1      -2.294   0.977  21.272  0.00  0.00    +0.007 C 
ATOM     18  C   UNL     1      -3.464   3.198  21.251  0.00  0.00    +0.007 C 
ENDBRANCH   8  12
BRANCH   9  15
ATOM     15  C   UNL     1      -3.167   4.315  24.396  0.00  0.00    +0.112 C 
BRANCH  15   4
ATOM      2  O   UNL     1      -0.436   3.449  24.214  0.00  0.00    -0.270 OA
ATOM      4  N   UNL     1      -2.321   3.930  25.480  0.00  0.00    -0.311 N 
ATOM     21  C   UNL     1      -0.999   3.521  25.303  0.00  0.00    +0.244 C 
ATOM     35  H   UNL     1      -2.688   4.051  26.419  0.00  0.00    +0.149 HD
BRANCH  21  24
ATOM     24  C   UNL     1      -0.260   3.127  26.530  0.00  0.00    +0.037 A 
ATOM     29  C   UNL     1       1.130   3.009  26.499  0.00  0.00    +0.014 A 
ATOM     30  C   UNL     1      -0.955   2.878  27.714  0.00  0.00    +0.014 A 
ATOM     31  C   UNL     1       1.824   2.639  27.651  0.00  0.00    +0.019 A 
ATOM     32  C   UNL     1      -0.261   2.508  28.866  0.00  0.00    +0.019 A 
ATOM     33  C   UNL     1       1.129   2.389  28.834  0.00  0.00    +0.052 A 
BRANCH  33  34
ATOM      7  N   UNL     1       2.418   1.703  30.973  0.00  0.00    -0.191 NA
ATOM     34  C   UNL     1       1.840   2.011  30.014  0.00  0.00    +0.099 C 
ENDBRANCH  33  34
ENDBRANCH  21  24
ENDBRANCH  15   4
ENDBRANCH   9  15
BRANCH  11  16
ATOM     16  C   UNL     1      -3.452  -0.352  25.622  0.00  0.00    +0.103 C 
BRANCH  16  20
ATOM      1  O   UNL     1      -2.602  -2.174  24.276  0.00  0.00    -0.276 OA
ATOM      5  N   UNL     1      -1.215  -0.379  24.780  0.00  0.00    -0.314 N 
ATOM     20  C   UNL     1      -2.405  -1.089  24.818  0.00  0.00    +0.214 C 
ATOM     36  H   UNL     1      -1.156   0.517  25.255  0.00  0.00    +0.149 HD
BRANCH   5  22
ATOM     22  C   UNL     1      -0.038  -0.847  24.083  0.00  0.00    +0.119 C 
BRANCH  22  23
ATOM     23  C   UNL     1       0.555   0.248  23.209  0.00  0.00    +0.103 C 
BRANCH  23   6
ATOM      3  O   UNL     1       4.724  -0.108  23.523  0.00  0.00    -0.377 OA
ATOM      6  N   UNL     1       1.949  -0.053  22.893  0.00  0.00    -0.297 NA
ATOM     25  C   UNL     1       2.502  -1.026  23.846  0.00  0.00    +0.112 C 
ATOM     26  C   UNL     1       2.760   1.172  22.897  0.00  0.00    +0.112 C 
ATOM     27  C   UNL     1       3.961  -1.314  23.504  0.00  0.00    +0.175 C 
ATOM     28  C   UNL     1       4.213   0.832  22.576  0.00  0.00    +0.175 C 
ENDBRANCH  23   6
ENDBRANCH  22  23
ENDBRANCH   5  22
ENDBRANCH  16  20
ENDBRANCH  11  16
TORSDOF 10
ENDMDL
MODEL 6
REMARK VINA RESULT:       3.7      2.125      5.457
REMARK  Name = 38027105
REMARK  13 active torsions:
REMARK  status: ('A' for Active; 'I' for Inactive)
REMARK    1  A    between atoms: N_4  and  C_15
REMARK    2  A    between atoms: N_5  and  C_22
REMARK    3  A    between atoms: N_6  and  C_23
REMARK    4  A    between atoms: C_8  and  C_12
REMARK    5  A    between atoms: C_9  and  C_15
REMARK    6  A    between atoms: C_11  and  C_16
REMARK    7  A    between atoms: C_12  and  C_17
REMARK    8  A    between atoms: C_12  and  C_18
REMARK    9  A    between atoms: C_13  and  C_19
REMARK   10  A    between atoms: C_16  and  C_20
REMARK   11  A    between atoms: C_21  and  C_24
REMARK   12  A    between atoms: C_22  and  C_23
REMARK   13  A    between atoms: C_33  and  C_34
REMARK                            x       y       z     vdW  Elec       q    Type
REMARK                         _______ _______ _______ _____ _____    ______ ____
ROOT
ATOM      8  C   UNL     1      -1.878   0.395  24.851  0.00  0.00    +0.000 C 
ATOM      9  C   UNL     1      -0.915  -0.786  24.570  0.00  0.00    +0.032 C 
ATOM     10  C   UNL     1      -2.905   0.004  25.925  0.00  0.00    +0.012 C 
ATOM     11  C   UNL     1      -3.741  -1.222  25.513  0.00  0.00    +0.023 C 
ATOM     13  C   UNL     1      -2.873  -2.338  24.969  0.00  0.00    -0.073 C 
ATOM     14  C   UNL     1      -1.608  -2.128  24.566  0.00  0.00    -0.022 C 
ATOM     19  C   UNL     1      -3.478  -3.714  24.942  0.00  0.00    +0.039 C 
ENDROOT
BRANCH   8  12
ATOM     12  C   UNL     1      -1.123   1.653  25.289  0.00  0.00    -0.013 C 
ATOM     17  C   UNL     1      -0.263   1.358  26.514  0.00  0.00    +0.007 C 
ATOM     18  C   UNL     1      -0.268   2.187  24.144  0.00  0.00    +0.007 C 
ENDBRANCH   8  12
BRANCH   9  15
ATOM     15  C   UNL     1      -0.172  -0.590  23.243  0.00  0.00    +0.112 C 
BRANCH  15   4
ATOM      2  O   UNL     1       1.850  -0.205  21.241  0.00  0.00    -0.270 OA
ATOM      4  N   UNL     1       1.237  -0.493  23.461  0.00  0.00    -0.311 N 
ATOM     21  C   UNL     1       2.154  -0.305  22.427  0.00  0.00    +0.244 C 
ATOM     35  H   UNL     1       1.556  -0.474  24.425  0.00  0.00    +0.149 HD
BRANCH  21  24
ATOM     24  C   UNL     1       3.587  -0.251  22.816  0.00  0.00    +0.037 A 
ATOM     29  C   UNL     1       4.353   0.871  22.501  0.00  0.00    +0.014 A 
ATOM     30  C   UNL     1       4.165  -1.322  23.498  0.00  0.00    +0.014 A 
ATOM     31  C   UNL     1       5.698   0.921  22.866  0.00  0.00    +0.019 A 
ATOM     32  C   UNL     1       5.510  -1.272  23.863  0.00  0.00    +0.019 A 
ATOM     33  C   UNL     1       6.276  -0.150  23.548  0.00  0.00    +0.052 A 
BRANCH  33  34
ATOM      7  N   UNL     1       8.774  -0.058  24.226  0.00  0.00    -0.191 NA
ATOM     34  C   UNL     1       7.655  -0.098  23.922  0.00  0.00    +0.099 C 
ENDBRANCH  33  34
ENDBRANCH  21  24
ENDBRANCH  15   4
ENDBRANCH   9  15
BRANCH  11  16
ATOM     16  C   UNL     1      -4.831  -0.834  24.507  0.00  0.00    +0.103 C 
BRANCH  16  20
ATOM      1  O   UNL     1      -4.335   1.310  23.501  0.00  0.00    -0.276 OA
ATOM      5  N   UNL     1      -5.834   1.195  25.273  0.00  0.00    -0.314 N 
ATOM     20  C   UNL     1      -4.950   0.665  24.347  0.00  0.00    +0.214 C 
ATOM     36  H   UNL     1      -6.301   0.574  25.927  0.00  0.00    +0.149 HD
BRANCH   5  22
ATOM     22  C   UNL     1      -6.141   2.605  25.353  0.00  0.00    +0.119 C 
BRANCH  22  23
ATOM     23  C   UNL     1      -5.203   3.319  26.315  0.00  0.00    +0.103 C 
BRANCH  23   6
ATOM      3  O   UNL     1      -1.994   5.363  24.545  0.00  0.00    -0.377 OA
ATOM      6  N   UNL     1      -3.925   3.597  25.665  0.00  0.00    -0.297 NA
ATOM     25  C   UNL     1      -3.082   4.453  26.512  0.00  0.00    +0.112 C 
ATOM     26  C   UNL     1      -4.133   4.234  24.357  0.00  0.00    +0.112 C 
ATOM     27  C   UNL     1      -1.759   4.739  25.807  0.00  0.00    +0.175 C 
ATOM     28  C   UNL     1      -2.785   4.524  23.702  0.00  0.00    +0.175 C 
ENDBRANCH  23   6
ENDBRANCH  22  23
ENDBRANCH   5  22
ENDBRANCH  16  20
ENDBRANCH  11  16
TORSDOF 10
ENDMDL
MODEL 7
REMARK VINA RESULT:       4.5      2.057      4.932
REMARK  Name = 38027105
REMARK  13 active torsions:
REMARK  status: ('A' for Active; 'I' for Inactive)
REMARK    1  A    between atoms: N_4  and  C_15
REMARK    2  A    between atoms: N_5  and  C_22
REMARK    3  A    between atoms: N_6  and  C_23
REMARK    4  A    between atoms: C_8  and  C_12
REMARK    5  A    between atoms: C_9  and  C_15
REMARK    6  A    between atoms: C_11  and  C_16
REMARK    7  A    between atoms: C_12  and  C_17
REMARK    8  A    between atoms: C_12  and  C_18
REMARK    9  A    between atoms: C_13  and  C_19
REMARK   10  A    between atoms: C_16  and  C_20
REMARK   11  A    between atoms: C_21  and  C_24
REMARK   12  A    between atoms: C_22  and  C_23
REMARK   13  A    between atoms: C_33  and  C_34
REMARK                            x       y       z     vdW  Elec       q    Type
REMARK                         _______ _______ _______ _____ _____    ______ ____
ROOT
ATOM      8  C   UNL     1      -4.049   3.536  25.649  0.00  0.00    +0.000 C 
ATOM      9  C   UNL     1      -3.822   4.332  24.340  0.00  0.00    +0.032 C 
ATOM     10  C   UNL     1      -3.183   4.109  26.781  0.00  0.00    +0.012 C 
ATOM     11  C   UNL     1      -1.681   4.073  26.441  0.00  0.00    +0.023 C 
ATOM     13  C   UNL     1      -1.406   4.599  25.047  0.00  0.00    -0.073 C 
ATOM     14  C   UNL     1      -2.378   4.721  24.126  0.00  0.00    -0.022 C 
ATOM     19  C   UNL     1       0.004   5.025  24.750  0.00  0.00    +0.039 C 
ENDROOT
BRANCH   8  12
ATOM     12  C   UNL     1      -5.522   3.541  26.070  0.00  0.00    -0.013 C 
ATOM     17  C   UNL     1      -6.252   4.719  25.434  0.00  0.00    +0.007 C 
ATOM     18  C   UNL     1      -6.188   2.223  25.690  0.00  0.00    +0.007 C 
ENDBRANCH   8  12
BRANCH   9  15
ATOM     15  C   UNL     1      -4.327   3.549  23.122  0.00  0.00    +0.112 C 
BRANCH  15   4
ATOM      2  O   UNL     1      -2.012   1.853  23.225  0.00  0.00    -0.270 OA
ATOM      4  N   UNL     1      -4.309   2.145  23.380  0.00  0.00    -0.311 N 
ATOM     21  C   UNL     1      -3.135   1.393  23.412  0.00  0.00    +0.244 C 
ATOM     35  H   UNL     1      -5.191   1.710  23.636  0.00  0.00    +0.149 HD
BRANCH  21  24
ATOM     24  C   UNL     1      -3.289  -0.063  23.669  0.00  0.00    +0.037 A 
ATOM     29  C   UNL     1      -4.534  -0.671  23.503  0.00  0.00    +0.014 A 
ATOM     30  C   UNL     1      -2.190  -0.820  24.074  0.00  0.00    +0.014 A 
ATOM     31  C   UNL     1      -4.679  -2.037  23.744  0.00  0.00    +0.019 A 
ATOM     32  C   UNL     1      -2.336  -2.187  24.315  0.00  0.00    +0.019 A 
ATOM     33  C   UNL     1      -3.580  -2.795  24.148  0.00  0.00    +0.052 A 
BRANCH  33  34
ATOM      7  N   UNL     1      -3.849  -5.332  24.595  0.00  0.00    -0.191 NA
ATOM     34  C   UNL     1      -3.728  -4.194  24.395  0.00  0.00    +0.099 C 
ENDBRANCH  33  34
ENDBRANCH  21  24
ENDBRANCH  15   4
ENDBRANCH   9  15
BRANCH  11  16
ATOM     16  C   UNL     1      -1.108   2.662  26.618  0.00  0.00    +0.103 C 
BRANCH  16  20
ATOM      1  O   UNL     1       1.302   2.861  26.548  0.00  0.00    -0.276 OA
ATOM      5  N   UNL     1       0.173   1.967  24.724  0.00  0.00    -0.314 N 
ATOM     20  C   UNL     1       0.261   2.521  25.991  0.00  0.00    +0.214 C 
ATOM     36  H   UNL     1      -0.738   1.712  24.355  0.00  0.00    +0.149 HD
BRANCH   5  22
ATOM     22  C   UNL     1       1.327   1.719  23.889  0.00  0.00    +0.119 C 
BRANCH  22  23
ATOM     23  C   UNL     1       1.271   0.329  23.272  0.00  0.00    +0.103 C 
BRANCH  23   6
ATOM      3  O   UNL     1       5.353  -0.562  23.664  0.00  0.00    -0.377 OA
ATOM      6  N   UNL     1       2.619  -0.153  22.984  0.00  0.00    -0.297 NA
ATOM     25  C   UNL     1       3.026  -1.181  23.953  0.00  0.00    +0.112 C 
ATOM     26  C   UNL     1       3.583   0.957  22.995  0.00  0.00    +0.112 C 
ATOM     27  C   UNL     1       4.440  -1.660  23.638  0.00  0.00    +0.175 C 
ATOM     28  C   UNL     1       4.985   0.428  22.703  0.00  0.00    +0.175 C 
ENDBRANCH  23   6
ENDBRANCH  22  23
ENDBRANCH   5  22
ENDBRANCH  16  20
ENDBRANCH  11  16
TORSDOF 10
ENDMDL
