MODEL 1
REMARK VINA RESULT:      -1.3      0.000      0.000
REMARK  Name = 45783377
REMARK  8 active torsions:
REMARK  status: ('A' for Active; 'I' for Inactive)
REMARK    1  A    between atoms: O_4  and  C_29
REMARK    2  A    between atoms: O_4  and  C_30
REMARK    3  A    between atoms: N_5  and  C_14
REMARK    4  A    between atoms: N_8  and  C_26
REMARK    5  A    between atoms: C_10  and  C_15
REMARK    6  A    between atoms: C_14  and  C_16
REMARK    7  A    between atoms: C_17  and  C_20
REMARK    8  A    between atoms: C_26  and  C_29
REMARK                            x       y       z     vdW  Elec       q    Type
REMARK                         _______ _______ _______ _____ _____    ______ ____
ROOT
ATOM      3  O   UNL     1      -0.750  -2.696  25.335  0.00  0.00    -0.336 OA
ATOM      6  N   UNL     1      -1.145  -0.878  24.086  0.00  0.00    -0.190 NA
ATOM      7  N   UNL     1       0.505  -2.145  25.041  0.00  0.00    -0.056 NA
ATOM     15  C   UNL     1      -1.665  -1.889  24.735  0.00  0.00    +0.245 A 
ATOM     17  C   UNL     1       0.188  -1.076  24.303  0.00  0.00    +0.205 A 
ENDROOT
BRANCH  17  20
ATOM      8  N   UNL     1       0.107   1.725  24.768  0.00  0.00    -0.326 N 
ATOM      9  N   UNL     1       2.073   2.039  23.489  0.00  0.00    -0.240 NA
ATOM     20  C   UNL     1       1.179  -0.189  23.766  0.00  0.00    +0.062 A 
ATOM     24  C   UNL     1       1.155   1.179  23.982  0.00  0.00    +0.130 A 
ATOM     25  C   UNL     1       2.212  -0.708  22.993  0.00  0.00    +0.016 A 
ATOM     27  C   UNL     1       3.176   0.146  22.469  0.00  0.00    +0.020 A 
ATOM     28  C   UNL     1       3.064   1.499  22.743  0.00  0.00    +0.113 A 
ATOM     31  H   UNL     1      -0.347   1.087  25.412  0.00  0.00    +0.148 HD
BRANCH   8  26
ATOM     26  C   UNL     1      -0.000   3.119  25.045  0.00  0.00    +0.131 C 
BRANCH  26  29
ATOM     29  C   UNL     1      -1.169   3.375  25.981  0.00  0.00    +0.178 C 
BRANCH  29   4
ATOM      4  O   UNL     1      -1.720   4.658  25.713  0.00  0.00    -0.381 OA
ATOM     30  C   UNL     1      -0.938   5.373  24.768  0.00  0.00    +0.194 C 
ENDBRANCH  29   4
ENDBRANCH  26  29
ENDBRANCH   8  26
ENDBRANCH  17  20
BRANCH  15  10
ATOM      5  N   UNL     1      -4.044  -1.217  24.453  0.00  0.00    -0.287 NA
ATOM     10  C   UNL     1      -3.119  -2.276  24.906  0.00  0.00    +0.146 C 
ATOM     11  C   UNL     1      -3.506  -3.515  24.077  0.00  0.00    +0.030 C 
ATOM     12  C   UNL     1      -4.695  -3.074  23.234  0.00  0.00    +0.017 C 
ATOM     13  C   UNL     1      -5.259  -1.895  24.003  0.00  0.00    +0.085 C 
BRANCH   5  14
ATOM     14  C   UNL     1      -4.321  -0.219  25.478  0.00  0.00    +0.120 C 
BRANCH  14  16
ATOM      1  F   UNL     1      -5.728   4.452  25.584  0.00  0.00    -0.202 F 
ATOM      2  F   UNL     1      -4.184   5.016  23.399  0.00  0.00    -0.202 F 
ATOM     16  C   UNL     1      -4.285   1.180  24.922  0.00  0.00    -0.030 A 
ATOM     18  C   UNL     1      -5.038   2.188  25.522  0.00  0.00    +0.046 A 
ATOM     19  C   UNL     1      -3.496   1.467  23.808  0.00  0.00    +0.008 A 
ATOM     21  C   UNL     1      -5.004   3.484  25.008  0.00  0.00    +0.159 A 
ATOM     22  C   UNL     1      -3.462   2.764  23.293  0.00  0.00    +0.041 A 
ATOM     23  C   UNL     1      -4.216   3.772  23.893  0.00  0.00    +0.158 A 
ENDBRANCH  14  16
ENDBRANCH   5  14
ENDBRANCH  15  10
TORSDOF 7
ENDMDL
MODEL 2
REMARK VINA RESULT:      -0.4      2.572      5.120
REMARK  Name = 45783377
REMARK  8 active torsions:
REMARK  status: ('A' for Active; 'I' for Inactive)
REMARK    1  A    between atoms: O_4  and  C_29
REMARK    2  A    between atoms: O_4  and  C_30
REMARK    3  A    between atoms: N_5  and  C_14
REMARK    4  A    between atoms: N_8  and  C_26
REMARK    5  A    between atoms: C_10  and  C_15
REMARK    6  A    between atoms: C_14  and  C_16
REMARK    7  A    between atoms: C_17  and  C_20
REMARK    8  A    between atoms: C_26  and  C_29
REMARK                            x       y       z     vdW  Elec       q    Type
REMARK                         _______ _______ _______ _____ _____    ______ ____
ROOT
ATOM      3  O   UNL     1      -0.666   3.455  25.719  0.00  0.00    -0.336 OA
ATOM      6  N   UNL     1      -0.975   2.331  23.806  0.00  0.00    -0.190 NA
ATOM      7  N   UNL     1       0.539   2.789  25.459  0.00  0.00    -0.056 NA
ATOM     15  C   UNL     1      -1.502   3.132  24.698  0.00  0.00    +0.245 A 
ATOM     17  C   UNL     1       0.278   2.150  24.315  0.00  0.00    +0.205 A 
ENDROOT
BRANCH  17  20
ATOM      8  N   UNL     1      -0.256  -0.566  23.678  0.00  0.00    -0.326 N 
ATOM      9  N   UNL     1       1.894  -0.811  22.721  0.00  0.00    -0.240 NA
ATOM     20  C   UNL     1       1.246   1.321  23.657  0.00  0.00    +0.062 A 
ATOM     24  C   UNL     1       1.002  -0.005  23.339  0.00  0.00    +0.130 A 
ATOM     25  C   UNL     1       2.485   1.854  23.319  0.00  0.00    +0.016 A 
ATOM     27  C   UNL     1       3.428   1.056  22.681  0.00  0.00    +0.020 A 
ATOM     28  C   UNL     1       3.087  -0.258  22.406  0.00  0.00    +0.113 A 
ATOM     31  H   UNL     1      -1.020   0.090  23.796  0.00  0.00    +0.148 HD
BRANCH   8  26
ATOM     26  C   UNL     1      -0.598  -1.920  23.390  0.00  0.00    +0.131 C 
BRANCH  26  29
ATOM     29  C   UNL     1      -0.734  -2.707  24.683  0.00  0.00    +0.178 C 
BRANCH  29   4
ATOM      4  O   UNL     1       0.036  -2.083  25.702  0.00  0.00    -0.381 OA
ATOM     30  C   UNL     1      -0.689  -1.040  26.337  0.00  0.00    +0.194 C 
ENDBRANCH  29   4
ENDBRANCH  26  29
ENDBRANCH   8  26
ENDBRANCH  17  20
BRANCH  15  10
ATOM      5  N   UNL     1      -3.903   2.787  25.254  0.00  0.00    -0.287 NA
ATOM     10  C   UNL     1      -2.890   3.734  24.746  0.00  0.00    +0.146 C 
ATOM     11  C   UNL     1      -2.979   4.947  25.691  0.00  0.00    +0.030 C 
ATOM     12  C   UNL     1      -4.109   4.617  26.657  0.00  0.00    +0.017 C 
ATOM     13  C   UNL     1      -4.936   3.595  25.902  0.00  0.00    +0.085 C 
BRANCH   5  14
ATOM     14  C   UNL     1      -4.453   1.923  24.217  0.00  0.00    +0.120 C 
BRANCH  14  16
ATOM      1  F   UNL     1      -4.365  -2.765  22.863  0.00  0.00    -0.202 F 
ATOM      2  F   UNL     1      -3.637  -3.529  25.386  0.00  0.00    -0.202 F 
ATOM     16  C   UNL     1      -4.235   0.466  24.530  0.00  0.00    -0.030 A 
ATOM     18  C   UNL     1      -4.405  -0.493  23.532  0.00  0.00    +0.046 A 
ATOM     19  C   UNL     1      -3.863   0.077  25.817  0.00  0.00    +0.008 A 
ATOM     21  C   UNL     1      -4.202  -1.843  23.821  0.00  0.00    +0.159 A 
ATOM     22  C   UNL     1      -3.662  -1.274  26.105  0.00  0.00    +0.041 A 
ATOM     23  C   UNL     1      -3.831  -2.233  25.108  0.00  0.00    +0.158 A 
ENDBRANCH  14  16
ENDBRANCH   5  14
ENDBRANCH  15  10
TORSDOF 7
ENDMDL
MODEL 3
REMARK VINA RESULT:      -0.2      2.383      5.697
REMARK  Name = 45783377
REMARK  8 active torsions:
REMARK  status: ('A' for Active; 'I' for Inactive)
REMARK    1  A    between atoms: O_4  and  C_29
REMARK    2  A    between atoms: O_4  and  C_30
REMARK    3  A    between atoms: N_5  and  C_14
REMARK    4  A    between atoms: N_8  and  C_26
REMARK    5  A    between atoms: C_10  and  C_15
REMARK    6  A    between atoms: C_14  and  C_16
REMARK    7  A    between atoms: C_17  and  C_20
REMARK    8  A    between atoms: C_26  and  C_29
REMARK                            x       y       z     vdW  Elec       q    Type
REMARK                         _______ _______ _______ _____ _____    ______ ____
ROOT
ATOM      3  O   UNL     1      -4.030   2.234  23.827  0.00  0.00    -0.336 OA
ATOM      6  N   UNL     1      -4.168   0.659  25.414  0.00  0.00    -0.190 NA
ATOM      7  N   UNL     1      -3.512   1.063  23.259  0.00  0.00    -0.056 NA
ATOM     15  C   UNL     1      -4.393   1.909  25.096  0.00  0.00    +0.245 A 
ATOM     17  C   UNL     1      -3.628   0.180  24.256  0.00  0.00    +0.205 A 
ENDROOT
BRANCH  17  20
ATOM      8  N   UNL     1      -0.886  -0.551  24.141  0.00  0.00    -0.326 N 
ATOM      9  N   UNL     1      -1.457  -2.840  23.949  0.00  0.00    -0.240 NA
ATOM     20  C   UNL     1      -3.212  -1.187  24.128  0.00  0.00    +0.062 A 
ATOM     24  C   UNL     1      -1.880  -1.561  24.070  0.00  0.00    +0.130 A 
ATOM     25  C   UNL     1      -4.174  -2.189  24.056  0.00  0.00    +0.016 A 
ATOM     27  C   UNL     1      -3.778  -3.517  23.932  0.00  0.00    +0.020 A 
ATOM     28  C   UNL     1      -2.420  -3.787  23.883  0.00  0.00    +0.113 A 
ATOM     31  H   UNL     1      -1.165   0.319  24.581  0.00  0.00    +0.148 HD
BRANCH   8  26
ATOM     26  C   UNL     1       0.509  -0.840  24.091  0.00  0.00    +0.131 C 
BRANCH  26  29
ATOM     29  C   UNL     1       1.121  -0.229  22.841  0.00  0.00    +0.178 C 
BRANCH  29   4
ATOM      4  O   UNL     1       2.504  -0.555  22.782  0.00  0.00    -0.381 OA
ATOM     30  C   UNL     1       3.293   0.581  22.460  0.00  0.00    +0.194 C 
ENDBRANCH  29   4
ENDBRANCH  26  29
ENDBRANCH   8  26
ENDBRANCH  17  20
BRANCH  15  10
ATOM      5  N   UNL     1      -4.347   4.326  25.684  0.00  0.00    -0.287 NA
ATOM     10  C   UNL     1      -4.990   3.020  25.932  0.00  0.00    +0.146 C 
ATOM     11  C   UNL     1      -6.482   3.256  25.631  0.00  0.00    +0.030 C 
ATOM     12  C   UNL     1      -6.589   4.733  25.282  0.00  0.00    +0.017 C 
ATOM     13  C   UNL     1      -5.366   5.344  25.937  0.00  0.00    +0.085 C 
BRANCH   5  14
ATOM     14  C   UNL     1      -3.149   4.539  26.487  0.00  0.00    +0.120 C 
BRANCH  14  16
ATOM      1  F   UNL     1       0.269   4.673  23.006  0.00  0.00    -0.202 F 
ATOM      2  F   UNL     1       1.443   2.415  24.006  0.00  0.00    -0.202 F 
ATOM     16  C   UNL     1      -1.922   3.971  25.823  0.00  0.00    -0.030 A 
ATOM     18  C   UNL     1      -1.385   4.597  24.700  0.00  0.00    +0.046 A 
ATOM     19  C   UNL     1      -1.323   2.819  26.335  0.00  0.00    +0.008 A 
ATOM     21  C   UNL     1      -0.247   4.072  24.085  0.00  0.00    +0.159 A 
ATOM     22  C   UNL     1      -0.186   2.294  25.720  0.00  0.00    +0.041 A 
ATOM     23  C   UNL     1       0.352   2.920  24.596  0.00  0.00    +0.158 A 
ENDBRANCH  14  16
ENDBRANCH   5  14
ENDBRANCH  15  10
TORSDOF 7
ENDMDL
MODEL 4
REMARK VINA RESULT:      -0.0      1.799      3.621
REMARK  Name = 45783377
REMARK  8 active torsions:
REMARK  status: ('A' for Active; 'I' for Inactive)
REMARK    1  A    between atoms: O_4  and  C_29
REMARK    2  A    between atoms: O_4  and  C_30
REMARK    3  A    between atoms: N_5  and  C_14
REMARK    4  A    between atoms: N_8  and  C_26
REMARK    5  A    between atoms: C_10  and  C_15
REMARK    6  A    between atoms: C_14  and  C_16
REMARK    7  A    between atoms: C_17  and  C_20
REMARK    8  A    between atoms: C_26  and  C_29
REMARK                            x       y       z     vdW  Elec       q    Type
REMARK                         _______ _______ _______ _____ _____    ______ ____
ROOT
ATOM      3  O   UNL     1      -1.364  -0.664  26.400  0.00  0.00    -0.336 OA
ATOM      6  N   UNL     1      -2.301   0.629  24.828  0.00  0.00    -0.190 NA
ATOM      7  N   UNL     1      -0.628   0.528  26.386  0.00  0.00    -0.056 NA
ATOM     15  C   UNL     1      -2.330  -0.521  25.454  0.00  0.00    +0.245 A 
ATOM     17  C   UNL     1      -1.242   1.239  25.434  0.00  0.00    +0.205 A 
ENDROOT
BRANCH  17  20
ATOM      8  N   UNL     1       1.103   1.689  23.896  0.00  0.00    -0.326 N 
ATOM      9  N   UNL     1       0.745   4.028  23.952  0.00  0.00    -0.240 NA
ATOM     20  C   UNL     1      -0.819   2.559  25.065  0.00  0.00    +0.062 A 
ATOM     24  C   UNL     1       0.321   2.797  24.315  0.00  0.00    +0.130 A 
ATOM     25  C   UNL     1      -1.574   3.655  25.468  0.00  0.00    +0.016 A 
ATOM     27  C   UNL     1      -1.171   4.937  25.113  0.00  0.00    +0.020 A 
ATOM     28  C   UNL     1      -0.014   5.070  24.361  0.00  0.00    +0.113 A 
ATOM     31  H   UNL     1       0.623   0.798  23.846  0.00  0.00    +0.148 HD
BRANCH   8  26
ATOM     26  C   UNL     1       2.291   1.836  23.122  0.00  0.00    +0.131 C 
BRANCH  26  29
ATOM     29  C   UNL     1       2.836   0.469  22.743  0.00  0.00    +0.178 C 
BRANCH  29   4
ATOM      4  O   UNL     1       4.200   0.592  22.360  0.00  0.00    -0.381 OA
ATOM     30  C   UNL     1       5.072   0.335  23.452  0.00  0.00    +0.194 C 
ENDBRANCH  29   4
ENDBRANCH  26  29
ENDBRANCH   8  26
ENDBRANCH  17  20
BRANCH  15  10
ATOM      5  N   UNL     1      -4.276  -1.451  24.213  0.00  0.00    -0.287 NA
ATOM     10  C   UNL     1      -3.273  -1.691  25.270  0.00  0.00    +0.146 C 
ATOM     11  C   UNL     1      -2.547  -2.978  24.836  0.00  0.00    +0.030 C 
ATOM     12  C   UNL     1      -3.249  -3.420  23.560  0.00  0.00    +0.017 C 
ATOM     13  C   UNL     1      -4.612  -2.761  23.657  0.00  0.00    +0.085 C 
BRANCH   5  14
ATOM     14  C   UNL     1      -5.455  -0.739  24.690  0.00  0.00    +0.120 C 
BRANCH  14  16
ATOM      1  F   UNL     1      -3.733   3.390  22.742  0.00  0.00    -0.202 F 
ATOM      2  F   UNL     1      -4.603   4.827  24.900  0.00  0.00    -0.202 F 
ATOM     16  C   UNL     1      -5.227   0.748  24.746  0.00  0.00    -0.030 A 
ATOM     18  C   UNL     1      -4.572   1.393  23.698  0.00  0.00    +0.046 A 
ATOM     19  C   UNL     1      -5.671   1.481  25.848  0.00  0.00    +0.008 A 
ATOM     21  C   UNL     1      -4.361   2.771  23.749  0.00  0.00    +0.159 A 
ATOM     22  C   UNL     1      -5.460   2.859  25.899  0.00  0.00    +0.041 A 
ATOM     23  C   UNL     1      -4.805   3.504  24.850  0.00  0.00    +0.158 A 
ENDBRANCH  14  16
ENDBRANCH   5  14
ENDBRANCH  15  10
TORSDOF 7
ENDMDL
MODEL 5
REMARK VINA RESULT:       0.1      3.580      6.662
REMARK  Name = 45783377
REMARK  8 active torsions:
REMARK  status: ('A' for Active; 'I' for Inactive)
REMARK    1  A    between atoms: O_4  and  C_29
REMARK    2  A    between atoms: O_4  and  C_30
REMARK    3  A    between atoms: N_5  and  C_14
REMARK    4  A    between atoms: N_8  and  C_26
REMARK    5  A    between atoms: C_10  and  C_15
REMARK    6  A    between atoms: C_14  and  C_16
REMARK    7  A    between atoms: C_17  and  C_20
REMARK    8  A    between atoms: C_26  and  C_29
REMARK                            x       y       z     vdW  Elec       q    Type
REMARK                         _______ _______ _______ _____ _____    ______ ____
ROOT
ATOM      3  O   UNL     1      -3.701  -1.408  23.921  0.00  0.00    -0.336 OA
ATOM      6  N   UNL     1      -2.617   0.410  24.655  0.00  0.00    -0.190 NA
ATOM      7  N   UNL     1      -4.683  -0.438  24.156  0.00  0.00    -0.056 NA
ATOM     15  C   UNL     1      -2.514  -0.828  24.240  0.00  0.00    +0.245 A 
ATOM     17  C   UNL     1      -3.966   0.605  24.585  0.00  0.00    +0.205 A 
ENDROOT
BRANCH  17  20
ATOM      8  N   UNL     1      -2.506   3.042  24.552  0.00  0.00    -0.326 N 
ATOM      9  N   UNL     1      -4.408   4.243  25.287  0.00  0.00    -0.240 NA
ATOM     20  C   UNL     1      -4.566   1.854  24.954  0.00  0.00    +0.062 A 
ATOM     24  C   UNL     1      -3.870   3.052  24.944  0.00  0.00    +0.130 A 
ATOM     25  C   UNL     1      -5.902   1.881  25.342  0.00  0.00    +0.016 A 
ATOM     27  C   UNL     1      -6.491   3.089  25.701  0.00  0.00    +0.020 A 
ATOM     28  C   UNL     1      -5.708   4.231  25.658  0.00  0.00    +0.113 A 
ATOM     31  H   UNL     1      -2.215   2.264  23.971  0.00  0.00    +0.148 HD
BRANCH   8  26
ATOM     26  C   UNL     1      -1.710   4.224  24.510  0.00  0.00    +0.131 C 
BRANCH  26  29
ATOM     29  C   UNL     1      -0.239   3.864  24.644  0.00  0.00    +0.178 C 
BRANCH  29   4
ATOM      4  O   UNL     1      -0.119   2.508  25.055  0.00  0.00    -0.381 OA
ATOM     30  C   UNL     1       0.165   2.408  26.443  0.00  0.00    +0.194 C 
ENDBRANCH  29   4
ENDBRANCH  26  29
ENDBRANCH   8  26
ENDBRANCH  17  20
BRANCH  15  10
ATOM      5  N   UNL     1      -0.029  -0.935  24.322  0.00  0.00    -0.287 NA
ATOM     10  C   UNL     1      -1.277  -1.684  24.070  0.00  0.00    +0.146 C 
ATOM     11  C   UNL     1      -1.231  -2.864  25.058  0.00  0.00    +0.030 C 
ATOM     12  C   UNL     1       0.104  -2.730  25.777  0.00  0.00    +0.017 C 
ATOM     13  C   UNL     1       0.943  -1.907  24.819  0.00  0.00    +0.085 C 
BRANCH   5  14
ATOM     14  C   UNL     1       0.459  -0.220  23.150  0.00  0.00    +0.120 C 
BRANCH  14  16
ATOM      1  F   UNL     1       4.912  -2.053  23.936  0.00  0.00    -0.202 F 
ATOM      2  F   UNL     1       6.068   0.314  23.202  0.00  0.00    -0.202 F 
ATOM     16  C   UNL     1       1.958  -0.077  23.164  0.00  0.00    -0.030 A 
ATOM     18  C   UNL     1       2.756  -1.152  23.552  0.00  0.00    +0.046 A 
ATOM     19  C   UNL     1       2.547   1.131  22.789  0.00  0.00    +0.008 A 
ATOM     21  C   UNL     1       4.145  -1.021  23.564  0.00  0.00    +0.159 A 
ATOM     22  C   UNL     1       3.936   1.262  22.802  0.00  0.00    +0.041 A 
ATOM     23  C   UNL     1       4.735   0.187  23.190  0.00  0.00    +0.158 A 
ENDBRANCH  14  16
ENDBRANCH   5  14
ENDBRANCH  15  10
TORSDOF 7
ENDMDL
MODEL 6
REMARK VINA RESULT:       0.3      2.828      5.293
REMARK  Name = 45783377
REMARK  8 active torsions:
REMARK  status: ('A' for Active; 'I' for Inactive)
REMARK    1  A    between atoms: O_4  and  C_29
REMARK    2  A    between atoms: O_4  and  C_30
REMARK    3  A    between atoms: N_5  and  C_14
REMARK    4  A    between atoms: N_8  and  C_26
REMARK    5  A    between atoms: C_10  and  C_15
REMARK    6  A    between atoms: C_14  and  C_16
REMARK    7  A    between atoms: C_17  and  C_20
REMARK    8  A    between atoms: C_26  and  C_29
REMARK                            x       y       z     vdW  Elec       q    Type
REMARK                         _______ _______ _______ _____ _____    ______ ____
ROOT
ATOM      3  O   UNL     1      -1.192   3.161  23.841  0.00  0.00    -0.336 OA
ATOM      6  N   UNL     1      -2.094   1.206  24.460  0.00  0.00    -0.190 NA
ATOM      7  N   UNL     1      -0.133   2.246  23.902  0.00  0.00    -0.056 NA
ATOM     15  C   UNL     1      -2.310   2.467  24.183  0.00  0.00    +0.245 A 
ATOM     17  C   UNL     1      -0.745   1.117  24.273  0.00  0.00    +0.205 A 
ENDROOT
BRANCH  17  20
ATOM      8  N   UNL     1       1.676   0.543  22.904  0.00  0.00    -0.326 N 
ATOM      9  N   UNL     1       1.833  -1.564  23.970  0.00  0.00    -0.240 NA
ATOM     20  C   UNL     1      -0.038  -0.116  24.467  0.00  0.00    +0.062 A 
ATOM     24  C   UNL     1       1.144  -0.412  23.808  0.00  0.00    +0.130 A 
ATOM     25  C   UNL     1      -0.546  -1.063  25.350  0.00  0.00    +0.016 A 
ATOM     27  C   UNL     1       0.135  -2.260  25.544  0.00  0.00    +0.020 A 
ATOM     28  C   UNL     1       1.309  -2.461  24.837  0.00  0.00    +0.113 A 
ATOM     31  H   UNL     1       1.386   1.503  23.047  0.00  0.00    +0.148 HD
BRANCH   8  26
ATOM     26  C   UNL     1       2.886   0.326  22.181  0.00  0.00    +0.131 C 
BRANCH  26  29
ATOM     29  C   UNL     1       4.043   1.013  22.887  0.00  0.00    +0.178 C 
BRANCH  29   4
ATOM      4  O   UNL     1       5.182   0.164  22.867  0.00  0.00    -0.381 OA
ATOM     30  C   UNL     1       5.398  -0.448  24.131  0.00  0.00    +0.194 C 
ENDBRANCH  29   4
ENDBRANCH  26  29
ENDBRANCH   8  26
ENDBRANCH  17  20
BRANCH  15  10
ATOM      5  N   UNL     1      -4.618   2.652  25.095  0.00  0.00    -0.287 NA
ATOM     10  C   UNL     1      -3.609   3.244  24.193  0.00  0.00    +0.146 C 
ATOM     11  C   UNL     1      -3.435   4.689  24.697  0.00  0.00    +0.030 C 
ATOM     12  C   UNL     1      -4.428   4.834  25.841  0.00  0.00    +0.017 C 
ATOM     13  C   UNL     1      -5.456   3.756  25.560  0.00  0.00    +0.085 C 
BRANCH   5  14
ATOM     14  C   UNL     1      -5.401   1.595  24.466  0.00  0.00    +0.120 C 
BRANCH  14  16
ATOM      1  F   UNL     1      -3.210  -1.698  27.323  0.00  0.00    -0.202 F 
ATOM      2  F   UNL     1      -3.092  -3.483  25.255  0.00  0.00    -0.202 F 
ATOM     16  C   UNL     1      -4.783   0.239  24.677  0.00  0.00    -0.030 A 
ATOM     18  C   UNL     1      -4.272  -0.108  25.927  0.00  0.00    +0.046 A 
ATOM     19  C   UNL     1      -4.724  -0.672  23.621  0.00  0.00    +0.008 A 
ATOM     21  C   UNL     1      -3.701  -1.365  26.123  0.00  0.00    +0.159 A 
ATOM     22  C   UNL     1      -4.152  -1.930  23.818  0.00  0.00    +0.041 A 
ATOM     23  C   UNL     1      -3.641  -2.276  25.068  0.00  0.00    +0.158 A 
ENDBRANCH  14  16
ENDBRANCH   5  14
ENDBRANCH  15  10
TORSDOF 7
ENDMDL
MODEL 7
REMARK VINA RESULT:       0.3      2.966      4.616
REMARK  Name = 45783377
REMARK  8 active torsions:
REMARK  status: ('A' for Active; 'I' for Inactive)
REMARK    1  A    between atoms: O_4  and  C_29
REMARK    2  A    between atoms: O_4  and  C_30
REMARK    3  A    between atoms: N_5  and  C_14
REMARK    4  A    between atoms: N_8  and  C_26
REMARK    5  A    between atoms: C_10  and  C_15
REMARK    6  A    between atoms: C_14  and  C_16
REMARK    7  A    between atoms: C_17  and  C_20
REMARK    8  A    between atoms: C_26  and  C_29
REMARK                            x       y       z     vdW  Elec       q    Type
REMARK                         _______ _______ _______ _____ _____    ______ ____
ROOT
ATOM      3  O   UNL     1      -3.422   2.293  22.185  0.00  0.00    -0.336 OA
ATOM      6  N   UNL     1      -2.374   1.668  24.064  0.00  0.00    -0.190 NA
ATOM      7  N   UNL     1      -2.118   1.945  21.807  0.00  0.00    -0.056 NA
ATOM     15  C   UNL     1      -3.487   2.101  23.529  0.00  0.00    +0.245 A 
ATOM     17  C   UNL     1      -1.564   1.587  22.969  0.00  0.00    +0.205 A 
ENDROOT
BRANCH  17  20
ATOM      8  N   UNL     1       0.185   2.559  24.984  0.00  0.00    -0.326 N 
ATOM      9  N   UNL     1       1.951   1.214  24.165  0.00  0.00    -0.240 NA
ATOM     20  C   UNL     1      -0.202   1.146  23.069  0.00  0.00    +0.062 A 
ATOM     24  C   UNL     1       0.664   1.609  24.046  0.00  0.00    +0.130 A 
ATOM     25  C   UNL     1       0.283   0.216  22.156  0.00  0.00    +0.016 A 
ATOM     27  C   UNL     1       1.602  -0.216  22.248  0.00  0.00    +0.020 A 
ATOM     28  C   UNL     1       2.388   0.308  23.261  0.00  0.00    +0.113 A 
ATOM     31  H   UNL     1      -0.818   2.580  25.126  0.00  0.00    +0.148 HD
BRANCH   8  26
ATOM     26  C   UNL     1       1.003   3.093  26.024  0.00  0.00    +0.131 C 
BRANCH  26  29
ATOM     29  C   UNL     1       0.633   2.456  27.353  0.00  0.00    +0.178 C 
BRANCH  29   4
ATOM      4  O   UNL     1       1.691   2.652  28.283  0.00  0.00    -0.381 OA
ATOM     30  C   UNL     1       1.278   2.360  29.610  0.00  0.00    +0.194 C 
ENDBRANCH  29   4
ENDBRANCH  26  29
ENDBRANCH   8  26
ENDBRANCH  17  20
BRANCH  15  10
ATOM      5  N   UNL     1      -4.934   1.803  25.531  0.00  0.00    -0.287 NA
ATOM     10  C   UNL     1      -4.813   2.411  24.191  0.00  0.00    +0.146 C 
ATOM     11  C   UNL     1      -5.023   3.918  24.425  0.00  0.00    +0.030 C 
ATOM     12  C   UNL     1      -5.316   4.054  25.912  0.00  0.00    +0.017 C 
ATOM     13  C   UNL     1      -5.816   2.677  26.304  0.00  0.00    +0.085 C 
BRANCH   5  14
ATOM     14  C   UNL     1      -5.417   0.428  25.498  0.00  0.00    +0.120 C 
BRANCH  14  16
ATOM      1  F   UNL     1      -0.893  -1.306  26.079  0.00  0.00    -0.202 F 
ATOM      2  F   UNL     1      -1.321  -3.202  24.156  0.00  0.00    -0.202 F 
ATOM     16  C   UNL     1      -4.322  -0.542  25.139  0.00  0.00    -0.030 A 
ATOM     18  C   UNL     1      -3.090  -0.473  25.787  0.00  0.00    +0.046 A 
ATOM     19  C   UNL     1      -4.542  -1.509  24.158  0.00  0.00    +0.008 A 
ATOM     21  C   UNL     1      -2.076  -1.372  25.456  0.00  0.00    +0.159 A 
ATOM     22  C   UNL     1      -3.527  -2.408  23.826  0.00  0.00    +0.041 A 
ATOM     23  C   UNL     1      -2.295  -2.339  24.475  0.00  0.00    +0.158 A 
ENDBRANCH  14  16
ENDBRANCH   5  14
ENDBRANCH  15  10
TORSDOF 7
ENDMDL
