MODEL 1
REMARK VINA RESULT:      -3.2      0.000      0.000
REMARK  Name = 7050109
REMARK  9 active torsions:
REMARK  status: ('A' for Active; 'I' for Inactive)
REMARK    1  A    between atoms: O_3  and  C_11
REMARK    2  A    between atoms: O_4  and  C_13
REMARK    3  A    between atoms: N_8  and  C_12
REMARK    4  A    between atoms: N_9  and  C_18
REMARK    5  A    between atoms: C_15  and  C_17
REMARK    6  A    between atoms: C_18  and  C_20
REMARK    7  A    between atoms: C_18  and  C_23
REMARK    8  A    between atoms: C_19  and  C_21
REMARK    9  A    between atoms: C_20  and  C_22
REMARK                            x       y       z     vdW  Elec       q    Type
REMARK                         _______ _______ _______ _____ _____    ______ ____
ROOT
ATOM     11  C   UNL     1      -1.384  -1.888  25.054  0.00  0.00    +0.167 C 
ATOM     12  C   UNL     1      -0.907  -1.123  23.805  0.00  0.00    +0.128 C 
ATOM     13  C   UNL     1      -2.915  -1.930  25.137  0.00  0.00    +0.149 C 
ATOM     14  C   UNL     1      -3.534  -0.521  25.107  0.00  0.00    +0.074 C 
ATOM     15  C   UNL     1      -2.836   0.416  24.164  0.00  0.00    +0.015 C 
ATOM     16  C   UNL     1      -1.664   0.156  23.567  0.00  0.00    +0.006 C 
ENDROOT
BRANCH  15  17
ATOM      5  O   UNL     1      -3.484   2.144  22.709  0.00  0.00    -0.271 OA
ATOM      9  N   UNL     1      -4.059   2.291  24.964  0.00  0.00    -0.300 N 
ATOM     17  C   UNL     1      -3.484   1.694  23.855  0.00  0.00    +0.241 C 
ATOM     37  H   UNL     1      -4.071   1.786  25.846  0.00  0.00    +0.150 HD
BRANCH   9  18
ATOM     18  C   UNL     1      -4.752   3.557  24.909  0.00  0.00    +0.163 C 
BRANCH  18  23
ATOM      7  O   UNL     1      -6.221   2.450  26.496  0.00  0.00    -0.274 OA
ATOM     10  N   UNL     1      -6.643   4.642  25.955  0.00  0.00    -0.328 N 
ATOM     23  C   UNL     1      -5.940   3.459  25.854  0.00  0.00    +0.231 C 
ATOM     38  H   UNL     1      -7.451   4.716  26.563  0.00  0.00    +0.145 HD
ATOM     39  H   UNL     1      -6.385   5.474  25.436  0.00  0.00    +0.145 HD
ENDBRANCH  18  23
BRANCH  18  20
ATOM     20  C   UNL     1      -3.849   4.731  25.307  0.00  0.00    +0.067 C 
BRANCH  20  22
ATOM     22  C   UNL     1      -2.390   4.350  25.369  0.00  0.00    -0.045 A 
ATOM     24  C   UNL     1      -1.970   3.339  26.232  0.00  0.00    +0.004 A 
ATOM     25  C   UNL     1      -1.462   5.010  24.563  0.00  0.00    +0.004 A 
ATOM     28  C   UNL     1      -0.621   2.986  26.290  0.00  0.00    +0.000 A 
ATOM     29  C   UNL     1      -0.114   4.657  24.621  0.00  0.00    +0.000 A 
ATOM     32  C   UNL     1       0.307   3.646  25.485  0.00  0.00    +0.000 A 
ENDBRANCH  20  22
ENDBRANCH  18  20
ENDBRANCH   9  18
ENDBRANCH  15  17
BRANCH  12   8
ATOM      6  O   UNL     1       0.781  -0.328  21.622  0.00  0.00    -0.270 OA
ATOM      8  N   UNL     1       0.503  -0.826  23.870  0.00  0.00    -0.302 N 
ATOM     19  C   UNL     1       1.237  -0.448  22.755  0.00  0.00    +0.245 C 
ATOM     34  H   UNL     1       0.970  -0.999  24.754  0.00  0.00    +0.150 HD
BRANCH  19  21
ATOM      1 CL   UNL     1       5.832  -2.224  24.395  0.00  0.00    -0.081 Cl
ATOM      2  F   UNL     1       6.708   0.495  23.606  0.00  0.00    -0.204 F 
ATOM     21  C   UNL     1       2.685  -0.202  22.983  0.00  0.00    +0.038 A 
ATOM     26  C   UNL     1       3.487  -1.208  23.521  0.00  0.00    +0.036 A 
ATOM     27  C   UNL     1       3.241   1.035  22.659  0.00  0.00    +0.016 A 
ATOM     30  C   UNL     1       4.847  -0.979  23.732  0.00  0.00    +0.077 A 
ATOM     31  C   UNL     1       4.600   1.265  22.871  0.00  0.00    +0.040 A 
ATOM     33  C   UNL     1       5.404   0.258  23.408  0.00  0.00    +0.142 A 
ENDBRANCH  19  21
ENDBRANCH  12   8
BRANCH  11   3
ATOM      3  O   UNL     1      -0.877  -1.253  26.229  0.00  0.00    -0.387 OA
ATOM     35  H   UNL     1      -0.545  -1.952  26.819  0.00  0.00    +0.210 HD
ENDBRANCH  11   3
BRANCH  13   4
ATOM      4  O   UNL     1      -3.444  -2.719  24.074  0.00  0.00    -0.389 OA
ATOM     36  H   UNL     1      -4.317  -2.357  23.845  0.00  0.00    +0.210 HD
ENDBRANCH  13   4
TORSDOF 9
ENDMDL
MODEL 2
REMARK VINA RESULT:      -0.9      0.890      1.223
REMARK  Name = 7050109
REMARK  9 active torsions:
REMARK  status: ('A' for Active; 'I' for Inactive)
REMARK    1  A    between atoms: O_3  and  C_11
REMARK    2  A    between atoms: O_4  and  C_13
REMARK    3  A    between atoms: N_8  and  C_12
REMARK    4  A    between atoms: N_9  and  C_18
REMARK    5  A    between atoms: C_15  and  C_17
REMARK    6  A    between atoms: C_18  and  C_20
REMARK    7  A    between atoms: C_18  and  C_23
REMARK    8  A    between atoms: C_19  and  C_21
REMARK    9  A    between atoms: C_20  and  C_22
REMARK                            x       y       z     vdW  Elec       q    Type
REMARK                         _______ _______ _______ _____ _____    ______ ____
ROOT
ATOM     11  C   UNL     1      -1.595  -1.978  25.044  0.00  0.00    +0.167 C 
ATOM     12  C   UNL     1      -1.038  -1.211  23.830  0.00  0.00    +0.128 C 
ATOM     13  C   UNL     1      -3.127  -1.934  25.083  0.00  0.00    +0.149 C 
ATOM     14  C   UNL     1      -3.665  -0.492  25.072  0.00  0.00    +0.074 C 
ATOM     15  C   UNL     1      -2.886   0.427  24.175  0.00  0.00    +0.015 C 
ATOM     16  C   UNL     1      -1.713   0.115  23.605  0.00  0.00    +0.006 C 
ENDROOT
BRANCH  15  17
ATOM      5  O   UNL     1      -3.351   2.244  22.760  0.00  0.00    -0.271 OA
ATOM      9  N   UNL     1      -4.074   2.324  24.975  0.00  0.00    -0.300 N 
ATOM     17  C   UNL     1      -3.452   1.747  23.882  0.00  0.00    +0.241 C 
ATOM     37  H   UNL     1      -4.171   1.784  25.831  0.00  0.00    +0.150 HD
BRANCH   9  18
ATOM     18  C   UNL     1      -4.702   3.624  24.932  0.00  0.00    +0.163 C 
BRANCH  18  23
ATOM      7  O   UNL     1      -6.238   2.572  26.492  0.00  0.00    -0.274 OA
ATOM     10  N   UNL     1      -6.561   4.782  25.957  0.00  0.00    -0.328 N 
ATOM     23  C   UNL     1      -5.906   3.571  25.860  0.00  0.00    +0.231 C 
ATOM     38  H   UNL     1      -7.374   4.887  26.555  0.00  0.00    +0.145 HD
ATOM     39  H   UNL     1      -6.262   5.605  25.446  0.00  0.00    +0.145 HD
ENDBRANCH  18  23
BRANCH  18  20
ATOM     20  C   UNL     1      -3.748   4.745  25.360  0.00  0.00    +0.067 C 
BRANCH  20  22
ATOM     22  C   UNL     1      -2.308   4.296  25.416  0.00  0.00    -0.045 A 
ATOM     24  C   UNL     1      -1.923   3.300  26.313  0.00  0.00    +0.004 A 
ATOM     25  C   UNL     1      -1.362   4.877  24.572  0.00  0.00    +0.004 A 
ATOM     28  C   UNL     1      -0.592   2.884  26.366  0.00  0.00    +0.000 A 
ATOM     29  C   UNL     1      -0.032   4.462  24.624  0.00  0.00    +0.000 A 
ATOM     32  C   UNL     1       0.354   3.465  25.521  0.00  0.00    +0.000 A 
ENDBRANCH  20  22
ENDBRANCH  18  20
ENDBRANCH   9  18
ENDBRANCH  15  17
BRANCH  12   8
ATOM      6  O   UNL     1       0.761  -0.480  21.715  0.00  0.00    -0.270 OA
ATOM      8  N   UNL     1       0.385  -0.996  23.944  0.00  0.00    -0.302 N 
ATOM     19  C   UNL     1       1.174  -0.644  22.859  0.00  0.00    +0.245 C 
ATOM     34  H   UNL     1       0.813  -1.210  24.839  0.00  0.00    +0.150 HD
BRANCH  19  21
ATOM      1 CL   UNL     1       5.369   2.415  22.914  0.00  0.00    -0.081 Cl
ATOM      2  F   UNL     1       6.660  -0.060  23.912  0.00  0.00    -0.204 F 
ATOM     21  C   UNL     1       2.625  -0.485  23.135  0.00  0.00    +0.038 A 
ATOM     26  C   UNL     1       3.246   0.745  22.920  0.00  0.00    +0.036 A 
ATOM     27  C   UNL     1       3.367  -1.567  23.611  0.00  0.00    +0.016 A 
ATOM     30  C   UNL     1       4.608   0.894  23.181  0.00  0.00    +0.077 A 
ATOM     31  C   UNL     1       4.728  -1.418  23.872  0.00  0.00    +0.040 A 
ATOM     33  C   UNL     1       5.350  -0.187  23.657  0.00  0.00    +0.142 A 
ENDBRANCH  19  21
ENDBRANCH  12   8
BRANCH  11   3
ATOM      3  O   UNL     1      -1.088  -1.403  26.250  0.00  0.00    -0.387 OA
ATOM     35  H   UNL     1      -1.648  -0.639  26.468  0.00  0.00    +0.210 HD
ENDBRANCH  11   3
BRANCH  13   4
ATOM      4  O   UNL     1      -3.668  -2.666  23.984  0.00  0.00    -0.389 OA
ATOM     36  H   UNL     1      -4.414  -3.191  24.320  0.00  0.00    +0.210 HD
ENDBRANCH  13   4
TORSDOF 9
ENDMDL
