MODEL 1
REMARK VINA RESULT:       2.8      0.000      0.000
REMARK  Name = 45783518
REMARK  4 active torsions:
REMARK  status: ('A' for Active; 'I' for Inactive)
REMARK    1  A    between atoms: N_3  and  C_13
REMARK    2  A    between atoms: C_9  and  C_14
REMARK    3  A    between atoms: C_13  and  C_15
REMARK    4  A    between atoms: C_16  and  C_21
REMARK                            x       y       z     vdW  Elec       q    Type
REMARK                         _______ _______ _______ _____ _____    ______ ____
ROOT
ATOM      1  O   UNL     1      -3.342   2.289  22.212  0.00  0.00    -0.336 OA
ATOM      4  N   UNL     1      -2.222   1.696  24.059  0.00  0.00    -0.190 NA
ATOM      6  N   UNL     1      -2.038   1.989  21.798  0.00  0.00    -0.056 NA
ATOM     14  C   UNL     1      -3.364   2.091  23.556  0.00  0.00    +0.245 A 
ATOM     16  C   UNL     1      -1.439   1.647  22.942  0.00  0.00    +0.204 A 
ENDROOT
BRANCH  16  21
ATOM      2  O   UNL     1       6.685  -0.286  23.410  0.00  0.00    -0.377 OA
ATOM      5  N   UNL     1       3.919   0.191  23.244  0.00  0.00    -0.311 N 
ATOM      7  N   UNL     1       2.150   1.616  23.910  0.00  0.00    -0.240 NA
ATOM     18  C   UNL     1       4.643   0.439  24.499  0.00  0.00    +0.134 C 
ATOM     19  C   UNL     1       4.747   0.205  22.034  0.00  0.00    +0.134 C 
ATOM     21  C   UNL     1      -0.061   1.254  23.004  0.00  0.00    +0.041 A 
ATOM     22  C   UNL     1       5.872  -0.458  24.570  0.00  0.00    +0.178 C 
ATOM     23  C   UNL     1       5.973  -0.679  22.236  0.00  0.00    +0.178 C 
ATOM     24  C   UNL     1       2.573   0.565  23.173  0.00  0.00    +0.121 A 
ATOM     25  C   UNL     1       0.411   0.177  22.260  0.00  0.00    +0.016 A 
ATOM     26  C   UNL     1       1.752  -0.180  22.341  0.00  0.00    +0.044 A 
ATOM     28  C   UNL     1       0.841   1.934  23.806  0.00  0.00    +0.124 A 
ENDBRANCH  16  21
BRANCH  14   9
ATOM      3  N   UNL     1      -4.822   1.585  25.509  0.00  0.00    -0.287 NA
ATOM      9  C   UNL     1      -4.682   2.352  24.255  0.00  0.00    +0.146 C 
ATOM     10  C   UNL     1      -4.852   3.824  24.675  0.00  0.00    +0.030 C 
ATOM     11  C   UNL     1      -5.141   3.780  26.169  0.00  0.00    +0.017 C 
ATOM     12  C   UNL     1      -5.681   2.381  26.386  0.00  0.00    +0.085 C 
BRANCH   3  13
ATOM     13  C   UNL     1      -5.343   0.240  25.304  0.00  0.00    +0.121 C 
BRANCH  13  15
ATOM      8  N   UNL     1      -2.050  -1.602  25.618  0.00  0.00    -0.263 NA
ATOM     15  C   UNL     1      -4.242  -0.755  25.048  0.00  0.00    -0.015 A 
ATOM     17  C   UNL     1      -4.364  -1.719  24.053  0.00  0.00    +0.008 A 
ATOM     20  C   UNL     1      -3.076  -0.738  25.796  0.00  0.00    +0.115 A 
ATOM     27  C   UNL     1      -3.331  -2.624  23.840  0.00  0.00    +0.020 A 
ATOM     29  C   UNL     1      -2.204  -2.524  24.642  0.00  0.00    +0.111 A 
ENDBRANCH  13  15
ENDBRANCH   3  13
ENDBRANCH  14   9
TORSDOF 4
ENDMDL
MODEL 2
REMARK VINA RESULT:       5.0      1.641      3.211
REMARK  Name = 45783518
REMARK  4 active torsions:
REMARK  status: ('A' for Active; 'I' for Inactive)
REMARK    1  A    between atoms: N_3  and  C_13
REMARK    2  A    between atoms: C_9  and  C_14
REMARK    3  A    between atoms: C_13  and  C_15
REMARK    4  A    between atoms: C_16  and  C_21
REMARK                            x       y       z     vdW  Elec       q    Type
REMARK                         _______ _______ _______ _____ _____    ______ ____
ROOT
ATOM      1  O   UNL     1      -3.547   1.457  23.086  0.00  0.00    -0.336 OA
ATOM      4  N   UNL     1      -2.120   1.101  24.774  0.00  0.00    -0.190 NA
ATOM      6  N   UNL     1      -2.294   1.246  22.498  0.00  0.00    -0.056 NA
ATOM     14  C   UNL     1      -3.356   1.354  24.427  0.00  0.00    +0.245 A 
ATOM     16  C   UNL     1      -1.505   1.042  23.557  0.00  0.00    +0.204 A 
ENDROOT
BRANCH  16  21
ATOM      2  O   UNL     1       6.754  -0.119  22.928  0.00  0.00    -0.377 OA
ATOM      5  N   UNL     1       3.959   0.095  23.138  0.00  0.00    -0.311 N 
ATOM      7  N   UNL     1       2.169   1.365  24.025  0.00  0.00    -0.240 NA
ATOM     18  C   UNL     1       4.818   0.439  24.279  0.00  0.00    +0.134 C 
ATOM     19  C   UNL     1       4.610   0.158  21.826  0.00  0.00    +0.134 C 
ATOM     21  C   UNL     1      -0.100   0.780  23.434  0.00  0.00    +0.041 A 
ATOM     22  C   UNL     1       6.126  -0.339  24.191  0.00  0.00    +0.178 C 
ATOM     23  C   UNL     1       5.930  -0.604  21.868  0.00  0.00    +0.178 C 
ATOM     24  C   UNL     1       2.586   0.341  23.248  0.00  0.00    +0.121 A 
ATOM     25  C   UNL     1       0.367  -0.266  22.644  0.00  0.00    +0.016 A 
ATOM     26  C   UNL     1       1.735  -0.496  22.545  0.00  0.00    +0.044 A 
ATOM     28  C   UNL     1       0.833   1.559  24.098  0.00  0.00    +0.124 A 
ENDBRANCH  16  21
BRANCH  14   9
ATOM      3  N   UNL     1      -5.032   2.950  25.343  0.00  0.00    -0.287 NA
ATOM      9  C   UNL     1      -4.579   1.545  25.299  0.00  0.00    +0.146 C 
ATOM     10  C   UNL     1      -5.801   0.757  24.791  0.00  0.00    +0.030 C 
ATOM     11  C   UNL     1      -6.906   1.792  24.635  0.00  0.00    +0.017 C 
ATOM     12  C   UNL     1      -6.477   2.912  25.562  0.00  0.00    +0.085 C 
BRANCH   3  13
ATOM     13  C   UNL     1      -4.345   3.743  26.355  0.00  0.00    +0.121 C 
BRANCH  13  15
ATOM      8  N   UNL     1      -0.567   3.723  26.099  0.00  0.00    -0.263 NA
ATOM     15  C   UNL     1      -2.948   4.109  25.927  0.00  0.00    -0.015 A 
ATOM     17  C   UNL     1      -2.724   5.124  25.003  0.00  0.00    +0.008 A 
ATOM     20  C   UNL     1      -1.846   3.445  26.440  0.00  0.00    +0.115 A 
ATOM     27  C   UNL     1      -1.424   5.440  24.627  0.00  0.00    +0.020 A 
ATOM     29  C   UNL     1      -0.389   4.716  25.199  0.00  0.00    +0.111 A 
ENDBRANCH  13  15
ENDBRANCH   3  13
ENDBRANCH  14   9
TORSDOF 4
ENDMDL
