MODEL 1
REMARK VINA RESULT:      -5.1      0.000      0.000
REMARK  Name = 40586265
REMARK  7 active torsions:
REMARK  status: ('A' for Active; 'I' for Inactive)
REMARK    1  A    between atoms: O_3  and  C_12
REMARK    2  A    between atoms: O_3  and  C_22
REMARK    3  A    between atoms: O_6  and  C_28
REMARK    4  A    between atoms: O_6  and  C_29
REMARK    5  A    between atoms: N_7  and  C_11
REMARK    6  A    between atoms: N_8  and  C_23
REMARK    7  A    between atoms: C_15  and  C_18
REMARK                            x       y       z     vdW  Elec       q    Type
REMARK                         _______ _______ _______ _____ _____    ______ ____
ROOT
ATOM      1  O   UNL     1      -5.116  -8.867  11.888  0.00  0.00    -0.368 OA
ATOM      2  O   UNL     1      -2.957  -9.102   9.724  0.00  0.00    -0.368 OA
ATOM      9  C   UNL     1      -4.320  -9.574   9.769  0.00  0.00    +0.173 C 
ATOM     10  C   UNL     1      -4.587 -10.010  11.196  0.00  0.00    +0.192 C 
ATOM     11  C   UNL     1      -5.274  -8.421   9.559  0.00  0.00    +0.130 C 
ATOM     12  C   UNL     1      -3.207 -10.374  11.689  0.00  0.00    +0.235 C 
ATOM     13  C   UNL     1      -5.350  -7.809  10.946  0.00  0.00    +0.185 C 
ATOM     14  C   UNL     1      -2.339  -9.347  10.996  0.00  0.00    +0.207 C 
ENDROOT
BRANCH  11   7
ATOM      4  O   UNL     1      -7.364  -6.865   8.277  0.00  0.00    -0.276 OA
ATOM      7  N   UNL     1      -6.566  -8.885   9.118  0.00  0.00    -0.307 N 
ATOM     18  C   UNL     1      -7.504  -8.062   8.511  0.00  0.00    +0.216 C 
ATOM     30  H   UNL     1      -6.764  -9.878   9.201  0.00  0.00    +0.149 HD
BRANCH  18  15
ATOM     15  C   UNL     1      -8.752  -8.804   8.129  0.00  0.00    +0.075 C 
ATOM     16  C   UNL     1      -8.901 -10.088   8.947  0.00  0.00    +0.013 C 
ATOM     17  C   UNL     1      -9.969  -7.883   8.246  0.00  0.00    +0.013 C 
ATOM     19  C   UNL     1      -9.372  -9.844  10.381  0.00  0.00    +0.001 C 
ATOM     20  C   UNL     1     -10.410  -7.655   9.690  0.00  0.00    +0.001 C 
ATOM     21  C   UNL     1     -10.621  -8.972  10.428  0.00  0.00    +0.000 C 
ENDBRANCH  18  15
ENDBRANCH  11   7
BRANCH  12   3
ATOM      3  O   UNL     1      -3.078 -10.317  13.091  0.00  0.00    -0.442 OA
BRANCH   3  22
ATOM      5  O   UNL     1      -5.305 -10.781  13.320  0.00  0.00    -0.226 OA
ATOM      8  N   UNL     1      -3.944 -10.350  15.175  0.00  0.00    -0.251 N 
ATOM     22  C   UNL     1      -4.227 -10.510  13.832  0.00  0.00    +0.405 C 
ATOM     31  H   UNL     1      -2.979 -10.125  15.407  0.00  0.00    +0.158 HD
BRANCH   8  23
ATOM     23  C   UNL     1      -4.831 -10.460  16.269  0.00  0.00    +0.037 A 
ATOM     24  C   UNL     1      -6.209 -10.444  16.052  0.00  0.00    +0.027 A 
ATOM     25  C   UNL     1      -4.330 -10.584  17.564  0.00  0.00    +0.027 A 
ATOM     26  C   UNL     1      -7.086 -10.552  17.133  0.00  0.00    +0.047 A 
ATOM     27  C   UNL     1      -5.206 -10.693  18.644  0.00  0.00    +0.047 A 
ATOM     28  C   UNL     1      -6.584 -10.675  18.428  0.00  0.00    +0.120 A 
BRANCH  28   6
ATOM      6  O   UNL     1      -7.440 -10.781  19.482  0.00  0.00    -0.495 OA
ATOM     29  C   UNL     1      -8.836 -10.713  19.192  0.00  0.00    +0.277 C 
ENDBRANCH  28   6
ENDBRANCH   8  23
ENDBRANCH   3  22
ENDBRANCH  12   3
TORSDOF 6
ENDMDL
