MODEL 1
REMARK VINA RESULT:       3.1      0.000      0.000
REMARK  Name = 25338539
REMARK  7 active torsions:
REMARK  status: ('A' for Active; 'I' for Inactive)
REMARK    1  A    between atoms: N_3  and  C_13
REMARK    2  A    between atoms: N_4  and  C_8
REMARK    3  A    between atoms: N_6  and  C_16
REMARK    4  A    between atoms: C_9  and  C_12
REMARK    5  A    between atoms: C_15  and  C_17
REMARK    6  A    between atoms: C_16  and  C_18
REMARK    7  A    between atoms: C_16  and  C_19
REMARK                            x       y       z     vdW  Elec       q    Type
REMARK                         _______ _______ _______ _____ _____    ______ ____
ROOT
ATOM      3  N   UNL     1      -4.121  -0.128  25.701  0.00  0.00    -0.293 NA
ATOM      8  C   UNL     1      -4.901   1.830  24.706  0.00  0.00    +0.090 C 
ATOM      9  C   UNL     1      -3.721  -0.268  24.288  0.00  0.00    +0.147 C 
ATOM     10  C   UNL     1      -4.094   1.083  23.645  0.00  0.00    +0.052 C 
ATOM     11  C   UNL     1      -5.295   0.749  25.701  0.00  0.00    +0.107 C 
ATOM     13  C   UNL     1      -4.394  -1.405  26.349  0.00  0.00    +0.105 C 
ENDROOT
BRANCH   8   4
ATOM      2  O   UNL     1      -2.388   2.914  23.792  0.00  0.00    -0.253 OA
ATOM      4  N   UNL     1      -4.120   2.867  25.337  0.00  0.00    -0.295 N 
ATOM      6  N   UNL     1      -2.371   4.329  25.630  0.00  0.00    -0.297 N 
ATOM     14  C   UNL     1      -2.911   3.332  24.824  0.00  0.00    +0.300 C 
ATOM     29  H   UNL     1      -4.429   3.224  26.236  0.00  0.00    +0.151 HD
ATOM     30  H   UNL     1      -2.916   4.660  26.421  0.00  0.00    +0.150 HD
BRANCH   6  16
ATOM     16  C   UNL     1      -1.120   4.986  25.330  0.00  0.00    +0.068 C 
ATOM     18  C   UNL     1      -1.341   6.114  24.330  0.00  0.00    +0.027 C 
ATOM     19  C   UNL     1      -0.098   3.981  24.813  0.00  0.00    +0.027 C 
ENDBRANCH   6  16
ENDBRANCH   8   4
BRANCH   9  12
ATOM      1  O   UNL     1      -1.942  -1.935  24.138  0.00  0.00    -0.336 OA
ATOM      5  N   UNL     1      -1.235   0.178  23.918  0.00  0.00    -0.190 NA
ATOM      7  N   UNL     1      -0.554  -2.006  23.951  0.00  0.00    -0.056 NA
ATOM     12  C   UNL     1      -2.259  -0.614  24.105  0.00  0.00    +0.245 A 
ATOM     15  C   UNL     1      -0.211  -0.720  23.829  0.00  0.00    +0.202 A 
BRANCH  15  17
ATOM     17  C   UNL     1       1.144  -0.300  23.617  0.00  0.00    +0.023 A 
ATOM     20  C   UNL     1       2.193  -1.190  23.844  0.00  0.00    +0.020 A 
ATOM     21  C   UNL     1       1.410   0.996  23.187  0.00  0.00    +0.012 A 
ATOM     22  C   UNL     1       3.525  -0.795  23.641  0.00  0.00    -0.017 A 
ATOM     23  C   UNL     1       3.796   0.523  23.202  0.00  0.00    -0.018 A 
ATOM     24  C   UNL     1       2.728   1.407  22.980  0.00  0.00    +0.009 A 
ATOM     25  C   UNL     1       4.594  -1.678  23.863  0.00  0.00    +0.008 A 
ATOM     26  C   UNL     1       5.128   0.919  22.999  0.00  0.00    +0.008 A 
ATOM     27  C   UNL     1       5.911  -1.268  23.656  0.00  0.00    +0.001 A 
ATOM     28  C   UNL     1       6.178   0.028  23.226  0.00  0.00    +0.001 A 
ENDBRANCH  15  17
ENDBRANCH   9  12
TORSDOF 4
ENDMDL
MODEL 2
REMARK VINA RESULT:       3.8      1.788      4.352
REMARK  Name = 25338539
REMARK  7 active torsions:
REMARK  status: ('A' for Active; 'I' for Inactive)
REMARK    1  A    between atoms: N_3  and  C_13
REMARK    2  A    between atoms: N_4  and  C_8
REMARK    3  A    between atoms: N_6  and  C_16
REMARK    4  A    between atoms: C_9  and  C_12
REMARK    5  A    between atoms: C_15  and  C_17
REMARK    6  A    between atoms: C_16  and  C_18
REMARK    7  A    between atoms: C_16  and  C_19
REMARK                            x       y       z     vdW  Elec       q    Type
REMARK                         _______ _______ _______ _____ _____    ______ ____
ROOT
ATOM      3  N   UNL     1      -4.329   4.030  24.221  0.00  0.00    -0.293 NA
ATOM      8  C   UNL     1      -5.335   2.713  25.861  0.00  0.00    +0.090 C 
ATOM      9  C   UNL     1      -3.320   3.972  25.295  0.00  0.00    +0.147 C 
ATOM     10  C   UNL     1      -3.903   2.982  26.323  0.00  0.00    +0.052 C 
ATOM     11  C   UNL     1      -5.626   3.837  24.878  0.00  0.00    +0.107 C 
ATOM     13  C   UNL     1      -4.285   5.270  23.457  0.00  0.00    +0.105 C 
ENDROOT
BRANCH   8   4
ATOM      2  O   UNL     1      -3.265   0.726  25.554  0.00  0.00    -0.253 OA
ATOM      4  N   UNL     1      -5.456   1.420  25.231  0.00  0.00    -0.295 N 
ATOM      6  N   UNL     1      -4.791  -0.646  24.473  0.00  0.00    -0.297 N 
ATOM     14  C   UNL     1      -4.399   0.519  25.126  0.00  0.00    +0.300 C 
ATOM     29  H   UNL     1      -6.335   1.184  24.778  0.00  0.00    +0.151 HD
ATOM     30  H   UNL     1      -5.770  -0.755  24.225  0.00  0.00    +0.150 HD
BRANCH   6  16
ATOM     16  C   UNL     1      -3.890  -1.748  24.230  0.00  0.00    +0.068 C 
ATOM     18  C   UNL     1      -4.596  -2.846  23.446  0.00  0.00    +0.027 C 
ATOM     19  C   UNL     1      -3.330  -2.281  25.543  0.00  0.00    +0.027 C 
ENDBRANCH   6  16
ENDBRANCH   8   4
BRANCH   9  12
ATOM      1  O   UNL     1      -1.100   4.571  24.466  0.00  0.00    -0.336 OA
ATOM      5  N   UNL     1      -1.437   2.366  24.667  0.00  0.00    -0.190 NA
ATOM      7  N   UNL     1       0.090   3.955  24.055  0.00  0.00    -0.056 NA
ATOM     12  C   UNL     1      -1.945   3.563  24.810  0.00  0.00    +0.245 A 
ATOM     15  C   UNL     1      -0.188   2.656  24.202  0.00  0.00    +0.202 A 
BRANCH  15  17
ATOM     17  C   UNL     1       0.760   1.625  23.894  0.00  0.00    +0.023 A 
ATOM     20  C   UNL     1       2.114   1.937  23.769  0.00  0.00    +0.020 A 
ATOM     21  C   UNL     1       0.328   0.314  23.718  0.00  0.00    +0.012 A 
ATOM     22  C   UNL     1       3.054   0.939  23.468  0.00  0.00    -0.017 A 
ATOM     23  C   UNL     1       2.616  -0.394  23.290  0.00  0.00    -0.018 A 
ATOM     24  C   UNL     1       1.249  -0.691  23.419  0.00  0.00    +0.009 A 
ATOM     25  C   UNL     1       4.421   1.235  23.340  0.00  0.00    +0.008 A 
ATOM     26  C   UNL     1       3.556  -1.393  22.989  0.00  0.00    +0.008 A 
ATOM     27  C   UNL     1       5.342   0.231  23.040  0.00  0.00    +0.001 A 
ATOM     28  C   UNL     1       4.911  -1.080  22.864  0.00  0.00    +0.001 A 
ENDBRANCH  15  17
ENDBRANCH   9  12
TORSDOF 4
ENDMDL
MODEL 3
REMARK VINA RESULT:       4.0      1.426      2.433
REMARK  Name = 25338539
REMARK  7 active torsions:
REMARK  status: ('A' for Active; 'I' for Inactive)
REMARK    1  A    between atoms: N_3  and  C_13
REMARK    2  A    between atoms: N_4  and  C_8
REMARK    3  A    between atoms: N_6  and  C_16
REMARK    4  A    between atoms: C_9  and  C_12
REMARK    5  A    between atoms: C_15  and  C_17
REMARK    6  A    between atoms: C_16  and  C_18
REMARK    7  A    between atoms: C_16  and  C_19
REMARK                            x       y       z     vdW  Elec       q    Type
REMARK                         _______ _______ _______ _____ _____    ______ ____
ROOT
ATOM      3  N   UNL     1      -5.481   1.834  26.121  0.00  0.00    -0.293 NA
ATOM      8  C   UNL     1      -5.412   3.750  24.795  0.00  0.00    +0.090 C 
ATOM      9  C   UNL     1      -5.249   1.313  24.761  0.00  0.00    +0.147 C 
ATOM     10  C   UNL     1      -5.049   2.572  23.893  0.00  0.00    +0.052 C 
ATOM     11  C   UNL     1      -6.174   3.114  25.948  0.00  0.00    +0.107 C 
ATOM     13  C   UNL     1      -6.234   0.916  26.967  0.00  0.00    +0.105 C 
ENDROOT
BRANCH   8   4
ATOM      2  O   UNL     1      -2.671   3.207  24.078  0.00  0.00    -0.253 OA
ATOM      4  N   UNL     1      -4.236   4.445  25.263  0.00  0.00    -0.295 N 
ATOM      6  N   UNL     1      -2.001   4.941  25.465  0.00  0.00    -0.297 N 
ATOM     14  C   UNL     1      -2.944   4.114  24.862  0.00  0.00    +0.300 C 
ATOM     29  H   UNL     1      -4.350   5.162  25.973  0.00  0.00    +0.151 HD
ATOM     30  H   UNL     1      -2.330   5.712  26.039  0.00  0.00    +0.150 HD
BRANCH   6  16
ATOM     16  C   UNL     1      -0.582   4.816  25.224  0.00  0.00    +0.068 C 
ATOM     18  C   UNL     1      -0.261   5.137  23.771  0.00  0.00    +0.027 C 
ATOM     19  C   UNL     1      -0.096   3.421  25.602  0.00  0.00    +0.027 C 
ENDBRANCH   6  16
ENDBRANCH   8   4
BRANCH   9  12
ATOM      1  O   UNL     1      -4.375  -0.968  24.764  0.00  0.00    -0.336 OA
ATOM      5  N   UNL     1      -2.807   0.611  24.519  0.00  0.00    -0.190 NA
ATOM      7  N   UNL     1      -3.153  -1.646  24.658  0.00  0.00    -0.056 NA
ATOM     12  C   UNL     1      -4.081   0.355  24.672  0.00  0.00    +0.245 A 
ATOM     15  C   UNL     1      -2.277  -0.646  24.516  0.00  0.00    +0.202 A 
BRANCH  15  17
ATOM     17  C   UNL     1      -0.868  -0.870  24.368  0.00  0.00    +0.023 A 
ATOM     20  C   UNL     1      -0.099   0.004  23.600  0.00  0.00    +0.020 A 
ATOM     21  C   UNL     1      -0.269  -1.961  24.991  0.00  0.00    +0.012 A 
ATOM     22  C   UNL     1       1.281  -0.201  23.446  0.00  0.00    -0.017 A 
ATOM     23  C   UNL     1       1.891  -1.310  24.079  0.00  0.00    -0.018 A 
ATOM     24  C   UNL     1       1.102  -2.181  24.848  0.00  0.00    +0.009 A 
ATOM     25  C   UNL     1       2.070   0.669  22.677  0.00  0.00    +0.008 A 
ATOM     26  C   UNL     1       3.271  -1.515  23.925  0.00  0.00    +0.008 A 
ATOM     27  C   UNL     1       3.440   0.450  22.534  0.00  0.00    +0.001 A 
ATOM     28  C   UNL     1       4.040  -0.640  23.157  0.00  0.00    +0.001 A 
ENDBRANCH  15  17
ENDBRANCH   9  12
TORSDOF 4
ENDMDL
MODEL 4
REMARK VINA RESULT:       5.9      1.576      2.243
REMARK  Name = 25338539
REMARK  7 active torsions:
REMARK  status: ('A' for Active; 'I' for Inactive)
REMARK    1  A    between atoms: N_3  and  C_13
REMARK    2  A    between atoms: N_4  and  C_8
REMARK    3  A    between atoms: N_6  and  C_16
REMARK    4  A    between atoms: C_9  and  C_12
REMARK    5  A    between atoms: C_15  and  C_17
REMARK    6  A    between atoms: C_16  and  C_18
REMARK    7  A    between atoms: C_16  and  C_19
REMARK                            x       y       z     vdW  Elec       q    Type
REMARK                         _______ _______ _______ _____ _____    ______ ____
ROOT
ATOM      3  N   UNL     1      -2.890  -1.674  24.926  0.00  0.00    -0.293 NA
ATOM      8  C   UNL     1      -4.838  -0.518  24.378  0.00  0.00    +0.090 C 
ATOM      9  C   UNL     1      -2.590  -1.085  23.608  0.00  0.00    +0.147 C 
ATOM     10  C   UNL     1      -3.808  -0.192  23.297  0.00  0.00    +0.052 C 
ATOM     11  C   UNL     1      -4.347  -1.827  24.976  0.00  0.00    +0.107 C 
ATOM     13  C   UNL     1      -2.201  -2.938  25.160  0.00  0.00    +0.105 C 
ENDROOT
BRANCH   8   4
ATOM      2  O   UNL     1      -4.340   2.299  23.995  0.00  0.00    -0.253 OA
ATOM      4  N   UNL     1      -4.908   0.522  25.377  0.00  0.00    -0.295 N 
ATOM      6  N   UNL     1      -4.787   2.648  26.244  0.00  0.00    -0.297 N 
ATOM     14  C   UNL     1      -4.650   1.863  25.103  0.00  0.00    +0.300 C 
ATOM     29  H   UNL     1      -5.083   0.254  26.341  0.00  0.00    +0.151 HD
ATOM     30  H   UNL     1      -5.122   2.207  27.096  0.00  0.00    +0.150 HD
BRANCH   6  16
ATOM     16  C   UNL     1      -4.577   4.077  26.242  0.00  0.00    +0.068 C 
ATOM     18  C   UNL     1      -5.652   4.769  25.414  0.00  0.00    +0.027 C 
ATOM     19  C   UNL     1      -3.182   4.411  25.727  0.00  0.00    +0.027 C 
ENDBRANCH   6  16
ENDBRANCH   8   4
BRANCH   9  12
ATOM      1  O   UNL     1      -1.367   1.027  23.728  0.00  0.00    -0.336 OA
ATOM      5  N   UNL     1      -0.066  -0.766  23.405  0.00  0.00    -0.190 NA
ATOM      7  N   UNL     1      -0.053   1.508  23.658  0.00  0.00    -0.056 NA
ATOM     12  C   UNL     1      -1.285  -0.320  23.571  0.00  0.00    +0.245 A 
ATOM     15  C   UNL     1       0.656   0.391  23.466  0.00  0.00    +0.202 A 
BRANCH  15  17
ATOM     17  C   UNL     1       2.084   0.397  23.332  0.00  0.00    +0.023 A 
ATOM     20  C   UNL     1       2.825  -0.718  23.724  0.00  0.00    +0.020 A 
ATOM     21  C   UNL     1       2.728   1.515  22.812  0.00  0.00    +0.012 A 
ATOM     22  C   UNL     1       4.224  -0.728  23.599  0.00  0.00    -0.017 A 
ATOM     23  C   UNL     1       4.879   0.409  23.070  0.00  0.00    -0.018 A 
ATOM     24  C   UNL     1       4.118   1.523  22.681  0.00  0.00    +0.009 A 
ATOM     25  C   UNL     1       4.986  -1.841  23.988  0.00  0.00    +0.008 A 
ATOM     26  C   UNL     1       6.278   0.399  22.945  0.00  0.00    +0.008 A 
ATOM     27  C   UNL     1       6.375  -1.834  23.857  0.00  0.00    +0.001 A 
ATOM     28  C   UNL     1       7.020  -0.716  23.337  0.00  0.00    +0.001 A 
ENDBRANCH  15  17
ENDBRANCH   9  12
TORSDOF 4
ENDMDL
MODEL 5
REMARK VINA RESULT:       6.5      1.791      3.816
REMARK  Name = 25338539
REMARK  7 active torsions:
REMARK  status: ('A' for Active; 'I' for Inactive)
REMARK    1  A    between atoms: N_3  and  C_13
REMARK    2  A    between atoms: N_4  and  C_8
REMARK    3  A    between atoms: N_6  and  C_16
REMARK    4  A    between atoms: C_9  and  C_12
REMARK    5  A    between atoms: C_15  and  C_17
REMARK    6  A    between atoms: C_16  and  C_18
REMARK    7  A    between atoms: C_16  and  C_19
REMARK                            x       y       z     vdW  Elec       q    Type
REMARK                         _______ _______ _______ _____ _____    ______ ____
ROOT
ATOM      3  N   UNL     1      -3.652   2.711  23.416  0.00  0.00    -0.293 NA
ATOM      8  C   UNL     1      -4.350   2.284  25.598  0.00  0.00    +0.090 C 
ATOM      9  C   UNL     1      -2.427   2.885  24.218  0.00  0.00    +0.147 C 
ATOM     10  C   UNL     1      -2.833   2.459  25.643  0.00  0.00    +0.052 C 
ATOM     11  C   UNL     1      -4.769   2.997  24.321  0.00  0.00    +0.107 C 
ATOM     13  C   UNL     1      -3.685   3.555  22.227  0.00  0.00    +0.105 C 
ENDROOT
BRANCH   8   4
ATOM      2  O   UNL     1      -2.641   0.037  25.003  0.00  0.00    -0.253 OA
ATOM      4  N   UNL     1      -4.724   0.890  25.568  0.00  0.00    -0.295 N 
ATOM      6  N   UNL     1      -4.453  -1.378  25.309  0.00  0.00    -0.297 N 
ATOM     14  C   UNL     1      -3.829  -0.135  25.269  0.00  0.00    +0.300 C 
ATOM     29  H   UNL     1      -5.702   0.650  25.700  0.00  0.00    +0.151 HD
ATOM     30  H   UNL     1      -5.421  -1.424  25.614  0.00  0.00    +0.150 HD
BRANCH   6  16
ATOM     16  C   UNL     1      -3.755  -2.613  25.039  0.00  0.00    +0.068 C 
ATOM     18  C   UNL     1      -2.268  -2.456  25.330  0.00  0.00    +0.027 C 
ATOM     19  C   UNL     1      -3.993  -3.059  23.601  0.00  0.00    +0.027 C 
ENDBRANCH   6  16
ENDBRANCH   8   4
BRANCH   9  12
ATOM      1  O   UNL     1      -1.513   1.156  22.754  0.00  0.00    -0.336 OA
ATOM      5  N   UNL     1       0.022   2.194  24.010  0.00  0.00    -0.190 NA
ATOM      7  N   UNL     1      -0.282   0.571  22.427  0.00  0.00    -0.056 NA
ATOM     12  C   UNL     1      -1.244   2.101  23.692  0.00  0.00    +0.245 A 
ATOM     15  C   UNL     1       0.573   1.237  23.209  0.00  0.00    +0.202 A 
BRANCH  15  17
ATOM     17  C   UNL     1       1.983   0.971  23.213  0.00  0.00    +0.023 A 
ATOM     20  C   UNL     1       2.451  -0.297  23.555  0.00  0.00    +0.020 A 
ATOM     21  C   UNL     1       2.881   1.979  22.875  0.00  0.00    +0.012 A 
ATOM     22  C   UNL     1       3.828  -0.574  23.563  0.00  0.00    -0.017 A 
ATOM     23  C   UNL     1       4.742   0.450  23.220  0.00  0.00    -0.018 A 
ATOM     24  C   UNL     1       4.253   1.721  22.878  0.00  0.00    +0.009 A 
ATOM     25  C   UNL     1       4.318  -1.845  23.905  0.00  0.00    +0.008 A 
ATOM     26  C   UNL     1       6.118   0.173  23.228  0.00  0.00    +0.008 A 
ATOM     27  C   UNL     1       5.689  -2.102  23.908  0.00  0.00    +0.001 A 
ATOM     28  C   UNL     1       6.588  -1.095  23.571  0.00  0.00    +0.001 A 
ENDBRANCH  15  17
ENDBRANCH   9  12
TORSDOF 4
ENDMDL
