MODEL 1
REMARK VINA RESULT:      -6.3      0.000      0.000
REMARK  Name = 11912219
REMARK  6 active torsions:
REMARK  status: ('A' for Active; 'I' for Inactive)
REMARK    1  A    between atoms: N_4  and  C_15
REMARK    2  A    between atoms: C_5  and  C_13
REMARK    3  A    between atoms: C_6  and  C_16
REMARK    4  A    between atoms: C_7  and  C_14
REMARK    5  A    between atoms: C_13  and  C_19
REMARK    6  A    between atoms: C_16  and  C_20
REMARK                            x       y       z     vdW  Elec       q    Type
REMARK                         _______ _______ _______ _____ _____    ______ ____
ROOT
ATOM      1  O   UNL     1      -3.173   4.226  26.154  0.00  0.00    -0.275 OA
ATOM      3  N   UNL     1      -2.375   3.009  24.337  0.00  0.00    -0.301 N 
ATOM      5  C   UNL     1      -0.308   1.167  23.489  0.00  0.00    +0.004 C 
ATOM      6  C   UNL     1      -1.806   0.856  23.238  0.00  0.00    +0.010 C 
ATOM      8  C   UNL     1      -2.605   2.169  23.156  0.00  0.00    +0.111 C 
ATOM      9  C   UNL     1      -0.117   2.091  24.705  0.00  0.00    +0.023 C 
ATOM     12  C   UNL     1      -0.975   3.349  24.586  0.00  0.00    +0.108 C 
ATOM     14  C   UNL     1      -3.374   3.503  25.181  0.00  0.00    +0.219 C 
ENDROOT
BRANCH  14   7
ATOM      7  C   UNL     1      -4.784   3.118  24.874  0.00  0.00    +0.075 C 
ATOM     10  C   UNL     1      -5.468   2.155  25.780  0.00  0.00    +0.013 C 
ATOM     11  C   UNL     1      -5.862   3.604  25.779  0.00  0.00    +0.013 C 
ENDBRANCH  14   7
BRANCH   6  16
ATOM     16  C   UNL     1      -2.429  -0.083  24.278  0.00  0.00    +0.002 C 
ATOM     20  C   UNL     1      -3.834  -0.482  23.881  0.00  0.00    +0.004 C 
ENDBRANCH   6  16
BRANCH   5  13
ATOM     13  C   UNL     1       0.552  -0.088  23.627  0.00  0.00    +0.099 C 
BRANCH  13  19
ATOM      2  O   UNL     1       1.811  -0.285  21.568  0.00  0.00    -0.276 OA
ATOM      4  N   UNL     1       2.903   0.362  23.513  0.00  0.00    -0.312 N 
ATOM     19  C   UNL     1       1.797  -0.025  22.769  0.00  0.00    +0.214 C 
ATOM     21  H   UNL     1       2.802   0.576  24.501  0.00  0.00    +0.149 HD
BRANCH   4  15
ATOM     15  C   UNL     1       4.211   0.498  22.937  0.00  0.00    +0.073 C 
ATOM     17  C   UNL     1       5.388   0.856  23.785  0.00  0.00    +0.024 C 
ATOM     18  C   UNL     1       5.271  -0.521  23.200  0.00  0.00    +0.024 C 
ENDBRANCH   4  15
ENDBRANCH  13  19
ENDBRANCH   5  13
TORSDOF 5
ENDMDL
MODEL 2
REMARK VINA RESULT:      -5.3      1.681      2.650
REMARK  Name = 11912219
REMARK  6 active torsions:
REMARK  status: ('A' for Active; 'I' for Inactive)
REMARK    1  A    between atoms: N_4  and  C_15
REMARK    2  A    between atoms: C_5  and  C_13
REMARK    3  A    between atoms: C_6  and  C_16
REMARK    4  A    between atoms: C_7  and  C_14
REMARK    5  A    between atoms: C_13  and  C_19
REMARK    6  A    between atoms: C_16  and  C_20
REMARK                            x       y       z     vdW  Elec       q    Type
REMARK                         _______ _______ _______ _____ _____    ______ ____
ROOT
ATOM      1  O   UNL     1      -4.607  -0.361  24.051  0.00  0.00    -0.275 OA
ATOM      3  N   UNL     1      -2.597   0.380  24.962  0.00  0.00    -0.301 N 
ATOM      5  C   UNL     1       0.156   1.017  24.331  0.00  0.00    +0.004 C 
ATOM      6  C   UNL     1      -0.741   2.024  25.096  0.00  0.00    +0.010 C 
ATOM      8  C   UNL     1      -1.844   1.268  25.856  0.00  0.00    +0.111 C 
ATOM      9  C   UNL     1      -0.678   0.075  23.445  0.00  0.00    +0.023 C 
ATOM     12  C   UNL     1      -1.786  -0.604  24.247  0.00  0.00    +0.108 C 
ATOM     14  C   UNL     1      -3.983   0.402  24.784  0.00  0.00    +0.219 C 
ENDROOT
BRANCH  14   7
ATOM      7  C   UNL     1      -4.755   1.433  25.541  0.00  0.00    +0.075 C 
ATOM     10  C   UNL     1      -4.969   2.764  24.908  0.00  0.00    +0.013 C 
ATOM     11  C   UNL     1      -6.112   1.802  25.050  0.00  0.00    +0.013 C 
ENDBRANCH  14   7
BRANCH   6  16
ATOM     16  C   UNL     1      -1.357   3.111  24.205  0.00  0.00    +0.002 C 
ATOM     20  C   UNL     1      -1.554   4.399  24.974  0.00  0.00    +0.004 C 
ENDBRANCH   6  16
BRANCH   5  13
ATOM     13  C   UNL     1       1.255   1.693  23.512  0.00  0.00    +0.099 C 
BRANCH  13  19
ATOM      2  O   UNL     1       1.966  -0.254  22.259  0.00  0.00    -0.276 OA
ATOM      4  N   UNL     1       3.547   1.004  23.404  0.00  0.00    -0.312 N 
ATOM     19  C   UNL     1       2.263   0.698  22.977  0.00  0.00    +0.214 C 
ATOM     21  H   UNL     1       3.710   1.822  23.985  0.00  0.00    +0.149 HD
BRANCH   4  15
ATOM     15  C   UNL     1       4.690   0.216  23.038  0.00  0.00    +0.073 C 
ATOM     17  C   UNL     1       5.938   0.250  23.857  0.00  0.00    +0.024 C 
ATOM     18  C   UNL     1       5.081  -0.981  23.842  0.00  0.00    +0.024 C 
ENDBRANCH   4  15
ENDBRANCH  13  19
ENDBRANCH   5  13
TORSDOF 5
ENDMDL
MODEL 3
REMARK VINA RESULT:      -4.3      2.571      3.889
REMARK  Name = 11912219
REMARK  6 active torsions:
REMARK  status: ('A' for Active; 'I' for Inactive)
REMARK    1  A    between atoms: N_4  and  C_15
REMARK    2  A    between atoms: C_5  and  C_13
REMARK    3  A    between atoms: C_6  and  C_16
REMARK    4  A    between atoms: C_7  and  C_14
REMARK    5  A    between atoms: C_13  and  C_19
REMARK    6  A    between atoms: C_16  and  C_20
REMARK                            x       y       z     vdW  Elec       q    Type
REMARK                         _______ _______ _______ _____ _____    ______ ____
ROOT
ATOM      1  O   UNL     1      -3.027   4.413  26.651  0.00  0.00    -0.275 OA
ATOM      3  N   UNL     1      -2.110   3.342  24.799  0.00  0.00    -0.301 N 
ATOM      5  C   UNL     1      -0.299   1.237  23.981  0.00  0.00    +0.004 C 
ATOM      6  C   UNL     1      -1.742   1.311  23.418  0.00  0.00    +0.010 C 
ATOM      8  C   UNL     1      -2.242   2.766  23.455  0.00  0.00    +0.111 C 
ATOM      9  C   UNL     1      -0.196   1.897  25.367  0.00  0.00    +0.023 C 
ATOM     12  C   UNL     1      -0.756   3.317  25.348  0.00  0.00    +0.108 C 
ATOM     14  C   UNL     1      -3.152   3.912  25.537  0.00  0.00    +0.219 C 
ENDROOT
BRANCH  14   7
ATOM      7  C   UNL     1      -4.513   3.904  24.921  0.00  0.00    +0.075 C 
ATOM     10  C   UNL     1      -5.548   3.006  25.503  0.00  0.00    +0.013 C 
ATOM     11  C   UNL     1      -5.642   4.491  25.695  0.00  0.00    +0.013 C 
ENDBRANCH  14   7
BRANCH   6  16
ATOM     16  C   UNL     1      -2.736   0.387  24.132  0.00  0.00    +0.002 C 
ATOM     20  C   UNL     1      -4.125   0.524  23.547  0.00  0.00    +0.004 C 
ENDBRANCH   6  16
BRANCH   5  13
ATOM     13  C   UNL     1       0.259  -0.185  24.019  0.00  0.00    +0.099 C 
BRANCH  13  19
ATOM      2  O   UNL     1      -0.632  -1.083  26.084  0.00  0.00    -0.276 OA
ATOM      4  N   UNL     1      -1.321  -1.986  24.059  0.00  0.00    -0.312 N 
ATOM     19  C   UNL     1      -0.595  -1.112  24.856  0.00  0.00    +0.214 C 
ATOM     21  H   UNL     1      -1.246  -1.933  23.046  0.00  0.00    +0.149 HD
BRANCH   4  15
ATOM     15  C   UNL     1      -2.211  -2.971  24.605  0.00  0.00    +0.073 C 
ATOM     17  C   UNL     1      -3.317  -2.575  25.528  0.00  0.00    +0.024 C 
ATOM     18  C   UNL     1      -3.628  -3.060  24.143  0.00  0.00    +0.024 C 
ENDBRANCH   4  15
ENDBRANCH  13  19
ENDBRANCH   5  13
TORSDOF 5
ENDMDL
MODEL 4
REMARK VINA RESULT:      -3.3      2.755      5.895
REMARK  Name = 11912219
REMARK  6 active torsions:
REMARK  status: ('A' for Active; 'I' for Inactive)
REMARK    1  A    between atoms: N_4  and  C_15
REMARK    2  A    between atoms: C_5  and  C_13
REMARK    3  A    between atoms: C_6  and  C_16
REMARK    4  A    between atoms: C_7  and  C_14
REMARK    5  A    between atoms: C_13  and  C_19
REMARK    6  A    between atoms: C_16  and  C_20
REMARK                            x       y       z     vdW  Elec       q    Type
REMARK                         _______ _______ _______ _____ _____    ______ ____
ROOT
ATOM      1  O   UNL     1      -1.393  -3.214  23.700  0.00  0.00    -0.275 OA
ATOM      3  N   UNL     1      -1.307  -1.165  24.802  0.00  0.00    -0.301 N 
ATOM      5  C   UNL     1      -0.342   1.557  24.595  0.00  0.00    +0.004 C 
ATOM      6  C   UNL     1      -1.825   1.260  24.935  0.00  0.00    +0.010 C 
ATOM      8  C   UNL     1      -1.940  -0.117  25.612  0.00  0.00    +0.111 C 
ATOM      9  C   UNL     1       0.295   0.411  23.790  0.00  0.00    +0.023 C 
ATOM     12  C   UNL     1       0.102  -0.933  24.489  0.00  0.00    +0.108 C 
ATOM     14  C   UNL     1      -1.938  -2.331  24.358  0.00  0.00    +0.219 C 
ENDROOT
BRANCH  14   7
ATOM      7  C   UNL     1      -3.379  -2.508  24.709  0.00  0.00    +0.075 C 
ATOM     10  C   UNL     1      -4.403  -1.867  23.838  0.00  0.00    +0.013 C 
ATOM     11  C   UNL     1      -4.223  -3.357  23.822  0.00  0.00    +0.013 C 
ENDBRANCH  14   7
BRANCH   6  16
ATOM     16  C   UNL     1      -2.768   1.341  23.728  0.00  0.00    +0.002 C 
ATOM     20  C   UNL     1      -4.211   1.451  24.170  0.00  0.00    +0.004 C 
ENDBRANCH   6  16
BRANCH   5  13
ATOM     13  C   UNL     1      -0.144   2.892  23.879  0.00  0.00    +0.099 C 
BRANCH  13  19
ATOM      2  O   UNL     1      -0.403   5.191  24.594  0.00  0.00    -0.276 OA
ATOM      4  N   UNL     1      -1.957   3.605  25.275  0.00  0.00    -0.312 N 
ATOM     19  C   UNL     1      -0.820   4.036  24.605  0.00  0.00    +0.214 C 
ATOM     21  H   UNL     1      -2.243   2.632  25.219  0.00  0.00    +0.149 HD
BRANCH   4  15
ATOM     15  C   UNL     1      -2.781   4.494  26.044  0.00  0.00    +0.073 C 
ATOM     17  C   UNL     1      -4.244   4.616  25.763  0.00  0.00    +0.024 C 
ATOM     18  C   UNL     1      -3.772   3.959  27.026  0.00  0.00    +0.024 C 
ENDBRANCH   4  15
ENDBRANCH  13  19
ENDBRANCH   5  13
TORSDOF 5
ENDMDL
MODEL 5
REMARK VINA RESULT:      -3.1      2.614      6.449
REMARK  Name = 11912219
REMARK  6 active torsions:
REMARK  status: ('A' for Active; 'I' for Inactive)
REMARK    1  A    between atoms: N_4  and  C_15
REMARK    2  A    between atoms: C_5  and  C_13
REMARK    3  A    between atoms: C_6  and  C_16
REMARK    4  A    between atoms: C_7  and  C_14
REMARK    5  A    between atoms: C_13  and  C_19
REMARK    6  A    between atoms: C_16  and  C_20
REMARK                            x       y       z     vdW  Elec       q    Type
REMARK                         _______ _______ _______ _____ _____    ______ ____
ROOT
ATOM      1  O   UNL     1      -0.490  -1.410  25.848  0.00  0.00    -0.275 OA
ATOM      3  N   UNL     1      -2.424  -1.008  24.616  0.00  0.00    -0.301 N 
ATOM      5  C   UNL     1      -4.925   0.452  24.611  0.00  0.00    +0.004 C 
ATOM      6  C   UNL     1      -3.954   0.527  23.404  0.00  0.00    +0.010 C 
ATOM      8  C   UNL     1      -3.101  -0.752  23.339  0.00  0.00    +0.111 C 
ATOM      9  C   UNL     1      -4.179   0.132  25.919  0.00  0.00    +0.023 C 
ATOM     12  C   UNL     1      -3.312  -1.116  25.772  0.00  0.00    +0.108 C 
ATOM     14  C   UNL     1      -1.045  -1.173  24.778  0.00  0.00    +0.219 C 
ENDROOT
BRANCH  14   7
ATOM      7  C   UNL     1      -0.192  -1.048  23.558  0.00  0.00    +0.075 C 
ATOM     10  C   UNL     1       0.289   0.306  23.167  0.00  0.00    +0.013 C 
ATOM     11  C   UNL     1       1.246  -0.701  23.735  0.00  0.00    +0.013 C 
ENDBRANCH  14   7
BRANCH   6  16
ATOM     16  C   UNL     1      -3.054   1.768  23.406  0.00  0.00    +0.002 C 
ATOM     20  C   UNL     1      -2.607   2.121  22.004  0.00  0.00    +0.004 C 
ENDBRANCH   6  16
BRANCH   5  13
ATOM     13  C   UNL     1      -5.782   1.706  24.772  0.00  0.00    +0.099 C 
BRANCH  13  19
ATOM      2  O   UNL     1      -5.681   3.054  26.781  0.00  0.00    -0.276 OA
ATOM      4  N   UNL     1      -3.939   3.162  25.249  0.00  0.00    -0.312 N 
ATOM     19  C   UNL     1      -5.160   2.704  25.725  0.00  0.00    +0.214 C 
ATOM     21  H   UNL     1      -3.570   2.808  24.371  0.00  0.00    +0.149 HD
BRANCH   4  15
ATOM     15  C   UNL     1      -3.143   4.119  25.964  0.00  0.00    +0.073 C 
ATOM     17  C   UNL     1      -1.709   3.838  26.279  0.00  0.00    +0.024 C 
ATOM     18  C   UNL     1      -2.067   4.888  25.269  0.00  0.00    +0.024 C 
ENDBRANCH   4  15
ENDBRANCH  13  19
ENDBRANCH   5  13
TORSDOF 5
ENDMDL
MODEL 6
REMARK VINA RESULT:      -3.0      3.066      6.137
REMARK  Name = 11912219
REMARK  6 active torsions:
REMARK  status: ('A' for Active; 'I' for Inactive)
REMARK    1  A    between atoms: N_4  and  C_15
REMARK    2  A    between atoms: C_5  and  C_13
REMARK    3  A    between atoms: C_6  and  C_16
REMARK    4  A    between atoms: C_7  and  C_14
REMARK    5  A    between atoms: C_13  and  C_19
REMARK    6  A    between atoms: C_16  and  C_20
REMARK                            x       y       z     vdW  Elec       q    Type
REMARK                         _______ _______ _______ _____ _____    ______ ____
ROOT
ATOM      1  O   UNL     1      -4.208  -0.781  23.630  0.00  0.00    -0.275 OA
ATOM      3  N   UNL     1      -2.116   0.238  23.558  0.00  0.00    -0.301 N 
ATOM      5  C   UNL     1      -0.747   2.776  23.821  0.00  0.00    +0.004 C 
ATOM      6  C   UNL     1      -0.287   1.534  24.626  0.00  0.00    +0.010 C 
ATOM      8  C   UNL     1      -0.683   0.249  23.877  0.00  0.00    +0.111 C 
ATOM      9  C   UNL     1      -2.242   2.698  23.465  0.00  0.00    +0.023 C 
ATOM     12  C   UNL     1      -2.579   1.380  22.772  0.00  0.00    +0.108 C 
ATOM     14  C   UNL     1      -3.015  -0.769  23.922  0.00  0.00    +0.219 C 
ENDROOT
BRANCH  14   7
ATOM      7  C   UNL     1      -2.479  -1.908  24.727  0.00  0.00    +0.075 C 
ATOM     10  C   UNL     1      -3.215  -2.312  25.958  0.00  0.00    +0.013 C 
ATOM     11  C   UNL     1      -3.244  -3.186  24.738  0.00  0.00    +0.013 C 
ENDBRANCH  14   7
BRANCH   6  16
ATOM     16  C   UNL     1      -0.814   1.495  26.066  0.00  0.00    +0.002 C 
ATOM     20  C   UNL     1       0.132   2.204  27.012  0.00  0.00    +0.004 C 
ENDBRANCH   6  16
BRANCH   5  13
ATOM     13  C   UNL     1      -0.428   4.097  24.519  0.00  0.00    +0.099 C 
BRANCH  13  19
ATOM      2  O   UNL     1      -1.809   5.960  25.217  0.00  0.00    -0.276 OA
ATOM      4  N   UNL     1      -2.592   3.792  25.501  0.00  0.00    -0.312 N 
ATOM     19  C   UNL     1      -1.663   4.745  25.108  0.00  0.00    +0.214 C 
ATOM     21  H   UNL     1      -2.400   2.804  25.360  0.00  0.00    +0.149 HD
BRANCH   4  15
ATOM     15  C   UNL     1      -3.853   4.143  26.093  0.00  0.00    +0.073 C 
ATOM     17  C   UNL     1      -5.059   4.373  25.243  0.00  0.00    +0.024 C 
ATOM     18  C   UNL     1      -4.980   3.163  26.125  0.00  0.00    +0.024 C 
ENDBRANCH   4  15
ENDBRANCH  13  19
ENDBRANCH   5  13
TORSDOF 5
ENDMDL
MODEL 7
REMARK VINA RESULT:      -2.5      2.411      6.634
REMARK  Name = 11912219
REMARK  6 active torsions:
REMARK  status: ('A' for Active; 'I' for Inactive)
REMARK    1  A    between atoms: N_4  and  C_15
REMARK    2  A    between atoms: C_5  and  C_13
REMARK    3  A    between atoms: C_6  and  C_16
REMARK    4  A    between atoms: C_7  and  C_14
REMARK    5  A    between atoms: C_13  and  C_19
REMARK    6  A    between atoms: C_16  and  C_20
REMARK                            x       y       z     vdW  Elec       q    Type
REMARK                         _______ _______ _______ _____ _____    ______ ____
ROOT
ATOM      1  O   UNL     1       1.227  -0.420  23.163  0.00  0.00    -0.275 OA
ATOM      3  N   UNL     1      -0.212   0.655  24.644  0.00  0.00    -0.301 N 
ATOM      5  C   UNL     1      -1.559   3.160  25.185  0.00  0.00    +0.004 C 
ATOM      6  C   UNL     1      -2.345   1.824  25.148  0.00  0.00    +0.010 C 
ATOM      8  C   UNL     1      -1.406   0.656  25.499  0.00  0.00    +0.111 C 
ATOM      9  C   UNL     1      -0.291   3.096  24.316  0.00  0.00    +0.023 C 
ATOM     12  C   UNL     1       0.570   1.889  24.679  0.00  0.00    +0.108 C 
ATOM     14  C   UNL     1       0.214  -0.420  23.858  0.00  0.00    +0.219 C 
ENDROOT
BRANCH  14   7
ATOM      7  C   UNL     1      -0.631  -1.652  23.864  0.00  0.00    +0.075 C 
ATOM     10  C   UNL     1      -0.381  -2.676  24.916  0.00  0.00    +0.013 C 
ATOM     11  C   UNL     1      -1.618  -1.826  24.967  0.00  0.00    +0.013 C 
ENDBRANCH  14   7
BRANCH   6  16
ATOM     16  C   UNL     1      -3.053   1.555  23.814  0.00  0.00    +0.002 C 
ATOM     20  C   UNL     1      -3.800   0.239  23.848  0.00  0.00    +0.004 C 
ENDBRANCH   6  16
BRANCH   5  13
ATOM     13  C   UNL     1      -2.412   4.369  24.804  0.00  0.00    +0.099 C 
BRANCH  13  19
ATOM      2  O   UNL     1      -4.394   4.043  23.451  0.00  0.00    -0.276 OA
ATOM      4  N   UNL     1      -4.483   3.595  25.728  0.00  0.00    -0.312 N 
ATOM     19  C   UNL     1      -3.857   3.995  24.555  0.00  0.00    +0.214 C 
ATOM     21  H   UNL     1      -3.961   3.567  26.600  0.00  0.00    +0.149 HD
BRANCH   4  15
ATOM     15  C   UNL     1      -5.859   3.187  25.767  0.00  0.00    +0.073 C 
ATOM     17  C   UNL     1      -6.329   2.003  24.987  0.00  0.00    +0.024 C 
ATOM     18  C   UNL     1      -6.266   1.942  26.485  0.00  0.00    +0.024 C 
ENDBRANCH   4  15
ENDBRANCH  13  19
ENDBRANCH   5  13
TORSDOF 5
ENDMDL
