MODEL 1
REMARK VINA RESULT:      -4.8      0.000      0.000
REMARK  Name = 45783379
REMARK  7 active torsions:
REMARK  status: ('A' for Active; 'I' for Inactive)
REMARK    1  A    between atoms: O_2  and  C_20
REMARK    2  A    between atoms: O_2  and  C_22
REMARK    3  A    between atoms: N_3  and  C_13
REMARK    4  A    between atoms: N_6  and  C_18
REMARK    5  A    between atoms: C_8  and  C_12
REMARK    6  A    between atoms: C_14  and  C_15
REMARK    7  A    between atoms: C_18  and  C_20
REMARK                            x       y       z     vdW  Elec       q    Type
REMARK                         _______ _______ _______ _____ _____    ______ ____
ROOT
ATOM      6  N   UNL     1      -3.935 -10.471  15.956  0.00  0.00    -0.326 N 
ATOM      7  N   UNL     1      -5.092 -10.525  18.019  0.00  0.00    -0.240 NA
ATOM     15  C   UNL     1      -6.328 -10.173  15.971  0.00  0.00    +0.062 A 
ATOM     16  C   UNL     1      -5.154 -10.388  16.675  0.00  0.00    +0.130 A 
ATOM     17  C   UNL     1      -7.514 -10.093  16.692  0.00  0.00    +0.016 A 
ATOM     19  C   UNL     1      -7.491 -10.229  18.076  0.00  0.00    +0.020 A 
ATOM     21  C   UNL     1      -6.266 -10.441  18.686  0.00  0.00    +0.113 A 
ATOM     23  H   UNL     1      -3.921 -10.016  15.049  0.00  0.00    +0.148 HD
ENDROOT
BRANCH  15  14
ATOM      1  O   UNL     1      -7.024  -9.633  12.552  0.00  0.00    -0.336 OA
ATOM      4  N   UNL     1      -5.275 -10.320  13.771  0.00  0.00    -0.190 NA
ATOM      5  N   UNL     1      -7.448  -9.616  13.888  0.00  0.00    -0.056 NA
ATOM     12  C   UNL     1      -5.735 -10.060  12.572  0.00  0.00    +0.245 A 
ATOM     14  C   UNL     1      -6.361 -10.032  14.544  0.00  0.00    +0.205 A 
BRANCH  12   8
ATOM      3  N   UNL     1      -4.930  -8.866  10.543  0.00  0.00    -0.294 NA
ATOM      8  C   UNL     1      -5.038 -10.168  11.232  0.00  0.00    +0.146 C 
ATOM      9  C   UNL     1      -3.587 -10.667  11.354  0.00  0.00    +0.030 C 
ATOM     10  C   UNL     1      -2.743  -9.613  10.653  0.00  0.00    +0.017 C 
ATOM     11  C   UNL     1      -3.723  -8.934   9.718  0.00  0.00    +0.085 C 
ATOM     13  C   UNL     1      -6.111  -8.530   9.759  0.00  0.00    +0.105 C 
ENDBRANCH  12   8
ENDBRANCH  15  14
BRANCH   6  18
ATOM     18  C   UNL     1      -2.679 -10.691  16.594  0.00  0.00    +0.131 C 
BRANCH  18  20
ATOM     20  C   UNL     1      -1.576 -10.781  15.553  0.00  0.00    +0.178 C 
BRANCH  20   2
ATOM      2  O   UNL     1      -1.992 -10.121  14.363  0.00  0.00    -0.381 OA
ATOM     22  C   UNL     1      -0.972  -9.274  13.853  0.00  0.00    +0.194 C 
ENDBRANCH  20   2
ENDBRANCH  18  20
ENDBRANCH   6  18
TORSDOF 5
ENDMDL
MODEL 2
REMARK VINA RESULT:      -4.5     14.358     16.005
REMARK  Name = 45783379
REMARK  7 active torsions:
REMARK  status: ('A' for Active; 'I' for Inactive)
REMARK    1  A    between atoms: O_2  and  C_20
REMARK    2  A    between atoms: O_2  and  C_22
REMARK    3  A    between atoms: N_3  and  C_13
REMARK    4  A    between atoms: N_6  and  C_18
REMARK    5  A    between atoms: C_8  and  C_12
REMARK    6  A    between atoms: C_14  and  C_15
REMARK    7  A    between atoms: C_18  and  C_20
REMARK                            x       y       z     vdW  Elec       q    Type
REMARK                         _______ _______ _______ _____ _____    ______ ____
ROOT
ATOM      6  N   UNL     1      -2.532   1.886  23.672  0.00  0.00    -0.326 N 
ATOM      7  N   UNL     1      -4.013   0.163  24.332  0.00  0.00    -0.240 NA
ATOM     15  C   UNL     1      -1.635  -0.271  24.272  0.00  0.00    +0.062 A 
ATOM     16  C   UNL     1      -2.738   0.552  24.106  0.00  0.00    +0.130 A 
ATOM     17  C   UNL     1      -1.856  -1.576  24.698  0.00  0.00    +0.016 A 
ATOM     19  C   UNL     1      -3.153  -2.013  24.941  0.00  0.00    +0.020 A 
ATOM     21  C   UNL     1      -4.188  -1.113  24.744  0.00  0.00    +0.113 A 
ATOM     23  H   UNL     1      -1.671   2.060  23.163  0.00  0.00    +0.148 HD
ENDROOT
BRANCH  15  14
ATOM      1  O   UNL     1       1.464   1.381  23.919  0.00  0.00    -0.336 OA
ATOM      4  N   UNL     1       0.637  -0.648  23.458  0.00  0.00    -0.190 NA
ATOM      5  N   UNL     1       0.125   1.404  24.328  0.00  0.00    -0.056 NA
ATOM     12  C   UNL     1       1.684   0.138  23.417  0.00  0.00    +0.245 A 
ATOM     14  C   UNL     1      -0.294   0.172  24.025  0.00  0.00    +0.205 A 
BRANCH  12   8
ATOM      3  N   UNL     1       4.028   0.945  23.200  0.00  0.00    -0.294 NA
ATOM      8  C   UNL     1       3.078  -0.145  22.900  0.00  0.00    +0.146 C 
ATOM      9  C   UNL     1       3.707  -1.397  23.538  0.00  0.00    +0.030 C 
ATOM     10  C   UNL     1       5.032  -0.926  24.118  0.00  0.00    +0.017 C 
ATOM     11  C   UNL     1       5.347   0.324  23.321  0.00  0.00    +0.085 C 
ATOM     13  C   UNL     1       4.012   2.011  22.207  0.00  0.00    +0.105 C 
ENDBRANCH  12   8
ENDBRANCH  15  14
BRANCH   6  18
ATOM     18  C   UNL     1      -3.604   2.805  23.473  0.00  0.00    +0.131 C 
BRANCH  18  20
ATOM     20  C   UNL     1      -3.567   3.885  24.540  0.00  0.00    +0.178 C 
BRANCH  20   2
ATOM      2  O   UNL     1      -4.078   3.363  25.761  0.00  0.00    -0.381 OA
ATOM     22  C   UNL     1      -5.479   3.140  25.686  0.00  0.00    +0.194 C 
ENDBRANCH  20   2
ENDBRANCH  18  20
ENDBRANCH   6  18
TORSDOF 5
ENDMDL
MODEL 3
REMARK VINA RESULT:      -4.0     14.227     16.249
REMARK  Name = 45783379
REMARK  7 active torsions:
REMARK  status: ('A' for Active; 'I' for Inactive)
REMARK    1  A    between atoms: O_2  and  C_20
REMARK    2  A    between atoms: O_2  and  C_22
REMARK    3  A    between atoms: N_3  and  C_13
REMARK    4  A    between atoms: N_6  and  C_18
REMARK    5  A    between atoms: C_8  and  C_12
REMARK    6  A    between atoms: C_14  and  C_15
REMARK    7  A    between atoms: C_18  and  C_20
REMARK                            x       y       z     vdW  Elec       q    Type
REMARK                         _______ _______ _______ _____ _____    ______ ____
ROOT
ATOM      6  N   UNL     1      -2.832   0.770  24.451  0.00  0.00    -0.326 N 
ATOM      7  N   UNL     1      -3.157   2.993  25.191  0.00  0.00    -0.240 NA
ATOM     15  C   UNL     1      -0.940   2.258  24.569  0.00  0.00    +0.062 A 
ATOM     16  C   UNL     1      -2.297   2.049  24.747  0.00  0.00    +0.130 A 
ATOM     17  C   UNL     1      -0.431   3.518  24.865  0.00  0.00    +0.016 A 
ATOM     19  C   UNL     1      -1.284   4.516  25.324  0.00  0.00    +0.020 A 
ATOM     21  C   UNL     1      -2.626   4.205  25.469  0.00  0.00    +0.113 A 
ATOM     23  H   UNL     1      -2.178  -0.006  24.484  0.00  0.00    +0.148 HD
ENDROOT
BRANCH  15  14
ATOM      1  O   UNL     1       0.734  -0.656  23.489  0.00  0.00    -0.336 OA
ATOM      4  N   UNL     1       1.238   1.510  23.751  0.00  0.00    -0.190 NA
ATOM      5  N   UNL     1      -0.430  -0.040  23.968  0.00  0.00    -0.056 NA
ATOM     12  C   UNL     1       1.667   0.326  23.391  0.00  0.00    +0.245 A 
ATOM     14  C   UNL     1      -0.052   1.235  24.097  0.00  0.00    +0.205 A 
BRANCH  12   8
ATOM      3  N   UNL     1       4.070   0.928  23.159  0.00  0.00    -0.294 NA
ATOM      8  C   UNL     1       3.034  -0.088  22.888  0.00  0.00    +0.146 C 
ATOM      9  C   UNL     1       3.555  -1.368  23.568  0.00  0.00    +0.030 C 
ATOM     10  C   UNL     1       4.914  -0.990  24.138  0.00  0.00    +0.017 C 
ATOM     11  C   UNL     1       5.333   0.204  23.304  0.00  0.00    +0.085 C 
ATOM     13  C   UNL     1       4.145   1.960  22.132  0.00  0.00    +0.105 C 
ENDBRANCH  12   8
ENDBRANCH  15  14
BRANCH   6  18
ATOM     18  C   UNL     1      -4.216   0.460  24.603  0.00  0.00    +0.131 C 
BRANCH  18  20
ATOM     20  C   UNL     1      -4.453  -1.014  24.322  0.00  0.00    +0.178 C 
BRANCH  20   2
ATOM      2  O   UNL     1      -3.661  -1.798  25.206  0.00  0.00    -0.381 OA
ATOM     22  C   UNL     1      -3.068  -2.902  24.535  0.00  0.00    +0.194 C 
ENDBRANCH  20   2
ENDBRANCH  18  20
ENDBRANCH   6  18
TORSDOF 5
ENDMDL
MODEL 4
REMARK VINA RESULT:      -3.1     14.078     16.060
REMARK  Name = 45783379
REMARK  7 active torsions:
REMARK  status: ('A' for Active; 'I' for Inactive)
REMARK    1  A    between atoms: O_2  and  C_20
REMARK    2  A    between atoms: O_2  and  C_22
REMARK    3  A    between atoms: N_3  and  C_13
REMARK    4  A    between atoms: N_6  and  C_18
REMARK    5  A    between atoms: C_8  and  C_12
REMARK    6  A    between atoms: C_14  and  C_15
REMARK    7  A    between atoms: C_18  and  C_20
REMARK                            x       y       z     vdW  Elec       q    Type
REMARK                         _______ _______ _______ _____ _____    ______ ____
ROOT
ATOM      6  N   UNL     1      -0.397   1.828  24.171  0.00  0.00    -0.326 N 
ATOM      7  N   UNL     1      -0.045   4.154  24.415  0.00  0.00    -0.240 NA
ATOM     15  C   UNL     1      -2.222   3.224  24.901  0.00  0.00    +0.062 A 
ATOM     16  C   UNL     1      -0.899   3.111  24.505  0.00  0.00    +0.130 A 
ATOM     17  C   UNL     1      -2.699   4.490  25.224  0.00  0.00    +0.016 A 
ATOM     19  C   UNL     1      -1.850   5.588  25.144  0.00  0.00    +0.020 A 
ATOM     21  C   UNL     1      -0.544   5.369  24.737  0.00  0.00    +0.113 A 
ATOM     23  H   UNL     1      -1.087   1.141  23.883  0.00  0.00    +0.148 HD
ENDROOT
BRANCH  15  14
ATOM      1  O   UNL     1      -4.869   0.891  25.043  0.00  0.00    -0.336 OA
ATOM      4  N   UNL     1      -2.632   0.827  25.149  0.00  0.00    -0.190 NA
ATOM      5  N   UNL     1      -4.434   2.217  24.916  0.00  0.00    -0.056 NA
ATOM     12  C   UNL     1      -3.746   0.139  25.177  0.00  0.00    +0.245 A 
ATOM     14  C   UNL     1      -3.105   2.097  24.987  0.00  0.00    +0.205 A 
BRANCH  12   8
ATOM      3  N   UNL     1      -3.732  -2.091  24.073  0.00  0.00    -0.294 NA
ATOM      8  C   UNL     1      -3.948  -1.354  25.334  0.00  0.00    +0.146 C 
ATOM      9  C   UNL     1      -2.959  -1.987  26.330  0.00  0.00    +0.030 C 
ATOM     10  C   UNL     1      -2.279  -3.107  25.559  0.00  0.00    +0.017 C 
ATOM     11  C   UNL     1      -3.261  -3.424  24.448  0.00  0.00    +0.085 C 
ATOM     13  C   UNL     1      -4.920  -2.147  23.229  0.00  0.00    +0.105 C 
ENDBRANCH  12   8
ENDBRANCH  15  14
BRANCH   6  18
ATOM     18  C   UNL     1       0.949   1.613  23.754  0.00  0.00    +0.131 C 
BRANCH  18  20
ATOM     20  C   UNL     1       1.129   0.175  23.297  0.00  0.00    +0.178 C 
BRANCH  20   2
ATOM      2  O   UNL     1       2.118   0.123  22.276  0.00  0.00    -0.381 OA
ATOM     22  C   UNL     1       3.375   0.595  22.743  0.00  0.00    +0.194 C 
ENDBRANCH  20   2
ENDBRANCH  18  20
ENDBRANCH   6  18
TORSDOF 5
ENDMDL
MODEL 5
REMARK VINA RESULT:      -3.0     13.747     15.619
REMARK  Name = 45783379
REMARK  7 active torsions:
REMARK  status: ('A' for Active; 'I' for Inactive)
REMARK    1  A    between atoms: O_2  and  C_20
REMARK    2  A    between atoms: O_2  and  C_22
REMARK    3  A    between atoms: N_3  and  C_13
REMARK    4  A    between atoms: N_6  and  C_18
REMARK    5  A    between atoms: C_8  and  C_12
REMARK    6  A    between atoms: C_14  and  C_15
REMARK    7  A    between atoms: C_18  and  C_20
REMARK                            x       y       z     vdW  Elec       q    Type
REMARK                         _______ _______ _______ _____ _____    ______ ____
ROOT
ATOM      6  N   UNL     1      -3.440   0.052  24.209  0.00  0.00    -0.326 N 
ATOM      7  N   UNL     1      -5.196   1.455  24.947  0.00  0.00    -0.240 NA
ATOM     15  C   UNL     1      -2.964   2.358  24.727  0.00  0.00    +0.062 A 
ATOM     16  C   UNL     1      -3.885   1.326  24.641  0.00  0.00    +0.130 A 
ATOM     17  C   UNL     1      -3.418   3.601  25.154  0.00  0.00    +0.016 A 
ATOM     19  C   UNL     1      -4.760   3.772  25.477  0.00  0.00    +0.020 A 
ATOM     21  C   UNL     1      -5.600   2.677  25.359  0.00  0.00    +0.113 A 
ATOM     23  H   UNL     1      -2.451  -0.142  24.338  0.00  0.00    +0.148 HD
ENDROOT
BRANCH  15  14
ATOM      1  O   UNL     1       0.482   2.590  23.998  0.00  0.00    -0.336 OA
ATOM      4  N   UNL     1      -1.057   0.966  24.098  0.00  0.00    -0.190 NA
ATOM      5  N   UNL     1      -0.721   3.214  24.356  0.00  0.00    -0.056 NA
ATOM     12  C   UNL     1       0.196   1.269  23.864  0.00  0.00    +0.245 A 
ATOM     14  C   UNL     1      -1.579   2.190  24.396  0.00  0.00    +0.205 A 
BRANCH  12   8
ATOM      3  N   UNL     1       1.412   0.124  22.020  0.00  0.00    -0.294 NA
ATOM      8  C   UNL     1       1.346   0.365  23.476  0.00  0.00    +0.146 C 
ATOM      9  C   UNL     1       2.719   0.960  23.836  0.00  0.00    +0.030 C 
ATOM     10  C   UNL     1       3.507   0.959  22.534  0.00  0.00    +0.017 C 
ATOM     11  C   UNL     1       2.821  -0.106  21.702  0.00  0.00    +0.085 C 
ATOM     13  C   UNL     1       0.564  -0.977  21.580  0.00  0.00    +0.105 C 
ENDBRANCH  12   8
ENDBRANCH  15  14
BRANCH   6  18
ATOM     18  C   UNL     1      -4.313  -1.069  24.089  0.00  0.00    +0.131 C 
BRANCH  18  20
ATOM     20  C   UNL     1      -3.551  -2.353  24.366  0.00  0.00    +0.178 C 
BRANCH  20   2
ATOM      2  O   UNL     1      -2.416  -2.067  25.174  0.00  0.00    -0.381 OA
ATOM     22  C   UNL     1      -1.213  -2.507  24.559  0.00  0.00    +0.194 C 
ENDBRANCH  20   2
ENDBRANCH  18  20
ENDBRANCH   6  18
TORSDOF 5
ENDMDL
MODEL 6
REMARK VINA RESULT:      -3.0     14.100     16.002
REMARK  Name = 45783379
REMARK  7 active torsions:
REMARK  status: ('A' for Active; 'I' for Inactive)
REMARK    1  A    between atoms: O_2  and  C_20
REMARK    2  A    between atoms: O_2  and  C_22
REMARK    3  A    between atoms: N_3  and  C_13
REMARK    4  A    between atoms: N_6  and  C_18
REMARK    5  A    between atoms: C_8  and  C_12
REMARK    6  A    between atoms: C_14  and  C_15
REMARK    7  A    between atoms: C_18  and  C_20
REMARK                            x       y       z     vdW  Elec       q    Type
REMARK                         _______ _______ _______ _____ _____    ______ ____
ROOT
ATOM      6  N   UNL     1      -0.743  -0.509  24.180  0.00  0.00    -0.326 N 
ATOM      7  N   UNL     1      -1.671  -2.666  23.893  0.00  0.00    -0.240 NA
ATOM     15  C   UNL     1      -3.106  -0.830  24.534  0.00  0.00    +0.062 A 
ATOM     16  C   UNL     1      -1.873  -1.365  24.201  0.00  0.00    +0.130 A 
ATOM     17  C   UNL     1      -4.203  -1.684  24.552  0.00  0.00    +0.016 A 
ATOM     19  C   UNL     1      -4.036  -3.029  24.240  0.00  0.00    +0.020 A 
ATOM     21  C   UNL     1      -2.760  -3.466  23.921  0.00  0.00    +0.113 A 
ATOM     23  H   UNL     1      -0.810   0.331  24.746  0.00  0.00    +0.148 HD
ENDROOT
BRANCH  15  14
ATOM      1  O   UNL     1      -4.189   2.454  25.245  0.00  0.00    -0.336 OA
ATOM      4  N   UNL     1      -2.232   1.370  25.140  0.00  0.00    -0.190 NA
ATOM      5  N   UNL     1      -4.494   1.132  24.898  0.00  0.00    -0.056 NA
ATOM     12  C   UNL     1      -2.837   2.509  25.367  0.00  0.00    +0.245 A 
ATOM     14  C   UNL     1      -3.289   0.556  24.857  0.00  0.00    +0.205 A 
BRANCH  12   8
ATOM      3  N   UNL     1      -0.937   4.094  25.104  0.00  0.00    -0.294 NA
ATOM      8  C   UNL     1      -2.246   3.852  25.742  0.00  0.00    +0.146 C 
ATOM      9  C   UNL     1      -3.124   5.034  25.292  0.00  0.00    +0.030 C 
ATOM     10  C   UNL     1      -2.207   5.916  24.458  0.00  0.00    +0.017 C 
ATOM     11  C   UNL     1      -0.819   5.543  24.938  0.00  0.00    +0.085 C 
ATOM     13  C   UNL     1       0.181   3.536  25.855  0.00  0.00    +0.105 C 
ENDBRANCH  12   8
ENDBRANCH  15  14
BRANCH   6  18
ATOM     18  C   UNL     1       0.565  -0.968  23.849  0.00  0.00    +0.131 C 
BRANCH  18  20
ATOM     20  C   UNL     1       1.289   0.076  23.017  0.00  0.00    +0.178 C 
BRANCH  20   2
ATOM      2  O   UNL     1       2.615  -0.364  22.753  0.00  0.00    -0.381 OA
ATOM     22  C   UNL     1       3.509   0.732  22.609  0.00  0.00    +0.194 C 
ENDBRANCH  20   2
ENDBRANCH  18  20
ENDBRANCH   6  18
TORSDOF 5
ENDMDL
MODEL 7
REMARK VINA RESULT:      -2.9      2.421      3.448
REMARK  Name = 45783379
REMARK  7 active torsions:
REMARK  status: ('A' for Active; 'I' for Inactive)
REMARK    1  A    between atoms: O_2  and  C_20
REMARK    2  A    between atoms: O_2  and  C_22
REMARK    3  A    between atoms: N_3  and  C_13
REMARK    4  A    between atoms: N_6  and  C_18
REMARK    5  A    between atoms: C_8  and  C_12
REMARK    6  A    between atoms: C_14  and  C_15
REMARK    7  A    between atoms: C_18  and  C_20
REMARK                            x       y       z     vdW  Elec       q    Type
REMARK                         _______ _______ _______ _____ _____    ______ ____
ROOT
ATOM      6  N   UNL     1      -6.042  -9.646  15.991  0.00  0.00    -0.326 N 
ATOM      7  N   UNL     1      -7.638  -9.317  17.707  0.00  0.00    -0.240 NA
ATOM     15  C   UNL     1      -8.386  -9.631  15.429  0.00  0.00    +0.062 A 
ATOM     16  C   UNL     1      -7.396  -9.528  16.393  0.00  0.00    +0.130 A 
ATOM     17  C   UNL     1      -9.709  -9.511  15.840  0.00  0.00    +0.016 A 
ATOM     19  C   UNL     1      -9.998  -9.295  17.183  0.00  0.00    +0.020 A 
ATOM     21  C   UNL     1      -8.936  -9.206  18.068  0.00  0.00    +0.113 A 
ATOM     23  H   UNL     1      -5.845  -9.433  15.019  0.00  0.00    +0.148 HD
ENDROOT
BRANCH  15  14
ATOM      1  O   UNL     1      -7.195 -10.559  12.238  0.00  0.00    -0.336 OA
ATOM      4  N   UNL     1      -8.836  -9.271  13.054  0.00  0.00    -0.190 NA
ATOM      5  N   UNL     1      -7.097 -10.640  13.633  0.00  0.00    -0.056 NA
ATOM     12  C   UNL     1      -8.243  -9.733  11.982  0.00  0.00    +0.245 A 
ATOM     14  C   UNL     1      -8.098  -9.855  14.042  0.00  0.00    +0.205 A 
BRANCH  12   8
ATOM      3  N   UNL     1      -7.980 -10.499   9.629  0.00  0.00    -0.294 NA
ATOM      8  C   UNL     1      -8.561  -9.478  10.524  0.00  0.00    +0.146 C 
ATOM      9  C   UNL     1     -10.072  -9.515  10.229  0.00  0.00    +0.030 C 
ATOM     10  C   UNL     1     -10.235 -10.540   9.117  0.00  0.00    +0.017 C 
ATOM     11  C   UNL     1      -8.866 -10.585   8.468  0.00  0.00    +0.085 C 
ATOM     13  C   UNL     1      -6.603 -10.212   9.247  0.00  0.00    +0.105 C 
ENDBRANCH  12   8
ENDBRANCH  15  14
BRANCH   6  18
ATOM     18  C   UNL     1      -4.956  -9.554  16.910  0.00  0.00    +0.131 C 
BRANCH  18  20
ATOM     20  C   UNL     1      -4.069 -10.781  16.792  0.00  0.00    +0.178 C 
BRANCH  20   2
ATOM      2  O   UNL     1      -3.259 -10.670  15.628  0.00  0.00    -0.381 OA
ATOM     22  C   UNL     1      -1.962 -10.180  15.939  0.00  0.00    +0.194 C 
ENDBRANCH  20   2
ENDBRANCH  18  20
ENDBRANCH   6  18
TORSDOF 5
ENDMDL
MODEL 8
REMARK VINA RESULT:      -2.8     14.322     16.658
REMARK  Name = 45783379
REMARK  7 active torsions:
REMARK  status: ('A' for Active; 'I' for Inactive)
REMARK    1  A    between atoms: O_2  and  C_20
REMARK    2  A    between atoms: O_2  and  C_22
REMARK    3  A    between atoms: N_3  and  C_13
REMARK    4  A    between atoms: N_6  and  C_18
REMARK    5  A    between atoms: C_8  and  C_12
REMARK    6  A    between atoms: C_14  and  C_15
REMARK    7  A    between atoms: C_18  and  C_20
REMARK                            x       y       z     vdW  Elec       q    Type
REMARK                         _______ _______ _______ _____ _____    ______ ____
ROOT
ATOM      6  N   UNL     1      -3.565   2.808  25.167  0.00  0.00    -0.326 N 
ATOM      7  N   UNL     1      -2.744   5.026  25.150  0.00  0.00    -0.240 NA
ATOM     15  C   UNL     1      -1.220   3.191  24.759  0.00  0.00    +0.062 A 
ATOM     16  C   UNL     1      -2.479   3.707  25.021  0.00  0.00    +0.130 A 
ATOM     17  C   UNL     1      -0.165   4.086  24.620  0.00  0.00    +0.016 A 
ATOM     19  C   UNL     1      -0.399   5.451  24.745  0.00  0.00    +0.020 A 
ATOM     21  C   UNL     1      -1.694   5.866  25.009  0.00  0.00    +0.113 A 
ATOM     23  H   UNL     1      -3.325   1.859  25.438  0.00  0.00    +0.148 HD
ENDROOT
BRANCH  15  14
ATOM      1  O   UNL     1      -0.089  -0.085  24.087  0.00  0.00    -0.336 OA
ATOM      4  N   UNL     1      -1.792   0.855  25.197  0.00  0.00    -0.190 NA
ATOM      5  N   UNL     1       0.071   1.299  23.946  0.00  0.00    -0.056 NA
ATOM     12  C   UNL     1      -1.209  -0.260  24.835  0.00  0.00    +0.245 A 
ATOM     14  C   UNL     1      -0.971   1.784  24.628  0.00  0.00    +0.205 A 
BRANCH  12   8
ATOM      3  N   UNL     1      -3.009  -1.811  25.577  0.00  0.00    -0.294 NA
ATOM      8  C   UNL     1      -1.605  -1.691  25.134  0.00  0.00    +0.146 C 
ATOM      9  C   UNL     1      -1.506  -2.606  23.900  0.00  0.00    +0.030 C 
ATOM     10  C   UNL     1      -2.881  -3.242  23.764  0.00  0.00    +0.017 C 
ATOM     11  C   UNL     1      -3.463  -3.137  25.160  0.00  0.00    +0.085 C 
ATOM     13  C   UNL     1      -3.180  -1.598  27.009  0.00  0.00    +0.105 C 
ENDBRANCH  12   8
ENDBRANCH  15  14
BRANCH   6  18
ATOM     18  C   UNL     1      -4.895   3.245  25.438  0.00  0.00    +0.131 C 
BRANCH  18  20
ATOM     20  C   UNL     1      -5.850   2.065  25.391  0.00  0.00    +0.178 C 
BRANCH  20   2
ATOM      2  O   UNL     1      -5.115   0.854  25.522  0.00  0.00    -0.381 OA
ATOM     22  C   UNL     1      -5.023   0.163  24.284  0.00  0.00    +0.194 C 
ENDBRANCH  20   2
ENDBRANCH  18  20
ENDBRANCH   6  18
TORSDOF 5
ENDMDL
MODEL 9
REMARK VINA RESULT:      -2.8     22.712     25.675
REMARK  Name = 45783379
REMARK  7 active torsions:
REMARK  status: ('A' for Active; 'I' for Inactive)
REMARK    1  A    between atoms: O_2  and  C_20
REMARK    2  A    between atoms: O_2  and  C_22
REMARK    3  A    between atoms: N_3  and  C_13
REMARK    4  A    between atoms: N_6  and  C_18
REMARK    5  A    between atoms: C_8  and  C_12
REMARK    6  A    between atoms: C_14  and  C_15
REMARK    7  A    between atoms: C_18  and  C_20
REMARK                            x       y       z     vdW  Elec       q    Type
REMARK                         _______ _______ _______ _____ _____    ______ ____
ROOT
ATOM      6  N   UNL     1      11.189  -7.737  32.245  0.00  0.00    -0.326 N 
ATOM      7  N   UNL     1      11.458  -9.916  31.364  0.00  0.00    -0.240 NA
ATOM     15  C   UNL     1      13.134  -8.234  30.909  0.00  0.00    +0.062 A 
ATOM     16  C   UNL     1      11.948  -8.661  31.483  0.00  0.00    +0.130 A 
ATOM     17  C   UNL     1      13.864  -9.153  30.164  0.00  0.00    +0.016 A 
ATOM     19  C   UNL     1      13.393 -10.453  30.019  0.00  0.00    +0.020 A 
ATOM     21  C   UNL     1      12.195 -10.781  30.632  0.00  0.00    +0.113 A 
ATOM     23  H   UNL     1      11.341  -6.755  32.034  0.00  0.00    +0.148 HD
ENDROOT
BRANCH  15  14
ATOM      1  O   UNL     1      13.721  -4.767  31.229  0.00  0.00    -0.336 OA
ATOM      4  N   UNL     1      14.960  -6.632  31.176  0.00  0.00    -0.190 NA
ATOM      5  N   UNL     1      12.820  -5.830  31.075  0.00  0.00    -0.056 NA
ATOM     12  C   UNL     1      14.958  -5.327  31.278  0.00  0.00    +0.245 A 
ATOM     14  C   UNL     1      13.627  -6.895  31.053  0.00  0.00    +0.205 A 
BRANCH  12   8
ATOM      3  N   UNL     1      16.407  -3.606  30.215  0.00  0.00    -0.294 NA
ATOM      8  C   UNL     1      16.123  -4.374  31.443  0.00  0.00    +0.146 C 
ATOM      9  C   UNL     1      15.870  -3.306  32.522  0.00  0.00    +0.030 C 
ATOM     10  C   UNL     1      16.094  -1.973  31.823  0.00  0.00    +0.017 C 
ATOM     11  C   UNL     1      16.980  -2.331  30.646  0.00  0.00    +0.085 C 
ATOM     13  C   UNL     1      17.279  -4.312  29.284  0.00  0.00    +0.105 C 
ENDBRANCH  12   8
ENDBRANCH  15  14
BRANCH   6  18
ATOM     18  C   UNL     1       9.958  -8.084  32.873  0.00  0.00    +0.131 C 
BRANCH  18  20
ATOM     20  C   UNL     1       8.796  -7.783  31.942  0.00  0.00    +0.178 C 
BRANCH  20   2
ATOM      2  O   UNL     1       8.153  -8.999  31.578  0.00  0.00    -0.381 OA
ATOM     22  C   UNL     1       7.251  -9.434  32.586  0.00  0.00    +0.194 C 
ENDBRANCH  20   2
ENDBRANCH  18  20
ENDBRANCH   6  18
TORSDOF 5
ENDMDL
MODEL 10
REMARK VINA RESULT:      -2.7     14.031     16.318
REMARK  Name = 45783379
REMARK  7 active torsions:
REMARK  status: ('A' for Active; 'I' for Inactive)
REMARK    1  A    between atoms: O_2  and  C_20
REMARK    2  A    between atoms: O_2  and  C_22
REMARK    3  A    between atoms: N_3  and  C_13
REMARK    4  A    between atoms: N_6  and  C_18
REMARK    5  A    between atoms: C_8  and  C_12
REMARK    6  A    between atoms: C_14  and  C_15
REMARK    7  A    between atoms: C_18  and  C_20
REMARK                            x       y       z     vdW  Elec       q    Type
REMARK                         _______ _______ _______ _____ _____    ______ ____
ROOT
ATOM      6  N   UNL     1      -0.657  -0.904  24.223  0.00  0.00    -0.326 N 
ATOM      7  N   UNL     1       1.555  -1.021  23.393  0.00  0.00    -0.240 NA
ATOM     15  C   UNL     1       0.543   1.140  23.782  0.00  0.00    +0.062 A 
ATOM     16  C   UNL     1       0.519  -0.245  23.785  0.00  0.00    +0.130 A 
ATOM     17  C   UNL     1       1.705   1.770  23.349  0.00  0.00    +0.016 A 
ATOM     19  C   UNL     1       2.792   1.006  22.939  0.00  0.00    +0.020 A 
ATOM     21  C   UNL     1       2.667  -0.373  22.979  0.00  0.00    +0.113 A 
ATOM     23  H   UNL     1      -1.518  -0.369  24.158  0.00  0.00    +0.148 HD
ENDROOT
BRANCH  15  14
ATOM      1  O   UNL     1      -1.763   3.419  25.177  0.00  0.00    -0.336 OA
ATOM      4  N   UNL     1      -1.836   1.696  23.748  0.00  0.00    -0.190 NA
ATOM      5  N   UNL     1      -0.448   2.951  25.065  0.00  0.00    -0.056 NA
ATOM     12  C   UNL     1      -2.516   2.626  24.372  0.00  0.00    +0.245 A 
ATOM     14  C   UNL     1      -0.573   1.936  24.205  0.00  0.00    +0.205 A 
BRANCH  12   8
ATOM      3  N   UNL     1      -4.760   2.242  25.378  0.00  0.00    -0.294 NA
ATOM      8  C   UNL     1      -3.998   2.931  24.317  0.00  0.00    +0.146 C 
ATOM      9  C   UNL     1      -4.306   4.426  24.523  0.00  0.00    +0.030 C 
ATOM     10  C   UNL     1      -5.293   4.473  25.679  0.00  0.00    +0.017 C 
ATOM     11  C   UNL     1      -5.914   3.090  25.677  0.00  0.00    +0.085 C 
ATOM     13  C   UNL     1      -5.154   0.887  25.016  0.00  0.00    +0.105 C 
ENDBRANCH  12   8
ENDBRANCH  15  14
BRANCH   6  18
ATOM     18  C   UNL     1      -0.775  -2.324  24.261  0.00  0.00    +0.131 C 
BRANCH  18  20
ATOM     20  C   UNL     1      -2.190  -2.718  24.648  0.00  0.00    +0.178 C 
BRANCH  20   2
ATOM      2  O   UNL     1      -3.103  -1.740  24.165  0.00  0.00    -0.381 OA
ATOM     22  C   UNL     1      -4.327  -2.331  23.748  0.00  0.00    +0.194 C 
ENDBRANCH  20   2
ENDBRANCH  18  20
ENDBRANCH   6  18
TORSDOF 5
ENDMDL
