MODEL 1
REMARK VINA RESULT:      -4.8      0.000      0.000
REMARK  Name = 51137063
REMARK  3 active torsions:
REMARK  status: ('A' for Active; 'I' for Inactive)
REMARK    1  A    between atoms: N_3  and  C_9
REMARK    2  A    between atoms: C_5  and  C_10
REMARK    3  A    between atoms: C_9  and  C_11
REMARK                            x       y       z     vdW  Elec       q    Type
REMARK                         _______ _______ _______ _____ _____    ______ ____
ROOT
ATOM      3  N   UNL     1       0.896  -0.395  23.702  0.00  0.00    -0.297 NA
ATOM      5  C   UNL     1      -0.864   0.244  25.113  0.00  0.00    +0.090 C 
ATOM      6  C   UNL     1      -1.136  -1.164  24.555  0.00  0.00    +0.029 C 
ATOM      7  C   UNL     1       0.242   0.811  24.212  0.00  0.00    +0.097 C 
ATOM      8  C   UNL     1      -0.198  -1.303  23.363  0.00  0.00    +0.085 C 
ENDROOT
BRANCH   5  10
ATOM      2  O   UNL     1      -3.285   0.522  25.070  0.00  0.00    -0.439 OA
ATOM      4  N   UNL     1      -2.121   2.444  25.362  0.00  0.00    -0.213 NA
ATOM     10  C   UNL     1      -2.077   1.141  25.191  0.00  0.00    +0.201 A 
ATOM     12  C   UNL     1      -4.182   1.545  25.176  0.00  0.00    +0.155 A 
ATOM     13  C   UNL     1      -3.466   2.720  25.354  0.00  0.00    +0.110 A 
ATOM     15  C   UNL     1      -5.568   1.465  25.120  0.00  0.00    +0.048 A 
ATOM     16  C   UNL     1      -4.167   3.927  25.491  0.00  0.00    +0.031 A 
ATOM     19  C   UNL     1      -6.252   2.677  25.258  0.00  0.00    +0.004 A 
ATOM     20  C   UNL     1      -5.568   3.885  25.439  0.00  0.00    +0.002 A 
ENDBRANCH   5  10
BRANCH   3   9
ATOM      9  C   UNL     1       1.760  -0.118  22.563  0.00  0.00    +0.126 C 
BRANCH   9  11
ATOM      1  S   UNL     1       3.950  -1.374  23.727  0.00  0.00    -0.100 S 
ATOM     11  C   UNL     1       3.208  -0.033  22.964  0.00  0.00    +0.004 A 
ATOM     14  C   UNL     1       4.083   1.019  22.803  0.00  0.00    +0.012 A 
ATOM     17  C   UNL     1       5.379   0.720  23.313  0.00  0.00    +0.008 A 
ATOM     18  C   UNL     1       5.446  -0.549  23.845  0.00  0.00    +0.045 A 
ENDBRANCH   9  11
ENDBRANCH   3   9
TORSDOF 3
ENDMDL
MODEL 2
REMARK VINA RESULT:      -3.7      3.299      6.374
REMARK  Name = 51137063
REMARK  3 active torsions:
REMARK  status: ('A' for Active; 'I' for Inactive)
REMARK    1  A    between atoms: N_3  and  C_9
REMARK    2  A    between atoms: C_5  and  C_10
REMARK    3  A    between atoms: C_9  and  C_11
REMARK                            x       y       z     vdW  Elec       q    Type
REMARK                         _______ _______ _______ _____ _____    ______ ____
ROOT
ATOM      3  N   UNL     1      -0.418   3.606  25.258  0.00  0.00    -0.297 NA
ATOM      5  C   UNL     1      -0.272   1.266  25.212  0.00  0.00    +0.090 C 
ATOM      6  C   UNL     1       0.466   1.852  23.995  0.00  0.00    +0.029 C 
ATOM      7  C   UNL     1      -1.135   2.422  25.736  0.00  0.00    +0.097 C 
ATOM      8  C   UNL     1      -0.037   3.286  23.883  0.00  0.00    +0.085 C 
ENDROOT
BRANCH   5  10
ATOM      2  O   UNL     1      -2.385   0.208  24.614  0.00  0.00    -0.439 OA
ATOM      4  N   UNL     1      -0.667  -1.235  24.942  0.00  0.00    -0.213 NA
ATOM     10  C   UNL     1      -1.072   0.016  24.927  0.00  0.00    +0.201 A 
ATOM     12  C   UNL     1      -2.853  -1.058  24.410  0.00  0.00    +0.155 A 
ATOM     13  C   UNL     1      -1.800  -1.938  24.612  0.00  0.00    +0.110 A 
ATOM     15  C   UNL     1      -4.144  -1.437  24.063  0.00  0.00    +0.048 A 
ATOM     16  C   UNL     1      -2.027  -3.313  24.460  0.00  0.00    +0.031 A 
ATOM     19  C   UNL     1      -4.355  -2.812  23.916  0.00  0.00    +0.004 A 
ATOM     20  C   UNL     1      -3.319  -3.734  24.111  0.00  0.00    +0.002 A 
ENDBRANCH   5  10
BRANCH   3   9
ATOM      9  C   UNL     1      -1.225   4.814  25.342  0.00  0.00    +0.126 C 
BRANCH   9  11
ATOM      1  S   UNL     1      -3.547   4.062  24.008  0.00  0.00    -0.100 S 
ATOM     11  C   UNL     1      -2.696   4.502  25.428  0.00  0.00    +0.004 A 
ATOM     14  C   UNL     1      -3.512   4.515  26.537  0.00  0.00    +0.012 A 
ATOM     17  C   UNL     1      -4.855   4.160  26.217  0.00  0.00    +0.008 A 
ATOM     18  C   UNL     1      -5.013   3.888  24.876  0.00  0.00    +0.045 A 
ENDBRANCH   9  11
ENDBRANCH   3   9
TORSDOF 3
ENDMDL
MODEL 3
REMARK VINA RESULT:      -3.2      3.853      6.261
REMARK  Name = 51137063
REMARK  3 active torsions:
REMARK  status: ('A' for Active; 'I' for Inactive)
REMARK    1  A    between atoms: N_3  and  C_9
REMARK    2  A    between atoms: C_5  and  C_10
REMARK    3  A    between atoms: C_9  and  C_11
REMARK                            x       y       z     vdW  Elec       q    Type
REMARK                         _______ _______ _______ _____ _____    ______ ____
ROOT
ATOM      3  N   UNL     1      -4.739   3.953  25.248  0.00  0.00    -0.297 NA
ATOM      5  C   UNL     1      -5.026   1.764  24.459  0.00  0.00    +0.090 C 
ATOM      6  C   UNL     1      -5.919   1.988  25.692  0.00  0.00    +0.029 C 
ATOM      7  C   UNL     1      -4.023   2.925  24.489  0.00  0.00    +0.097 C 
ATOM      8  C   UNL     1      -5.359   3.237  26.362  0.00  0.00    +0.085 C 
ENDROOT
BRANCH   5  10
ATOM      2  O   UNL     1      -3.013   0.399  24.617  0.00  0.00    -0.439 OA
ATOM      4  N   UNL     1      -4.904  -0.762  24.157  0.00  0.00    -0.213 NA
ATOM     10  C   UNL     1      -4.357   0.410  24.397  0.00  0.00    +0.201 A 
ATOM     12  C   UNL     1      -2.680  -0.920  24.505  0.00  0.00    +0.155 A 
ATOM     13  C   UNL     1      -3.840  -1.627  24.223  0.00  0.00    +0.110 A 
ATOM     15  C   UNL     1      -1.420  -1.489  24.640  0.00  0.00    +0.048 A 
ATOM     16  C   UNL     1      -3.763  -3.017  24.059  0.00  0.00    +0.031 A 
ATOM     19  C   UNL     1      -1.360  -2.877  24.473  0.00  0.00    +0.004 A 
ATOM     20  C   UNL     1      -2.507  -3.628  24.188  0.00  0.00    +0.002 A 
ENDBRANCH   5  10
BRANCH   3   9
ATOM      9  C   UNL     1      -3.860   5.022  25.698  0.00  0.00    +0.126 C 
BRANCH   9  11
ATOM      1  S   UNL     1      -1.744   3.261  26.094  0.00  0.00    -0.100 S 
ATOM     11  C   UNL     1      -2.411   4.701  25.448  0.00  0.00    +0.004 A 
ATOM     14  C   UNL     1      -1.481   5.427  24.737  0.00  0.00    +0.012 A 
ATOM     17  C   UNL     1      -0.205   4.793  24.723  0.00  0.00    +0.008 A 
ATOM     18  C   UNL     1      -0.208   3.608  25.424  0.00  0.00    +0.045 A 
ENDBRANCH   9  11
ENDBRANCH   3   9
TORSDOF 3
ENDMDL
MODEL 4
REMARK VINA RESULT:      -2.9      1.542      2.187
REMARK  Name = 51137063
REMARK  3 active torsions:
REMARK  status: ('A' for Active; 'I' for Inactive)
REMARK    1  A    between atoms: N_3  and  C_9
REMARK    2  A    between atoms: C_5  and  C_10
REMARK    3  A    between atoms: C_9  and  C_11
REMARK                            x       y       z     vdW  Elec       q    Type
REMARK                         _______ _______ _______ _____ _____    ______ ____
ROOT
ATOM      3  N   UNL     1       1.013   0.800  23.037  0.00  0.00    -0.297 NA
ATOM      5  C   UNL     1      -0.917   2.088  23.374  0.00  0.00    +0.090 C 
ATOM      6  C   UNL     1       0.185   2.549  24.343  0.00  0.00    +0.029 C 
ATOM      7  C   UNL     1      -0.439   0.722  22.863  0.00  0.00    +0.097 C 
ATOM      8  C   UNL     1       1.204   1.417  24.349  0.00  0.00    +0.085 C 
ENDROOT
BRANCH   5  10
ATOM      2  O   UNL     1      -2.796   3.225  24.432  0.00  0.00    -0.439 OA
ATOM      4  N   UNL     1      -3.105   1.005  24.096  0.00  0.00    -0.213 NA
ATOM     10  C   UNL     1      -2.306   2.041  23.968  0.00  0.00    +0.201 A 
ATOM     12  C   UNL     1      -4.035   2.897  24.901  0.00  0.00    +0.155 A 
ATOM     13  C   UNL     1      -4.220   1.538  24.694  0.00  0.00    +0.110 A 
ATOM     15  C   UNL     1      -4.969   3.743  25.486  0.00  0.00    +0.048 A 
ATOM     16  C   UNL     1      -5.429   0.950  25.095  0.00  0.00    +0.031 A 
ATOM     19  C   UNL     1      -6.169   3.142  25.881  0.00  0.00    +0.004 A 
ATOM     20  C   UNL     1      -6.397   1.773  25.691  0.00  0.00    +0.002 A 
ENDBRANCH   5  10
BRANCH   3   9
ATOM      9  C   UNL     1       1.655  -0.502  22.938  0.00  0.00    +0.126 C 
BRANCH   9  11
ATOM      1  S   UNL     1       4.008   0.957  22.681  0.00  0.00    -0.100 S 
ATOM     11  C   UNL     1       3.135  -0.421  23.202  0.00  0.00    +0.004 A 
ATOM     14  C   UNL     1       3.944  -1.337  23.836  0.00  0.00    +0.012 A 
ATOM     17  C   UNL     1       5.300  -0.902  23.895  0.00  0.00    +0.008 A 
ATOM     18  C   UNL     1       5.475   0.329  23.304  0.00  0.00    +0.045 A 
ENDBRANCH   9  11
ENDBRANCH   3   9
TORSDOF 3
ENDMDL
MODEL 5
REMARK VINA RESULT:      -2.7      2.587      6.874
REMARK  Name = 51137063
REMARK  3 active torsions:
REMARK  status: ('A' for Active; 'I' for Inactive)
REMARK    1  A    between atoms: N_3  and  C_9
REMARK    2  A    between atoms: C_5  and  C_10
REMARK    3  A    between atoms: C_9  and  C_11
REMARK                            x       y       z     vdW  Elec       q    Type
REMARK                         _______ _______ _______ _____ _____    ______ ____
ROOT
ATOM      3  N   UNL     1      -3.759   1.804  25.180  0.00  0.00    -0.297 NA
ATOM      5  C   UNL     1      -1.498   2.325  24.845  0.00  0.00    +0.090 C 
ATOM      6  C   UNL     1      -2.370   3.218  23.946  0.00  0.00    +0.029 C 
ATOM      7  C   UNL     1      -2.433   1.194  25.294  0.00  0.00    +0.097 C 
ATOM      8  C   UNL     1      -3.732   2.534  23.914  0.00  0.00    +0.085 C 
ENDROOT
BRANCH   5  10
ATOM      2  O   UNL     1      -0.372   0.748  23.366  0.00  0.00    -0.439 OA
ATOM      4  N   UNL     1       0.996   2.275  24.332  0.00  0.00    -0.213 NA
ATOM     10  C   UNL     1      -0.230   1.818  24.197  0.00  0.00    +0.201 A 
ATOM     12  C   UNL     1       0.900   0.509  22.931  0.00  0.00    +0.155 A 
ATOM     13  C   UNL     1       1.733   1.445  23.525  0.00  0.00    +0.110 A 
ATOM     15  C   UNL     1       1.321  -0.483  22.054  0.00  0.00    +0.048 A 
ATOM     16  C   UNL     1       3.105   1.410  23.235  0.00  0.00    +0.031 A 
ATOM     19  C   UNL     1       2.692  -0.505  21.776  0.00  0.00    +0.004 A 
ATOM     20  C   UNL     1       3.568   0.422  22.354  0.00  0.00    +0.002 A 
ENDBRANCH   5  10
BRANCH   3   9
ATOM      9  C   UNL     1      -4.829   0.818  25.228  0.00  0.00    +0.126 C 
BRANCH   9  11
ATOM      1  S   UNL     1      -3.430  -1.420  26.105  0.00  0.00    -0.100 S 
ATOM     11  C   UNL     1      -4.328  -0.569  24.922  0.00  0.00    +0.004 A 
ATOM     14  C   UNL     1      -4.491  -1.304  23.769  0.00  0.00    +0.012 A 
ATOM     17  C   UNL     1      -3.869  -2.583  23.858  0.00  0.00    +0.008 A 
ATOM     18  C   UNL     1      -3.255  -2.776  25.075  0.00  0.00    +0.045 A 
ENDBRANCH   9  11
ENDBRANCH   3   9
TORSDOF 3
ENDMDL
MODEL 6
REMARK VINA RESULT:      -1.6      2.848      7.569
REMARK  Name = 51137063
REMARK  3 active torsions:
REMARK  status: ('A' for Active; 'I' for Inactive)
REMARK    1  A    between atoms: N_3  and  C_9
REMARK    2  A    between atoms: C_5  and  C_10
REMARK    3  A    between atoms: C_9  and  C_11
REMARK                            x       y       z     vdW  Elec       q    Type
REMARK                         _______ _______ _______ _____ _____    ______ ____
ROOT
ATOM      3  N   UNL     1      -2.708   4.399  26.051  0.00  0.00    -0.297 NA
ATOM      5  C   UNL     1      -0.712   3.261  25.585  0.00  0.00    +0.090 C 
ATOM      6  C   UNL     1      -0.590   4.724  25.124  0.00  0.00    +0.029 C 
ATOM      7  C   UNL     1      -2.216   3.044  25.795  0.00  0.00    +0.097 C 
ATOM      8  C   UNL     1      -2.022   5.241  25.072  0.00  0.00    +0.085 C 
ENDROOT
BRANCH   5  10
ATOM      2  O   UNL     1       1.241   2.382  24.421  0.00  0.00    -0.439 OA
ATOM      4  N   UNL     1      -0.682   1.250  24.023  0.00  0.00    -0.213 NA
ATOM     10  C   UNL     1      -0.095   2.247  24.649  0.00  0.00    +0.201 A 
ATOM     12  C   UNL     1       1.525   1.360  23.561  0.00  0.00    +0.155 A 
ATOM     13  C   UNL     1       0.345   0.670  23.320  0.00  0.00    +0.110 A 
ATOM     15  C   UNL     1       2.757   1.038  23.007  0.00  0.00    +0.048 A 
ATOM     16  C   UNL     1       0.372  -0.437  22.459  0.00  0.00    +0.031 A 
ATOM     19  C   UNL     1       2.767  -0.068  22.150  0.00  0.00    +0.004 A 
ATOM     20  C   UNL     1       1.599  -0.792  21.880  0.00  0.00    +0.002 A 
ENDBRANCH   5  10
BRANCH   3   9
ATOM      9  C   UNL     1      -4.156   4.493  25.945  0.00  0.00    +0.126 C 
BRANCH   9  11
ATOM      1  S   UNL     1      -4.229   2.364  24.157  0.00  0.00    -0.100 S 
ATOM     11  C   UNL     1      -4.778   3.176  25.562  0.00  0.00    +0.004 A 
ATOM     14  C   UNL     1      -5.778   2.481  26.204  0.00  0.00    +0.012 A 
ATOM     17  C   UNL     1      -6.099   1.265  25.533  0.00  0.00    +0.008 A 
ATOM     18  C   UNL     1      -5.332   1.078  24.405  0.00  0.00    +0.045 A 
ENDBRANCH   9  11
ENDBRANCH   3   9
TORSDOF 3
ENDMDL
MODEL 7
REMARK VINA RESULT:      -1.1      2.704      4.089
REMARK  Name = 51137063
REMARK  3 active torsions:
REMARK  status: ('A' for Active; 'I' for Inactive)
REMARK    1  A    between atoms: N_3  and  C_9
REMARK    2  A    between atoms: C_5  and  C_10
REMARK    3  A    between atoms: C_9  and  C_11
REMARK                            x       y       z     vdW  Elec       q    Type
REMARK                         _______ _______ _______ _____ _____    ______ ____
ROOT
ATOM      3  N   UNL     1       0.051   0.383  23.690  0.00  0.00    -0.297 NA
ATOM      5  C   UNL     1      -1.345   2.264  23.591  0.00  0.00    +0.090 C 
ATOM      6  C   UNL     1      -0.082   2.602  24.403  0.00  0.00    +0.029 C 
ATOM      7  C   UNL     1      -1.361   0.731  23.518  0.00  0.00    +0.097 C 
ATOM      8  C   UNL     1       0.527   1.253  24.764  0.00  0.00    +0.085 C 
ENDROOT
BRANCH   5  10
ATOM      2  O   UNL     1      -3.581   1.935  24.504  0.00  0.00    -0.439 OA
ATOM      4  N   UNL     1      -2.945   4.104  24.325  0.00  0.00    -0.213 NA
ATOM     10  C   UNL     1      -2.628   2.841  24.145  0.00  0.00    +0.201 A 
ATOM     12  C   UNL     1      -4.606   2.714  24.960  0.00  0.00    +0.155 A 
ATOM     13  C   UNL     1      -4.213   4.040  24.847  0.00  0.00    +0.110 A 
ATOM     15  C   UNL     1      -5.835   2.291  25.452  0.00  0.00    +0.048 A 
ATOM     16  C   UNL     1      -5.101   5.046  25.255  0.00  0.00    +0.031 A 
ATOM     19  C   UNL     1      -6.709   3.307  25.853  0.00  0.00    +0.004 A 
ATOM     20  C   UNL     1      -6.352   4.657  25.757  0.00  0.00    +0.002 A 
ENDBRANCH   5  10
BRANCH   3   9
ATOM      9  C   UNL     1       0.241  -1.028  23.994  0.00  0.00    +0.126 C 
BRANCH   9  11
ATOM      1  S   UNL     1      -1.837  -1.082  25.841  0.00  0.00    -0.100 S 
ATOM     11  C   UNL     1      -1.037  -1.681  24.451  0.00  0.00    +0.004 A 
ATOM     14  C   UNL     1      -1.703  -2.748  23.891  0.00  0.00    +0.012 A 
ATOM     17  C   UNL     1      -2.886  -3.079  24.613  0.00  0.00    +0.008 A 
ATOM     18  C   UNL     1      -3.079  -2.252  25.697  0.00  0.00    +0.045 A 
ENDBRANCH   9  11
ENDBRANCH   3   9
TORSDOF 3
ENDMDL
