MODEL 1
REMARK VINA RESULT:      -4.3      0.000      0.000
REMARK  Name = 71693772
REMARK  5 active torsions:
REMARK  status: ('A' for Active; 'I' for Inactive)
REMARK    1  A    between atoms: O_1  and  C_9
REMARK    2  A    between atoms: O_2  and  C_11
REMARK    3  A    between atoms: N_5  and  C_7
REMARK    4  A    between atoms: C_8  and  C_12
REMARK    5  A    between atoms: C_13  and  C_14
REMARK                            x       y       z     vdW  Elec       q    Type
REMARK                         _______ _______ _______ _____ _____    ______ ____
ROOT
ATOM      7  C   UNL     1      -2.075   2.395  24.658  0.00  0.00    +0.111 C 
ATOM      8  C   UNL     1      -0.716   2.052  25.311  0.00  0.00    +0.046 C 
ATOM      9  C   UNL     1      -2.475   3.703  25.336  0.00  0.00    +0.164 C 
ATOM     10  C   UNL     1      -0.149   3.396  25.836  0.00  0.00    +0.044 C 
ATOM     11  C   UNL     1      -1.158   4.466  25.422  0.00  0.00    +0.145 C 
ENDROOT
BRANCH   8  12
ATOM      6  N   UNL     1       2.295   1.243  23.149  0.00  0.00    -0.263 NA
ATOM     12  C   UNL     1       0.215   1.303  24.381  0.00  0.00    -0.024 A 
ATOM     17  C   UNL     1      -0.112   0.039  23.904  0.00  0.00    +0.007 A 
ATOM     18  C   UNL     1       1.420   1.856  23.977  0.00  0.00    +0.114 A 
ATOM     21  C   UNL     1       0.762  -0.624  23.051  0.00  0.00    +0.020 A 
ATOM     22  C   UNL     1       1.943   0.015  22.706  0.00  0.00    +0.111 A 
ENDBRANCH   8  12
BRANCH   7   5
ATOM      4  O   UNL     1      -3.197   0.595  22.676  0.00  0.00    -0.276 OA
ATOM      5  N   UNL     1      -3.053   1.357  24.871  0.00  0.00    -0.309 N 
ATOM     14  C   UNL     1      -3.533   0.543  23.856  0.00  0.00    +0.217 C 
ATOM     23  H   UNL     1      -3.351   1.179  25.825  0.00  0.00    +0.149 HD
BRANCH  14  13
ATOM      3  O   UNL     1      -3.262  -2.767  25.566  0.00  0.00    -0.380 OA
ATOM     13  C   UNL     1      -4.523  -0.469  24.355  0.00  0.00    +0.079 C 
ATOM     15  C   UNL     1      -4.388  -0.636  25.868  0.00  0.00    +0.041 C 
ATOM     16  C   UNL     1      -4.360  -1.801  23.622  0.00  0.00    +0.041 C 
ATOM     19  C   UNL     1      -3.199  -1.513  26.243  0.00  0.00    +0.160 C 
ATOM     20  C   UNL     1      -3.182  -2.614  24.150  0.00  0.00    +0.160 C 
ENDBRANCH  14  13
ENDBRANCH   7   5
BRANCH   9   1
ATOM      1  O   UNL     1      -3.434   4.425  24.588  0.00  0.00    -0.387 OA
ATOM     24  H   UNL     1      -3.884   3.793  24.002  0.00  0.00    +0.210 HD
ENDBRANCH   9   1
BRANCH  11   2
ATOM      2  O   UNL     1      -0.781   4.979  24.148  0.00  0.00    -0.389 OA
ATOM     25  H   UNL     1      -1.281   4.487  23.476  0.00  0.00    +0.210 HD
ENDBRANCH  11   2
TORSDOF 5
ENDMDL
MODEL 2
REMARK VINA RESULT:      -4.3      2.080      4.401
REMARK  Name = 71693772
REMARK  5 active torsions:
REMARK  status: ('A' for Active; 'I' for Inactive)
REMARK    1  A    between atoms: O_1  and  C_9
REMARK    2  A    between atoms: O_2  and  C_11
REMARK    3  A    between atoms: N_5  and  C_7
REMARK    4  A    between atoms: C_8  and  C_12
REMARK    5  A    between atoms: C_13  and  C_14
REMARK                            x       y       z     vdW  Elec       q    Type
REMARK                         _______ _______ _______ _____ _____    ______ ____
ROOT
ATOM      7  C   UNL     1      -1.445   1.804  25.395  0.00  0.00    +0.111 C 
ATOM      8  C   UNL     1      -2.394   2.247  24.258  0.00  0.00    +0.046 C 
ATOM      9  C   UNL     1      -0.077   2.296  24.928  0.00  0.00    +0.164 C 
ATOM     10  C   UNL     1      -1.680   3.426  23.548  0.00  0.00    +0.044 C 
ATOM     11  C   UNL     1      -0.386   3.661  24.325  0.00  0.00    +0.145 C 
ENDROOT
BRANCH   8  12
ATOM      6  N   UNL     1      -5.328   4.164  25.709  0.00  0.00    -0.263 NA
ATOM     12  C   UNL     1      -3.792   2.566  24.744  0.00  0.00    -0.024 A 
ATOM     17  C   UNL     1      -4.805   1.614  24.689  0.00  0.00    +0.007 A 
ATOM     18  C   UNL     1      -4.103   3.815  25.258  0.00  0.00    +0.114 A 
ATOM     21  C   UNL     1      -6.078   1.936  25.143  0.00  0.00    +0.020 A 
ATOM     22  C   UNL     1      -6.287   3.213  25.640  0.00  0.00    +0.111 A 
ENDBRANCH   8  12
BRANCH   7   5
ATOM      4  O   UNL     1      -0.253  -0.226  23.696  0.00  0.00    -0.276 OA
ATOM      5  N   UNL     1      -1.465   0.376  25.590  0.00  0.00    -0.309 N 
ATOM     14  C   UNL     1      -0.865  -0.521  24.719  0.00  0.00    +0.217 C 
ATOM     23  H   UNL     1      -1.886   0.023  26.444  0.00  0.00    +0.149 HD
BRANCH  14  13
ATOM      3  O   UNL     1      -3.721  -2.919  24.925  0.00  0.00    -0.380 OA
ATOM     13  C   UNL     1      -1.014  -1.945  25.171  0.00  0.00    +0.079 C 
ATOM     15  C   UNL     1      -1.475  -2.820  24.006  0.00  0.00    +0.041 C 
ATOM     16  C   UNL     1      -1.965  -2.043  26.363  0.00  0.00    +0.041 C 
ATOM     19  C   UNL     1      -2.969  -2.676  23.738  0.00  0.00    +0.160 C 
ATOM     20  C   UNL     1      -3.430  -1.966  25.945  0.00  0.00    +0.160 C 
ENDBRANCH  14  13
ENDBRANCH   7   5
BRANCH   9   1
ATOM      1  O   UNL     1       0.847   2.407  25.994  0.00  0.00    -0.387 OA
ATOM     24  H   UNL     1       0.726   3.285  26.396  0.00  0.00    +0.210 HD
ENDBRANCH   9   1
BRANCH  11   2
ATOM      2  O   UNL     1      -0.636   4.625  25.344  0.00  0.00    -0.389 OA
ATOM     25  H   UNL     1      -0.376   4.227  26.192  0.00  0.00    +0.210 HD
ENDBRANCH  11   2
TORSDOF 5
ENDMDL
MODEL 3
REMARK VINA RESULT:      -3.9      2.164      3.309
REMARK  Name = 71693772
REMARK  5 active torsions:
REMARK  status: ('A' for Active; 'I' for Inactive)
REMARK    1  A    between atoms: O_1  and  C_9
REMARK    2  A    between atoms: O_2  and  C_11
REMARK    3  A    between atoms: N_5  and  C_7
REMARK    4  A    between atoms: C_8  and  C_12
REMARK    5  A    between atoms: C_13  and  C_14
REMARK                            x       y       z     vdW  Elec       q    Type
REMARK                         _______ _______ _______ _____ _____    ______ ____
ROOT
ATOM      7  C   UNL     1      -4.345   1.988  25.272  0.00  0.00    +0.111 C 
ATOM      8  C   UNL     1      -3.432   2.937  26.082  0.00  0.00    +0.046 C 
ATOM      9  C   UNL     1      -5.753   2.400  25.697  0.00  0.00    +0.164 C 
ATOM     10  C   UNL     1      -4.308   4.169  26.431  0.00  0.00    +0.044 C 
ATOM     11  C   UNL     1      -5.662   3.920  25.769  0.00  0.00    +0.145 C 
ENDROOT
BRANCH   8  12
ATOM      6  N   UNL     1      -0.186   2.509  24.167  0.00  0.00    -0.263 NA
ATOM     12  C   UNL     1      -2.142   3.273  25.364  0.00  0.00    -0.024 A 
ATOM     17  C   UNL     1      -1.716   4.591  25.234  0.00  0.00    +0.007 A 
ATOM     18  C   UNL     1      -1.347   2.278  24.818  0.00  0.00    +0.114 A 
ATOM     21  C   UNL     1      -0.527   4.868  24.570  0.00  0.00    +0.020 A 
ATOM     22  C   UNL     1       0.196   3.802  24.059  0.00  0.00    +0.111 A 
ENDBRANCH   8  12
BRANCH   7   5
ATOM      4  O   UNL     1      -4.039  -0.190  23.376  0.00  0.00    -0.276 OA
ATOM      5  N   UNL     1      -4.079   0.602  25.566  0.00  0.00    -0.309 N 
ATOM     14  C   UNL     1      -3.948  -0.372  24.587  0.00  0.00    +0.217 C 
ATOM     23  H   UNL     1      -3.916   0.349  26.535  0.00  0.00    +0.149 HD
BRANCH  14  13
ATOM      3  O   UNL     1      -0.817  -2.269  25.329  0.00  0.00    -0.380 OA
ATOM     13  C   UNL     1      -3.648  -1.726  25.164  0.00  0.00    +0.079 C 
ATOM     15  C   UNL     1      -2.853  -1.580  26.461  0.00  0.00    +0.041 C 
ATOM     16  C   UNL     1      -2.918  -2.603  24.148  0.00  0.00    +0.041 C 
ATOM     19  C   UNL     1      -1.379  -1.288  26.199  0.00  0.00    +0.160 C 
ATOM     20  C   UNL     1      -1.435  -2.259  24.044  0.00  0.00    +0.160 C 
ENDBRANCH  14  13
ENDBRANCH   7   5
BRANCH   9   1
ATOM      1  O   UNL     1      -6.736   1.992  24.765  0.00  0.00    -0.387 OA
ATOM     24  H   UNL     1      -6.818   2.696  24.099  0.00  0.00    +0.210 HD
ENDBRANCH   9   1
BRANCH  11   2
ATOM      2  O   UNL     1      -5.643   4.493  24.465  0.00  0.00    -0.389 OA
ATOM     25  H   UNL     1      -5.185   3.868  23.878  0.00  0.00    +0.210 HD
ENDBRANCH  11   2
TORSDOF 5
ENDMDL
MODEL 4
REMARK VINA RESULT:      -3.3      2.267      3.746
REMARK  Name = 71693772
REMARK  5 active torsions:
REMARK  status: ('A' for Active; 'I' for Inactive)
REMARK    1  A    between atoms: O_1  and  C_9
REMARK    2  A    between atoms: O_2  and  C_11
REMARK    3  A    between atoms: N_5  and  C_7
REMARK    4  A    between atoms: C_8  and  C_12
REMARK    5  A    between atoms: C_13  and  C_14
REMARK                            x       y       z     vdW  Elec       q    Type
REMARK                         _______ _______ _______ _____ _____    ______ ____
ROOT
ATOM      7  C   UNL     1      -1.686   2.078  24.661  0.00  0.00    +0.111 C 
ATOM      8  C   UNL     1      -1.449   1.025  25.769  0.00  0.00    +0.046 C 
ATOM      9  C   UNL     1      -0.659   3.164  24.978  0.00  0.00    +0.164 C 
ATOM     10  C   UNL     1       0.005   1.246  26.258  0.00  0.00    +0.044 C 
ATOM     11  C   UNL     1       0.574   2.366  25.387  0.00  0.00    +0.145 C 
ENDROOT
BRANCH   8  12
ATOM      6  N   UNL     1      -1.019  -2.380  24.152  0.00  0.00    -0.263 NA
ATOM     12  C   UNL     1      -1.746  -0.389  25.314  0.00  0.00    -0.024 A 
ATOM     17  C   UNL     1      -2.960  -0.997  25.613  0.00  0.00    +0.007 A 
ATOM     18  C   UNL     1      -0.817  -1.116  24.588  0.00  0.00    +0.114 A 
ATOM     21  C   UNL     1      -3.205  -2.296  25.181  0.00  0.00    +0.020 A 
ATOM     22  C   UNL     1      -2.211  -2.938  24.461  0.00  0.00    +0.111 A 
ENDBRANCH   8  12
BRANCH   7   5
ATOM      4  O   UNL     1      -3.970   1.092  23.164  0.00  0.00    -0.276 OA
ATOM      5  N   UNL     1      -3.033   2.590  24.682  0.00  0.00    -0.309 N 
ATOM     14  C   UNL     1      -4.064   2.050  23.927  0.00  0.00    +0.217 C 
ATOM     23  H   UNL     1      -3.243   3.340  25.333  0.00  0.00    +0.149 HD
BRANCH  14  13
ATOM      3  O   UNL     1      -6.223   2.668  26.912  0.00  0.00    -0.380 OA
ATOM     13  C   UNL     1      -5.370   2.755  24.155  0.00  0.00    +0.079 C 
ATOM     15  C   UNL     1      -5.174   3.925  25.118  0.00  0.00    +0.041 C 
ATOM     16  C   UNL     1      -6.437   1.783  24.656  0.00  0.00    +0.041 C 
ATOM     19  C   UNL     1      -5.091   3.465  26.569  0.00  0.00    +0.160 C 
ATOM     20  C   UNL     1      -6.285   1.470  26.142  0.00  0.00    +0.160 C 
ENDBRANCH  14  13
ENDBRANCH   7   5
BRANCH   9   1
ATOM      1  O   UNL     1      -0.386   3.987  23.860  0.00  0.00    -0.387 OA
ATOM     24  H   UNL     1      -0.999   4.741  23.896  0.00  0.00    +0.210 HD
ENDBRANCH   9   1
BRANCH  11   2
ATOM      2  O   UNL     1       1.205   1.783  24.251  0.00  0.00    -0.389 OA
ATOM     25  H   UNL     1       2.161   1.929  24.341  0.00  0.00    +0.210 HD
ENDBRANCH  11   2
TORSDOF 5
ENDMDL
MODEL 5
REMARK VINA RESULT:      -2.9      2.188      5.143
REMARK  Name = 71693772
REMARK  5 active torsions:
REMARK  status: ('A' for Active; 'I' for Inactive)
REMARK    1  A    between atoms: O_1  and  C_9
REMARK    2  A    between atoms: O_2  and  C_11
REMARK    3  A    between atoms: N_5  and  C_7
REMARK    4  A    between atoms: C_8  and  C_12
REMARK    5  A    between atoms: C_13  and  C_14
REMARK                            x       y       z     vdW  Elec       q    Type
REMARK                         _______ _______ _______ _____ _____    ______ ____
ROOT
ATOM      7  C   UNL     1      -1.017   1.074  24.064  0.00  0.00    +0.111 C 
ATOM      8  C   UNL     1      -1.278  -0.133  24.994  0.00  0.00    +0.046 C 
ATOM      9  C   UNL     1       0.502   1.226  24.096  0.00  0.00    +0.164 C 
ATOM     10  C   UNL     1       0.044  -0.941  25.019  0.00  0.00    +0.044 C 
ATOM     11  C   UNL     1       0.995  -0.216  24.067  0.00  0.00    +0.145 C 
ENDROOT
BRANCH   8  12
ATOM      6  N   UNL     1      -4.809  -0.978  23.895  0.00  0.00    -0.263 NA
ATOM     12  C   UNL     1      -2.494  -0.940  24.591  0.00  0.00    -0.024 A 
ATOM     17  C   UNL     1      -2.449  -2.329  24.540  0.00  0.00    +0.007 A 
ATOM     18  C   UNL     1      -3.688  -0.318  24.262  0.00  0.00    +0.114 A 
ATOM     21  C   UNL     1      -3.581  -3.042  24.167  0.00  0.00    +0.020 A 
ATOM     22  C   UNL     1      -4.727  -2.327  23.856  0.00  0.00    +0.111 A 
ENDBRANCH   8  12
BRANCH   7   5
ATOM      4  O   UNL     1      -0.467   2.586  26.481  0.00  0.00    -0.276 OA
ATOM      5  N   UNL     1      -1.687   2.265  24.524  0.00  0.00    -0.309 N 
ATOM     14  C   UNL     1      -1.353   2.921  25.699  0.00  0.00    +0.217 C 
ATOM     23  H   UNL     1      -2.393   2.672  23.919  0.00  0.00    +0.149 HD
BRANCH  14  13
ATOM      3  O   UNL     1      -4.874   3.877  24.901  0.00  0.00    -0.380 OA
ATOM     13  C   UNL     1      -2.189   4.147  25.928  0.00  0.00    +0.079 C 
ATOM     15  C   UNL     1      -3.384   3.809  26.818  0.00  0.00    +0.041 C 
ATOM     16  C   UNL     1      -2.629   4.765  24.601  0.00  0.00    +0.041 C 
ATOM     19  C   UNL     1      -4.496   3.110  26.043  0.00  0.00    +0.160 C 
ATOM     20  C   UNL     1      -3.801   4.016  23.973  0.00  0.00    +0.160 C 
ENDBRANCH  14  13
ENDBRANCH   7   5
BRANCH   9   1
ATOM      1  O   UNL     1       0.992   1.955  22.988  0.00  0.00    -0.387 OA
ATOM     24  H   UNL     1       1.711   1.435  22.590  0.00  0.00    +0.210 HD
ENDBRANCH   9   1
BRANCH  11   2
ATOM      2  O   UNL     1       0.852  -0.778  22.766  0.00  0.00    -0.389 OA
ATOM     25  H   UNL     1       0.498  -0.084  22.186  0.00  0.00    +0.210 HD
ENDBRANCH  11   2
TORSDOF 5
ENDMDL
MODEL 6
REMARK VINA RESULT:      -2.8      2.019      4.464
REMARK  Name = 71693772
REMARK  5 active torsions:
REMARK  status: ('A' for Active; 'I' for Inactive)
REMARK    1  A    between atoms: O_1  and  C_9
REMARK    2  A    between atoms: O_2  and  C_11
REMARK    3  A    between atoms: N_5  and  C_7
REMARK    4  A    between atoms: C_8  and  C_12
REMARK    5  A    between atoms: C_13  and  C_14
REMARK                            x       y       z     vdW  Elec       q    Type
REMARK                         _______ _______ _______ _____ _____    ______ ____
ROOT
ATOM      7  C   UNL     1      -1.078   0.238  24.669  0.00  0.00    +0.111 C 
ATOM      8  C   UNL     1      -0.539  -0.398  23.367  0.00  0.00    +0.046 C 
ATOM      9  C   UNL     1      -2.005  -0.838  25.233  0.00  0.00    +0.164 C 
ATOM     10  C   UNL     1      -0.684  -1.930  23.553  0.00  0.00    +0.044 C 
ATOM     11  C   UNL     1      -1.241  -2.129  24.962  0.00  0.00    +0.145 C 
ENDROOT
BRANCH   8  12
ATOM      6  N   UNL     1       2.732   1.519  23.487  0.00  0.00    -0.263 NA
ATOM     12  C   UNL     1       0.864   0.058  23.023  0.00  0.00    -0.024 A 
ATOM     17  C   UNL     1       1.568  -0.522  21.973  0.00  0.00    +0.007 A 
ATOM     18  C   UNL     1       1.485   1.066  23.742  0.00  0.00    +0.114 A 
ATOM     21  C   UNL     1       2.854  -0.082  21.680  0.00  0.00    +0.020 A 
ATOM     22  C   UNL     1       3.387   0.932  22.460  0.00  0.00    +0.111 A 
ENDBRANCH   8  12
BRANCH   7   5
ATOM      4  O   UNL     1      -0.878   2.716  26.168  0.00  0.00    -0.276 OA
ATOM      5  N   UNL     1      -1.778   1.473  24.417  0.00  0.00    -0.309 N 
ATOM     14  C   UNL     1      -1.617   2.611  25.193  0.00  0.00    +0.217 C 
ATOM     23  H   UNL     1      -2.366   1.521  23.591  0.00  0.00    +0.149 HD
BRANCH  14  13
ATOM      3  O   UNL     1      -5.212   3.579  25.499  0.00  0.00    -0.380 OA
ATOM     13  C   UNL     1      -2.444   3.762  24.697  0.00  0.00    +0.079 C 
ATOM     15  C   UNL     1      -3.016   4.545  25.878  0.00  0.00    +0.041 C 
ATOM     16  C   UNL     1      -3.544   3.279  23.753  0.00  0.00    +0.041 C 
ATOM     19  C   UNL     1      -4.226   3.851  26.493  0.00  0.00    +0.160 C 
ATOM     20  C   UNL     1      -4.730   2.680  24.502  0.00  0.00    +0.160 C 
ENDBRANCH  14  13
ENDBRANCH   7   5
BRANCH   9   1
ATOM      1  O   UNL     1      -2.246  -0.668  26.616  0.00  0.00    -0.387 OA
ATOM     24  H   UNL     1      -1.457  -0.980  27.091  0.00  0.00    +0.210 HD
ENDBRANCH   9   1
BRANCH  11   2
ATOM      2  O   UNL     1      -0.150  -2.276  25.866  0.00  0.00    -0.389 OA
ATOM     25  H   UNL     1       0.438  -1.512  25.740  0.00  0.00    +0.210 HD
ENDBRANCH  11   2
TORSDOF 5
ENDMDL
MODEL 7
REMARK VINA RESULT:      -2.3      1.998      6.136
REMARK  Name = 71693772
REMARK  5 active torsions:
REMARK  status: ('A' for Active; 'I' for Inactive)
REMARK    1  A    between atoms: O_1  and  C_9
REMARK    2  A    between atoms: O_2  and  C_11
REMARK    3  A    between atoms: N_5  and  C_7
REMARK    4  A    between atoms: C_8  and  C_12
REMARK    5  A    between atoms: C_13  and  C_14
REMARK                            x       y       z     vdW  Elec       q    Type
REMARK                         _______ _______ _______ _____ _____    ______ ____
ROOT
ATOM      7  C   UNL     1      -2.388  -0.469  24.419  0.00  0.00    +0.111 C 
ATOM      8  C   UNL     1      -3.294  -0.202  25.644  0.00  0.00    +0.046 C 
ATOM      9  C   UNL     1      -1.944  -1.917  24.614  0.00  0.00    +0.164 C 
ATOM     10  C   UNL     1      -3.788  -1.594  26.114  0.00  0.00    +0.044 C 
ATOM     11  C   UNL     1      -3.208  -2.602  25.123  0.00  0.00    +0.145 C 
ENDROOT
BRANCH   8  12
ATOM      6  N   UNL     1      -5.167   3.082  25.331  0.00  0.00    -0.263 NA
ATOM     12  C   UNL     1      -4.402   0.788  25.356  0.00  0.00    -0.024 A 
ATOM     17  C   UNL     1      -5.636   0.364  24.876  0.00  0.00    +0.007 A 
ATOM     18  C   UNL     1      -4.220   2.146  25.566  0.00  0.00    +0.114 A 
ATOM     21  C   UNL     1      -6.635   1.297  24.622  0.00  0.00    +0.020 A 
ATOM     22  C   UNL     1      -6.353   2.632  24.863  0.00  0.00    +0.111 A 
ENDBRANCH   8  12
BRANCH   7   5
ATOM      4  O   UNL     1      -2.106   1.902  22.767  0.00  0.00    -0.276 OA
ATOM      5  N   UNL     1      -1.267   0.436  24.370  0.00  0.00    -0.309 N 
ATOM     14  C   UNL     1      -1.222   1.549  23.543  0.00  0.00    +0.217 C 
ATOM     23  H   UNL     1      -0.505   0.279  25.022  0.00  0.00    +0.149 HD
BRANCH  14  13
ATOM      3  O   UNL     1       0.049   3.979  26.079  0.00  0.00    -0.380 OA
ATOM     13  C   UNL     1       0.048   2.333  23.707  0.00  0.00    +0.079 C 
ATOM     15  C   UNL     1       0.755   1.922  24.998  0.00  0.00    +0.041 C 
ATOM     16  C   UNL     1      -0.228   3.835  23.666  0.00  0.00    +0.041 C 
ATOM     19  C   UNL     1       0.121   2.562  26.228  0.00  0.00    +0.160 C 
ATOM     20  C   UNL     1      -0.785   4.359  24.987  0.00  0.00    +0.160 C 
ENDBRANCH  14  13
ENDBRANCH   7   5
BRANCH   9   1
ATOM      1  O   UNL     1      -1.494  -2.507  23.409  0.00  0.00    -0.387 OA
ATOM     24  H   UNL     1      -0.837  -1.907  23.017  0.00  0.00    +0.210 HD
ENDBRANCH   9   1
BRANCH  11   2
ATOM      2  O   UNL     1      -4.145  -2.793  24.067  0.00  0.00    -0.389 OA
ATOM     25  H   UNL     1      -3.640  -2.891  23.243  0.00  0.00    +0.210 HD
ENDBRANCH  11   2
TORSDOF 5
ENDMDL
MODEL 8
REMARK VINA RESULT:      -1.7      2.612      5.563
REMARK  Name = 71693772
REMARK  5 active torsions:
REMARK  status: ('A' for Active; 'I' for Inactive)
REMARK    1  A    between atoms: O_1  and  C_9
REMARK    2  A    between atoms: O_2  and  C_11
REMARK    3  A    between atoms: N_5  and  C_7
REMARK    4  A    between atoms: C_8  and  C_12
REMARK    5  A    between atoms: C_13  and  C_14
REMARK                            x       y       z     vdW  Elec       q    Type
REMARK                         _______ _______ _______ _____ _____    ______ ____
ROOT
ATOM      7  C   UNL     1      -0.886   1.351  23.967  0.00  0.00    +0.111 C 
ATOM      8  C   UNL     1      -2.271   0.935  23.421  0.00  0.00    +0.046 C 
ATOM      9  C   UNL     1      -0.964   2.876  24.009  0.00  0.00    +0.164 C 
ATOM     10  C   UNL     1      -3.224   2.116  23.742  0.00  0.00    +0.044 C 
ATOM     11  C   UNL     1      -2.381   3.137  24.505  0.00  0.00    +0.145 C 
ENDROOT
BRANCH   8  12
ATOM      6  N   UNL     1      -2.304  -2.349  25.319  0.00  0.00    -0.263 NA
ATOM     12  C   UNL     1      -2.739  -0.404  23.952  0.00  0.00    -0.024 A 
ATOM     17  C   UNL     1      -3.975  -0.927  23.589  0.00  0.00    +0.007 A 
ATOM     18  C   UNL     1      -1.947  -1.148  24.812  0.00  0.00    +0.114 A 
ATOM     21  C   UNL     1      -4.377  -2.159  24.091  0.00  0.00    +0.020 A 
ATOM     22  C   UNL     1      -3.513  -2.825  24.945  0.00  0.00    +0.111 A 
ENDBRANCH   8  12
BRANCH   7   5
ATOM      4  O   UNL     1       1.962   1.448  24.523  0.00  0.00    -0.276 OA
ATOM      5  N   UNL     1       0.188   0.891  23.122  0.00  0.00    -0.309 N 
ATOM     14  C   UNL     1       1.526   0.979  23.475  0.00  0.00    +0.217 C 
ATOM     23  H   UNL     1      -0.062   0.421  22.257  0.00  0.00    +0.149 HD
BRANCH  14  13
ATOM      3  O   UNL     1       4.900  -0.623  23.522  0.00  0.00    -0.380 OA
ATOM     13  C   UNL     1       2.433   0.404  22.426  0.00  0.00    +0.079 C 
ATOM     15  C   UNL     1       2.664  -1.084  22.691  0.00  0.00    +0.041 C 
ATOM     16  C   UNL     1       3.750   1.177  22.358  0.00  0.00    +0.041 C 
ATOM     19  C   UNL     1       3.684  -1.317  23.799  0.00  0.00    +0.160 C 
ATOM     20  C   UNL     1       4.710   0.789  23.478  0.00  0.00    +0.160 C 
ENDBRANCH  14  13
ENDBRANCH   7   5
BRANCH   9   1
ATOM      1  O   UNL     1      -0.006   3.439  24.884  0.00  0.00    -0.387 OA
ATOM     24  H   UNL     1      -0.117   3.015  25.752  0.00  0.00    +0.210 HD
ENDBRANCH   9   1
BRANCH  11   2
ATOM      2  O   UNL     1      -2.492   2.867  25.899  0.00  0.00    -0.389 OA
ATOM     25  H   UNL     1      -2.762   3.692  26.336  0.00  0.00    +0.210 HD
ENDBRANCH  11   2
TORSDOF 5
ENDMDL
MODEL 9
REMARK VINA RESULT:      -1.5     14.630     17.613
REMARK  Name = 71693772
REMARK  5 active torsions:
REMARK  status: ('A' for Active; 'I' for Inactive)
REMARK    1  A    between atoms: O_1  and  C_9
REMARK    2  A    between atoms: O_2  and  C_11
REMARK    3  A    between atoms: N_5  and  C_7
REMARK    4  A    between atoms: C_8  and  C_12
REMARK    5  A    between atoms: C_13  and  C_14
REMARK                            x       y       z     vdW  Elec       q    Type
REMARK                         _______ _______ _______ _____ _____    ______ ____
ROOT
ATOM      7  C   UNL     1      13.025   7.819  18.085  0.00  0.00    +0.111 C 
ATOM      8  C   UNL     1      14.456   8.402  18.146  0.00  0.00    +0.046 C 
ATOM      9  C   UNL     1      12.340   8.670  17.018  0.00  0.00    +0.164 C 
ATOM     10  C   UNL     1      14.689   9.094  16.778  0.00  0.00    +0.044 C 
ATOM     11  C   UNL     1      13.424   8.839  15.960  0.00  0.00    +0.145 C 
ENDROOT
BRANCH   8  12
ATOM      6  N   UNL     1      16.778   5.415  17.880  0.00  0.00    -0.263 NA
ATOM     12  C   UNL     1      15.502   7.369  18.508  0.00  0.00    -0.024 A 
ATOM     17  C   UNL     1      16.137   7.395  19.745  0.00  0.00    +0.007 A 
ATOM     18  C   UNL     1      15.855   6.367  17.619  0.00  0.00    +0.114 A 
ATOM     21  C   UNL     1      17.093   6.433  20.050  0.00  0.00    +0.020 A 
ATOM     22  C   UNL     1      17.375   5.472  19.091  0.00  0.00    +0.111 A 
ENDBRANCH   8  12
BRANCH   7   5
ATOM      4  O   UNL     1      10.308   8.710  18.587  0.00  0.00    -0.276 OA
ATOM      5  N   UNL     1      12.353   7.905  19.357  0.00  0.00    -0.309 N 
ATOM     14  C   UNL     1      11.045   8.346  19.499  0.00  0.00    +0.217 C 
ATOM     23  H   UNL     1      12.846   7.563  20.176  0.00  0.00    +0.149 HD
BRANCH  14  13
ATOM      3  O   UNL     1      12.472   7.023  22.687  0.00  0.00    -0.380 OA
ATOM     13  C   UNL     1      10.582   8.313  20.927  0.00  0.00    +0.079 C 
ATOM     15  C   UNL     1      11.553   9.094  21.812  0.00  0.00    +0.041 C 
ATOM     16  C   UNL     1      10.406   6.875  21.412  0.00  0.00    +0.041 C 
ATOM     19  C   UNL     1      12.810   8.292  22.129  0.00  0.00    +0.160 C 
ATOM     20  C   UNL     1      11.735   6.217  21.771  0.00  0.00    +0.160 C 
ENDBRANCH  14  13
ENDBRANCH   7   5
BRANCH   9   1
ATOM      1  O   UNL     1      11.195   8.037  16.480  0.00  0.00    -0.387 OA
ATOM     24  H   UNL     1      10.941   8.524  15.678  0.00  0.00    +0.210 HD
ENDBRANCH   9   1
BRANCH  11   2
ATOM      2  O   UNL     1      13.599   7.639  15.213  0.00  0.00    -0.389 OA
ATOM     25  H   UNL     1      13.397   6.895  15.804  0.00  0.00    +0.210 HD
ENDBRANCH  11   2
TORSDOF 5
ENDMDL
MODEL 10
REMARK VINA RESULT:      -1.2      1.575      4.513
REMARK  Name = 71693772
REMARK  5 active torsions:
REMARK  status: ('A' for Active; 'I' for Inactive)
REMARK    1  A    between atoms: O_1  and  C_9
REMARK    2  A    between atoms: O_2  and  C_11
REMARK    3  A    between atoms: N_5  and  C_7
REMARK    4  A    between atoms: C_8  and  C_12
REMARK    5  A    between atoms: C_13  and  C_14
REMARK                            x       y       z     vdW  Elec       q    Type
REMARK                         _______ _______ _______ _____ _____    ______ ____
ROOT
ATOM      7  C   UNL     1      -2.091  -0.054  24.983  0.00  0.00    +0.111 C 
ATOM      8  C   UNL     1      -1.428  -0.424  23.636  0.00  0.00    +0.046 C 
ATOM      9  C   UNL     1      -2.963  -1.269  25.296  0.00  0.00    +0.164 C 
ATOM     10  C   UNL     1      -1.465  -1.972  23.559  0.00  0.00    +0.044 C 
ATOM     11  C   UNL     1      -2.086  -2.442  24.873  0.00  0.00    +0.145 C 
ENDROOT
BRANCH   8  12
ATOM      6  N   UNL     1       2.190  -0.007  22.576  0.00  0.00    -0.263 NA
ATOM     12  C   UNL     1      -0.048   0.176  23.472  0.00  0.00    -0.024 A 
ATOM     17  C   UNL     1       0.270   1.409  24.033  0.00  0.00    +0.007 A 
ATOM     18  C   UNL     1       0.939  -0.485  22.759  0.00  0.00    +0.114 A 
ATOM     21  C   UNL     1       1.546   1.933  23.865  0.00  0.00    +0.020 A 
ATOM     22  C   UNL     1       2.462   1.193  23.135  0.00  0.00    +0.111 A 
ENDBRANCH   8  12
BRANCH   7   5
ATOM      4  O   UNL     1      -4.919   0.182  24.369  0.00  0.00    -0.276 OA
ATOM      5  N   UNL     1      -2.869   1.156  24.888  0.00  0.00    -0.309 N 
ATOM     14  C   UNL     1      -4.223   1.169  24.587  0.00  0.00    +0.217 C 
ATOM     23  H   UNL     1      -2.409   2.031  25.118  0.00  0.00    +0.149 HD
BRANCH  14  13
ATOM      3  O   UNL     1      -2.904   4.550  25.472  0.00  0.00    -0.380 OA
ATOM     13  C   UNL     1      -4.793   2.559  24.576  0.00  0.00    +0.079 C 
ATOM     15  C   UNL     1      -4.004   3.442  23.611  0.00  0.00    +0.041 C 
ATOM     16  C   UNL     1      -4.824   3.148  25.986  0.00  0.00    +0.041 C 
ATOM     19  C   UNL     1      -2.685   3.914  24.214  0.00  0.00    +0.160 C 
ATOM     20  C   UNL     1      -3.457   3.655  26.434  0.00  0.00    +0.160 C 
ENDBRANCH  14  13
ENDBRANCH   7   5
BRANCH   9   1
ATOM      1  O   UNL     1      -3.297  -1.351  26.668  0.00  0.00    -0.387 OA
ATOM     24  H   UNL     1      -3.222  -2.283  26.932  0.00  0.00    +0.210 HD
ENDBRANCH   9   1
BRANCH  11   2
ATOM      2  O   UNL     1      -1.042  -2.665  25.816  0.00  0.00    -0.389 OA
ATOM     25  H   UNL     1      -1.110  -1.974  26.495  0.00  0.00    +0.210 HD
ENDBRANCH  11   2
TORSDOF 5
ENDMDL
