MODEL 1
REMARK VINA RESULT:       5.2      0.000      0.000
REMARK  Name = 7144178
REMARK  4 active torsions:
REMARK  status: ('A' for Active; 'I' for Inactive)
REMARK    1  A    between atoms: O_7  and  C_29
REMARK    2  A    between atoms: O_7  and  C_32
REMARK    3  A    between atoms: C_17  and  C_22
REMARK    4  A    between atoms: C_19  and  C_23
REMARK                            x       y       z     vdW  Elec       q    Type
REMARK                         _______ _______ _______ _____ _____    ______ ____
ROOT
ATOM      5  O   UNL     1      -3.457   4.306  27.106  0.00  0.00    -0.268 OA
ATOM      6  O   UNL     1      -5.622   0.266  24.928  0.00  0.00    -0.269 OA
ATOM      8  N   UNL     1      -2.716   3.393  25.082  0.00  0.00    -0.311 N 
ATOM      9  N   UNL     1      -4.017   1.047  23.417  0.00  0.00    -0.296 N 
ATOM     10  C   UNL     1      -4.158   3.483  22.961  0.00  0.00    +0.027 C 
ATOM     11  C   UNL     1      -1.968   2.362  22.914  0.00  0.00    +0.054 C 
ATOM     12  C   UNL     1      -2.825   3.424  22.229  0.00  0.00    +0.018 C 
ATOM     13  C   UNL     1      -3.901   3.935  24.400  0.00  0.00    +0.130 C 
ATOM     14  C   UNL     1      -4.868   2.119  22.903  0.00  0.00    +0.113 C 
ATOM     15  C   UNL     1      -2.675   0.992  22.822  0.00  0.00    +0.117 C 
ATOM     16  C   UNL     1      -1.699   2.714  24.379  0.00  0.00    +0.034 A 
ATOM     17  C   UNL     1      -0.550   2.368  25.017  0.00  0.00    +0.002 A 
ATOM     18  C   UNL     1      -2.608   3.704  26.448  0.00  0.00    +0.252 A 
ATOM     19  C   UNL     1      -4.497   0.216  24.433  0.00  0.00    +0.253 C 
ATOM     20  C   UNL     1      -0.406   2.669  26.429  0.00  0.00    +0.015 A 
ATOM     21  C   UNL     1      -1.363   3.281  27.127  0.00  0.00    +0.071 A 
ENDROOT
BRANCH  17  22
ATOM     22  C   UNL     1       0.553   1.677  24.314  0.00  0.00    -0.016 A 
ATOM     24  C   UNL     1       0.520   0.293  24.171  0.00  0.00    +0.012 A 
ATOM     25  C   UNL     1       1.615   2.415  23.802  0.00  0.00    +0.012 A 
ATOM     27  C   UNL     1       1.560  -0.358  23.508  0.00  0.00    +0.046 A 
ATOM     28  C   UNL     1       2.655   1.764  23.140  0.00  0.00    +0.046 A 
ATOM     29  C   UNL     1       2.629   0.377  22.993  0.00  0.00    +0.130 A 
BRANCH  29   7
ATOM      7  O   UNL     1       3.643  -0.260  22.347  0.00  0.00    -0.406 OA
BRANCH   7  32
ATOM      2  F   UNL     1       4.958  -1.504  23.744  0.00  0.00    -0.133 F 
ATOM      3  F   UNL     1       5.045   0.677  23.847  0.00  0.00    -0.133 F 
ATOM      4  F   UNL     1       5.918  -0.346  22.125  0.00  0.00    -0.133 F 
ATOM     32  C   UNL     1       4.898  -0.374  23.009  0.00  0.00    +0.575 C 
ENDBRANCH   7  32
ENDBRANCH  29   7
ENDBRANCH  17  22
BRANCH  19  23
ATOM      1  S   UNL     1      -3.694  -2.401  24.403  0.00  0.00    -0.092 S 
ATOM     23  C   UNL     1      -3.591  -0.797  24.986  0.00  0.00    +0.074 A 
ATOM     26  C   UNL     1      -2.623  -0.650  25.948  0.00  0.00    +0.021 A 
ATOM     30  C   UNL     1      -1.950  -1.877  26.216  0.00  0.00    +0.008 A 
ATOM     31  C   UNL     1      -2.434  -2.911  25.445  0.00  0.00    +0.046 A 
ENDBRANCH  19  23
TORSDOF 4
ENDMDL
