MODEL 1
REMARK VINA RESULT:      -1.5      0.000      0.000
REMARK  Name = 7674043
REMARK  7 active torsions:
REMARK  status: ('A' for Active; 'I' for Inactive)
REMARK    1  A    between atoms: S_1  and  N_9
REMARK    2  A    between atoms: S_1  and  C_22
REMARK    3  A    between atoms: O_8  and  C_25
REMARK    4  A    between atoms: O_8  and  C_31
REMARK    5  A    between atoms: N_11  and  C_18
REMARK    6  A    between atoms: C_13  and  C_17
REMARK    7  A    between atoms: C_21  and  C_25
REMARK                            x       y       z     vdW  Elec       q    Type
REMARK                         _______ _______ _______ _____ _____    ______ ____
ROOT
ATOM      6  O   UNL     1      10.304  -7.542  30.277  0.00  0.00    -0.273 OA
ATOM      9  N   UNL     1      15.137  -7.259  31.588  0.00  0.00    -0.162 NA
ATOM     10  N   UNL     1      12.266  -7.344  31.512  0.00  0.00    -0.296 N 
ATOM     13  C   UNL     1      14.425  -7.087  30.290  0.00  0.00    +0.183 C 
ATOM     14  C   UNL     1      12.979  -6.627  30.453  0.00  0.00    +0.138 C 
ATOM     15  C   UNL     1      14.349  -6.868  32.785  0.00  0.00    +0.129 C 
ATOM     16  C   UNL     1      13.005  -7.583  32.754  0.00  0.00    +0.125 C 
ATOM     21  C   UNL     1      10.941  -7.736  31.315  0.00  0.00    +0.241 C 
ENDROOT
BRANCH  13  17
ATOM      3  O   UNL     1      14.046  -9.440  30.199  0.00  0.00    -0.274 OA
ATOM     11  N   UNL     1      15.125  -8.400  28.417  0.00  0.00    -0.303 N 
ATOM     17  C   UNL     1      14.494  -8.436  29.649  0.00  0.00    +0.234 C 
ATOM     32  H   UNL     1      15.428  -7.505  28.044  0.00  0.00    +0.149 HD
BRANCH  11  18
ATOM      7  O   UNL     1      17.212 -10.046  29.053  0.00  0.00    -0.274 OA
ATOM     12  N   UNL     1      17.368 -10.781  26.896  0.00  0.00    -0.314 N 
ATOM     18  C   UNL     1      15.340  -9.571  27.607  0.00  0.00    +0.159 C 
ATOM     19  C   UNL     1      15.104  -9.261  26.134  0.00  0.00    +0.033 C 
ATOM     20  C   UNL     1      15.507 -10.460  25.291  0.00  0.00    +0.021 C 
ATOM     23  C   UNL     1      16.730 -10.111  27.921  0.00  0.00    +0.233 C 
ATOM     24  C   UNL     1      16.984 -10.738  25.498  0.00  0.00    +0.104 C 
ATOM     33  H   UNL     1      18.269 -11.196  27.111  0.00  0.00    +0.149 HD
ENDBRANCH  11  18
ENDBRANCH  13  17
BRANCH   9   1
ATOM      1  S   UNL     1      16.797  -6.850  31.614  0.00  0.00    +0.062 S 
ATOM      4  O   UNL     1      17.400  -7.236  30.355  0.00  0.00    -0.153 OA
ATOM      5  O   UNL     1      17.368  -7.276  32.873  0.00  0.00    -0.153 OA
BRANCH   1  22
ATOM      2  F   UNL     1      16.413  -0.968  31.691  0.00  0.00    -0.205 F 
ATOM     22  C   UNL     1      16.682  -5.088  31.638  0.00  0.00    +0.106 A 
ATOM     26  C   UNL     1      16.415  -4.391  30.458  0.00  0.00    +0.031 A 
ATOM     27  C   UNL     1      16.858  -4.393  32.834  0.00  0.00    +0.031 A 
ATOM     28  C   UNL     1      16.324  -2.999  30.477  0.00  0.00    +0.040 A 
ATOM     29  C   UNL     1      16.767  -3.002  32.852  0.00  0.00    +0.040 A 
ATOM     30  C   UNL     1      16.500  -2.304  31.673  0.00  0.00    +0.124 A 
ENDBRANCH   1  22
ENDBRANCH   9   1
BRANCH  21  25
ATOM     25  C   UNL     1      10.279  -8.437  32.477  0.00  0.00    +0.255 C 
BRANCH  25   8
ATOM      8  O   UNL     1       9.091  -9.005  31.980  0.00  0.00    -0.374 OA
ATOM     31  C   UNL     1       7.947  -8.592  32.726  0.00  0.00    +0.194 C 
ENDBRANCH  25   8
ENDBRANCH  21  25
TORSDOF 6
ENDMDL
