MODEL 1
REMARK VINA RESULT:       2.7      0.000      0.000
REMARK  Name = 7687036
REMARK  4 active torsions:
REMARK  status: ('A' for Active; 'I' for Inactive)
REMARK    1  A    between atoms: O_3  and  C_24
REMARK    2  A    between atoms: O_3  and  C_30
REMARK    3  A    between atoms: C_15  and  C_20
REMARK    4  A    between atoms: C_17  and  C_21
REMARK                            x       y       z     vdW  Elec       q    Type
REMARK                         _______ _______ _______ _____ _____    ______ ____
ROOT
ATOM      1  O   UNL     1      -2.445   4.127  27.294  0.00  0.00    -0.268 OA
ATOM      2  O   UNL     1      -5.320   0.432  25.339  0.00  0.00    -0.270 OA
ATOM      4  N   UNL     1      -3.914   1.152  23.616  0.00  0.00    -0.296 N 
ATOM      5  N   UNL     1      -2.134   3.270  25.137  0.00  0.00    -0.311 N 
ATOM      8  C   UNL     1      -3.886   3.612  23.294  0.00  0.00    +0.027 C 
ATOM      9  C   UNL     1      -1.854   2.303  22.834  0.00  0.00    +0.054 C 
ATOM     10  C   UNL     1      -2.703   3.477  22.347  0.00  0.00    +0.018 C 
ATOM     11  C   UNL     1      -4.726   2.324  23.297  0.00  0.00    +0.113 C 
ATOM     12  C   UNL     1      -3.355   3.955  24.687  0.00  0.00    +0.130 C 
ATOM     13  C   UNL     1      -2.697   1.010  22.803  0.00  0.00    +0.117 C 
ATOM     14  C   UNL     1      -1.317   2.545  24.247  0.00  0.00    +0.034 A 
ATOM     15  C   UNL     1      -0.120   2.060  24.669  0.00  0.00    +0.005 A 
ATOM     16  C   UNL     1      -1.777   3.490  26.479  0.00  0.00    +0.252 A 
ATOM     17  C   UNL     1      -4.301   0.310  24.661  0.00  0.00    +0.250 C 
ATOM     18  C   UNL     1       0.280   2.264  26.048  0.00  0.00    +0.015 A 
ATOM     19  C   UNL     1      -0.486   2.917  26.922  0.00  0.00    +0.071 A 
ENDROOT
BRANCH  15  20
ATOM      6  N   UNL     1       1.177  -0.547  22.307  0.00  0.00    -0.243 NA
ATOM      7  N   UNL     1       2.908   1.088  22.682  0.00  0.00    -0.243 NA
ATOM     20  C   UNL     1       0.781   1.315  23.762  0.00  0.00    +0.020 A 
ATOM     22  C   UNL     1       0.382   0.158  23.139  0.00  0.00    +0.122 A 
ATOM     23  C   UNL     1       2.060   1.743  23.502  0.00  0.00    +0.122 A 
ATOM     29  C   UNL     1       2.408  -0.033  22.126  0.00  0.00    +0.221 A 
ENDBRANCH  15  20
BRANCH  17  21
ATOM     21  C   UNL     1      -3.421  -0.812  25.011  0.00  0.00    +0.078 A 
ATOM     24  C   UNL     1      -3.681  -2.097  24.536  0.00  0.00    +0.132 A 
ATOM     25  C   UNL     1      -2.318  -0.577  25.829  0.00  0.00    +0.017 A 
ATOM     26  C   UNL     1      -2.834  -3.149  24.881  0.00  0.00    +0.046 A 
ATOM     27  C   UNL     1      -1.470  -1.629  26.173  0.00  0.00    +0.001 A 
ATOM     28  C   UNL     1      -1.728  -2.916  25.699  0.00  0.00    +0.004 A 
BRANCH  24   3
ATOM      3  O   UNL     1      -4.756  -2.346  23.736  0.00  0.00    -0.494 OA
ATOM     30  C   UNL     1      -4.708  -3.525  22.936  0.00  0.00    +0.277 C 
ENDBRANCH  24   3
ENDBRANCH  17  21
TORSDOF 3
ENDMDL
