MODEL 1
REMARK VINA RESULT:       3.4      0.000      0.000
REMARK  Name = 45360891
REMARK  6 active torsions:
REMARK  status: ('A' for Active; 'I' for Inactive)
REMARK    1  A    between atoms: N_4  and  C_17
REMARK    2  A    between atoms: N_5  and  C_16
REMARK    3  A    between atoms: C_12  and  C_15
REMARK    4  A    between atoms: C_15  and  C_18
REMARK    5  A    between atoms: C_16  and  C_19
REMARK    6  A    between atoms: C_18  and  C_20
REMARK                            x       y       z     vdW  Elec       q    Type
REMARK                         _______ _______ _______ _____ _____    ______ ____
ROOT
ATOM      2  O   UNL     1      -0.960   1.737  23.165  0.00  0.00    -0.274 OA
ATOM      4  N   UNL     1      -2.985  -0.912  25.133  0.00  0.00    -0.296 NA
ATOM      5  N   UNL     1       0.367  -0.550  23.712  0.00  0.00    -0.286 NA
ATOM      6  N   UNL     1      -2.964   0.714  22.750  0.00  0.00    -0.312 N 
ATOM      8  C   UNL     1      -1.719  -1.439  24.576  0.00  0.00    +0.084 C 
ATOM      9  C   UNL     1      -1.063  -0.685  23.382  0.00  0.00    +0.161 C 
ATOM     10  C   UNL     1      -0.564  -1.492  25.593  0.00  0.00    +0.036 C 
ATOM     11  C   UNL     1       0.671  -1.557  24.720  0.00  0.00    +0.087 C 
ATOM     12  C   UNL     1      -4.132  -0.934  24.183  0.00  0.00    +0.074 C 
ATOM     13  C   UNL     1      -1.629   0.707  23.108  0.00  0.00    +0.232 C 
ATOM     14  C   UNL     1      -3.798  -0.472  22.751  0.00  0.00    +0.123 C 
ATOM     17  C   UNL     1      -3.340  -1.612  26.379  0.00  0.00    +0.105 C 
ATOM     34  H   UNL     1      -3.380   1.599  22.478  0.00  0.00    +0.149 HD
ENDROOT
BRANCH  12  15
ATOM     15  C   UNL     1      -5.281  -0.043  24.703  0.00  0.00    +0.029 C 
BRANCH  15  18
ATOM     18  C   UNL     1      -4.829   0.862  25.833  0.00  0.00    +0.098 C 
BRANCH  18  20
ATOM      3  O   UNL     1      -5.389   2.924  24.807  0.00  0.00    -0.275 OA
ATOM      7  N   UNL     1      -3.179   2.632  25.500  0.00  0.00    -0.271 N 
ATOM     20  C   UNL     1      -4.501   2.246  25.325  0.00  0.00    +0.220 C 
ATOM     23  C   UNL     1      -2.115   1.816  26.122  0.00  0.00    +0.118 C 
ATOM     24  C   UNL     1      -2.621   3.869  25.113  0.00  0.00    +0.039 A 
ATOM     25  C   UNL     1      -0.824   2.643  26.109  0.00  0.00    +0.056 C 
ATOM     26  C   UNL     1      -1.266   3.908  25.449  0.00  0.00    -0.024 A 
ATOM     29  C   UNL     1      -3.225   4.953  24.492  0.00  0.00    +0.024 A 
ATOM     31  C   UNL     1      -0.486   5.021  25.174  0.00  0.00    +0.005 A 
ATOM     32  C   UNL     1      -2.446   6.079  24.211  0.00  0.00    +0.002 A 
ATOM     33  C   UNL     1      -1.087   6.114  24.549  0.00  0.00    +0.000 A 
ENDBRANCH  18  20
ENDBRANCH  15  18
ENDBRANCH  12  15
BRANCH   5  16
ATOM     16  C   UNL     1       1.239  -0.658  22.549  0.00  0.00    +0.120 C 
BRANCH  16  19
ATOM      1 CL   UNL     1       5.972  -1.749  24.441  0.00  0.00    -0.084 Cl
ATOM     19  C   UNL     1       2.641  -0.201  22.855  0.00  0.00    -0.032 A 
ATOM     21  C   UNL     1       3.551  -1.083  23.437  0.00  0.00    +0.025 A 
ATOM     22  C   UNL     1       3.030   1.105  22.556  0.00  0.00    +0.005 A 
ATOM     27  C   UNL     1       4.850  -0.660  23.720  0.00  0.00    +0.041 A 
ATOM     28  C   UNL     1       4.328   1.528  22.839  0.00  0.00    +0.002 A 
ATOM     30  C   UNL     1       5.239   0.646  23.420  0.00  0.00    +0.020 A 
ENDBRANCH  16  19
ENDBRANCH   5  16
TORSDOF 5
ENDMDL
MODEL 2
REMARK VINA RESULT:       5.2      1.610      4.360
REMARK  Name = 45360891
REMARK  6 active torsions:
REMARK  status: ('A' for Active; 'I' for Inactive)
REMARK    1  A    between atoms: N_4  and  C_17
REMARK    2  A    between atoms: N_5  and  C_16
REMARK    3  A    between atoms: C_12  and  C_15
REMARK    4  A    between atoms: C_15  and  C_18
REMARK    5  A    between atoms: C_16  and  C_19
REMARK    6  A    between atoms: C_18  and  C_20
REMARK                            x       y       z     vdW  Elec       q    Type
REMARK                         _______ _______ _______ _____ _____    ______ ____
ROOT
ATOM      2  O   UNL     1       0.578   2.147  26.099  0.00  0.00    -0.274 OA
ATOM      4  N   UNL     1      -2.403   2.415  23.642  0.00  0.00    -0.296 NA
ATOM      5  N   UNL     1       1.112   1.400  23.560  0.00  0.00    -0.286 NA
ATOM      6  N   UNL     1      -0.780   3.894  25.514  0.00  0.00    -0.312 N 
ATOM      8  C   UNL     1      -1.107   2.185  22.966  0.00  0.00    +0.084 C 
ATOM      9  C   UNL     1       0.202   2.547  23.728  0.00  0.00    +0.161 C 
ATOM     10  C   UNL     1      -0.854   0.715  22.581  0.00  0.00    +0.036 C 
ATOM     11  C   UNL     1       0.647   0.650  22.400  0.00  0.00    +0.087 C 
ATOM     12  C   UNL     1      -2.695   3.844  23.944  0.00  0.00    +0.074 C 
ATOM     13  C   UNL     1       0.028   2.811  25.222  0.00  0.00    +0.232 C 
ATOM     14  C   UNL     1      -1.505   4.644  24.508  0.00  0.00    +0.123 C 
ATOM     17  C   UNL     1      -3.507   1.819  22.873  0.00  0.00    +0.105 C 
ATOM     34  H   UNL     1      -0.874   4.170  26.486  0.00  0.00    +0.149 HD
ENDROOT
BRANCH  12  15
ATOM     15  C   UNL     1      -3.853   3.955  24.958  0.00  0.00    +0.029 C 
BRANCH  15  18
ATOM     18  C   UNL     1      -3.831   2.825  25.969  0.00  0.00    +0.098 C 
BRANCH  18  20
ATOM      3  O   UNL     1      -5.403   1.453  24.845  0.00  0.00    -0.275 OA
ATOM      7  N   UNL     1      -3.346   0.500  25.400  0.00  0.00    -0.271 N 
ATOM     20  C   UNL     1      -4.281   1.526  25.346  0.00  0.00    +0.220 C 
ATOM     23  C   UNL     1      -2.000   0.589  26.002  0.00  0.00    +0.118 C 
ATOM     24  C   UNL     1      -3.521  -0.805  24.894  0.00  0.00    +0.039 A 
ATOM     25  C   UNL     1      -1.319  -0.774  25.829  0.00  0.00    +0.056 C 
ATOM     26  C   UNL     1      -2.372  -1.565  25.124  0.00  0.00    -0.024 A 
ATOM     29  C   UNL     1      -4.615  -1.360  24.246  0.00  0.00    +0.024 A 
ATOM     31  C   UNL     1      -2.289  -2.888  24.719  0.00  0.00    +0.005 A 
ATOM     32  C   UNL     1      -4.540  -2.694  23.835  0.00  0.00    +0.002 A 
ATOM     33  C   UNL     1      -3.385  -3.454  24.068  0.00  0.00    +0.000 A 
ENDBRANCH  18  20
ENDBRANCH  15  18
ENDBRANCH  12  15
BRANCH   5  16
ATOM     16  C   UNL     1       2.512   1.786  23.438  0.00  0.00    +0.120 C 
BRANCH  16  19
ATOM      1 CL   UNL     1       7.358  -0.124  23.258  0.00  0.00    -0.084 Cl
ATOM     19  C   UNL     1       3.431   0.596  23.508  0.00  0.00    -0.032 A 
ATOM     21  C   UNL     1       4.808   0.767  23.368  0.00  0.00    +0.025 A 
ATOM     22  C   UNL     1       2.905  -0.680  23.714  0.00  0.00    +0.005 A 
ATOM     27  C   UNL     1       5.659  -0.336  23.433  0.00  0.00    +0.041 A 
ATOM     28  C   UNL     1       3.755  -1.783  23.780  0.00  0.00    +0.002 A 
ATOM     30  C   UNL     1       5.132  -1.612  23.640  0.00  0.00    +0.020 A 
ENDBRANCH  16  19
ENDBRANCH   5  16
TORSDOF 5
ENDMDL
MODEL 3
REMARK VINA RESULT:       6.1      1.987      6.524
REMARK  Name = 45360891
REMARK  6 active torsions:
REMARK  status: ('A' for Active; 'I' for Inactive)
REMARK    1  A    between atoms: N_4  and  C_17
REMARK    2  A    between atoms: N_5  and  C_16
REMARK    3  A    between atoms: C_12  and  C_15
REMARK    4  A    between atoms: C_15  and  C_18
REMARK    5  A    between atoms: C_16  and  C_19
REMARK    6  A    between atoms: C_18  and  C_20
REMARK                            x       y       z     vdW  Elec       q    Type
REMARK                         _______ _______ _______ _____ _____    ______ ____
ROOT
ATOM      2  O   UNL     1      -2.817   2.192  22.586  0.00  0.00    -0.274 OA
ATOM      4  N   UNL     1      -3.318  -0.992  24.731  0.00  0.00    -0.296 NA
ATOM      5  N   UNL     1      -4.674   2.401  24.535  0.00  0.00    -0.286 NA
ATOM      6  N   UNL     1      -1.366   0.929  23.824  0.00  0.00    -0.312 N 
ATOM      8  C   UNL     1      -3.977   0.205  25.299  0.00  0.00    +0.084 C 
ATOM      9  C   UNL     1      -3.472   1.610  24.856  0.00  0.00    +0.161 C 
ATOM     10  C   UNL     1      -5.483   0.295  24.989  0.00  0.00    +0.036 C 
ATOM     11  C   UNL     1      -5.800   1.760  25.202  0.00  0.00    +0.087 C 
ATOM     12  C   UNL     1      -1.880  -1.134  25.095  0.00  0.00    +0.074 C 
ATOM     13  C   UNL     1      -2.553   1.612  23.637  0.00  0.00    +0.232 C 
ATOM     14  C   UNL     1      -1.060   0.169  25.020  0.00  0.00    +0.123 C 
ATOM     17  C   UNL     1      -4.057  -2.215  25.086  0.00  0.00    +0.105 C 
ATOM     34  H   UNL     1      -0.676   0.958  23.079  0.00  0.00    +0.149 HD
ENDROOT
BRANCH  12  15
ATOM     15  C   UNL     1      -1.192  -2.169  24.180  0.00  0.00    +0.029 C 
BRANCH  15  18
ATOM     18  C   UNL     1      -0.204  -1.519  23.231  0.00  0.00    +0.098 C 
BRANCH  18  20
ATOM      3  O   UNL     1       1.442  -2.328  24.732  0.00  0.00    -0.275 OA
ATOM      7  N   UNL     1       2.128  -0.801  23.105  0.00  0.00    -0.271 N 
ATOM     20  C   UNL     1       1.204  -1.596  23.771  0.00  0.00    +0.220 C 
ATOM     23  C   UNL     1       1.839   0.077  21.952  0.00  0.00    +0.118 C 
ATOM     24  C   UNL     1       3.500  -0.693  23.413  0.00  0.00    +0.039 A 
ATOM     25  C   UNL     1       3.152   0.754  21.541  0.00  0.00    +0.056 C 
ATOM     26  C   UNL     1       4.119   0.194  22.531  0.00  0.00    -0.024 A 
ATOM     29  C   UNL     1       4.231  -1.323  24.410  0.00  0.00    +0.024 A 
ATOM     31  C   UNL     1       5.474   0.475  22.623  0.00  0.00    +0.005 A 
ATOM     32  C   UNL     1       5.598  -1.046  24.510  0.00  0.00    +0.002 A 
ATOM     33  C   UNL     1       6.216  -0.154  23.623  0.00  0.00    +0.000 A 
ENDBRANCH  18  20
ENDBRANCH  15  18
ENDBRANCH  12  15
BRANCH   5  16
ATOM     16  C   UNL     1      -4.552   3.808  24.895  0.00  0.00    +0.120 C 
BRANCH  16  19
ATOM      1 CL   UNL     1       0.239   2.894  26.731  0.00  0.00    -0.084 Cl
ATOM     19  C   UNL     1      -3.113   4.235  25.008  0.00  0.00    -0.032 A 
ATOM     21  C   UNL     1      -2.208   3.458  25.731  0.00  0.00    +0.025 A 
ATOM     22  C   UNL     1      -2.682   5.407  24.387  0.00  0.00    +0.005 A 
ATOM     27  C   UNL     1      -0.875   3.852  25.836  0.00  0.00    +0.041 A 
ATOM     28  C   UNL     1      -1.349   5.802  24.491  0.00  0.00    +0.002 A 
ATOM     30  C   UNL     1      -0.445   5.025  25.214  0.00  0.00    +0.020 A 
ENDBRANCH  16  19
ENDBRANCH   5  16
TORSDOF 5
ENDMDL
