MODEL 1
REMARK VINA RESULT:      -2.9      0.000      0.000
REMARK  Name = 75536636
REMARK  7 active torsions:
REMARK  status: ('A' for Active; 'I' for Inactive)
REMARK    1  A    between atoms: O_3  and  C_11
REMARK    2  A    between atoms: N_6  and  C_9
REMARK    3  A    between atoms: N_6  and  C_10
REMARK    4  A    between atoms: N_8  and  C_18
REMARK    5  A    between atoms: C_12  and  C_18
REMARK    6  A    between atoms: C_19  and  C_20
REMARK    7  A    between atoms: C_21  and  C_22
REMARK                            x       y       z     vdW  Elec       q    Type
REMARK                         _______ _______ _______ _____ _____    ______ ____
ROOT
ATOM      2  O   UNL     1      -4.110   4.011  26.993  0.00  0.00    -0.371 OA
ATOM      9  C   UNL     1      -2.470   4.659  25.401  0.00  0.00    +0.111 C 
ATOM     11  C   UNL     1      -3.654   4.053  24.672  0.00  0.00    +0.164 C 
ATOM     12  C   UNL     1      -4.750   4.199  25.719  0.00  0.00    +0.165 C 
ATOM     15  C   UNL     1      -2.689   4.141  26.813  0.00  0.00    +0.181 C 
ENDROOT
BRANCH  11   3
ATOM      3  O   UNL     1      -3.971   4.741  23.477  0.00  0.00    -0.388 OA
ATOM     29  H   UNL     1      -3.803   4.145  22.727  0.00  0.00    +0.210 HD
ENDBRANCH  11   3
BRANCH   9   6
ATOM      6  N   UNL     1      -1.182   4.271  24.849  0.00  0.00    -0.306 NA
ATOM     28  H   UNL     1      -0.430   4.560  25.474  0.00  0.00    +0.123 HD
BRANCH   6  10
ATOM      4  O   UNL     1       2.197  -0.675  23.461  0.00  0.00    -0.276 OA
ATOM      7  N   UNL     1       0.194   0.501  23.525  0.00  0.00    -0.302 N 
ATOM     10  C   UNL     1      -1.125   2.827  24.634  0.00  0.00    +0.057 C 
ATOM     13  C   UNL     1       0.151   2.251  25.260  0.00  0.00    +0.037 C 
ATOM     14  C   UNL     1      -1.173   2.517  23.132  0.00  0.00    +0.037 C 
ATOM     16  C   UNL     1       0.279   0.758  24.963  0.00  0.00    +0.109 C 
ATOM     17  C   UNL     1      -1.018   1.018  22.877  0.00  0.00    +0.109 C 
ATOM     19  C   UNL     1       1.204  -0.220  22.888  0.00  0.00    +0.212 C 
ATOM     20  C   UNL     1       1.045  -0.439  21.405  0.00  0.00    +0.109 C 
ENDBRANCH   6  10
ENDBRANCH   9   6
BRANCH  12  18
ATOM     18  C   UNL     1      -5.874   3.192  25.556  0.00  0.00    +0.138 C 
BRANCH  18   8
ATOM      5  O   UNL     1      -4.366   1.889  23.489  0.00  0.00    -0.270 OA
ATOM      8  N   UNL     1      -5.378   1.847  25.577  0.00  0.00    -0.309 N 
ATOM     21  C   UNL     1      -4.652   1.295  24.525  0.00  0.00    +0.244 C 
ATOM     30  H   UNL     1      -5.641   1.278  26.374  0.00  0.00    +0.149 HD
BRANCH  21  22
ATOM      1  F   UNL     1      -3.074  -4.057  25.145  0.00  0.00    -0.205 F 
ATOM     22  C   UNL     1      -4.233  -0.121  24.689  0.00  0.00    +0.037 A 
ATOM     23  C   UNL     1      -3.511  -0.509  25.817  0.00  0.00    +0.016 A 
ATOM     24  C   UNL     1      -4.564  -1.064  23.714  0.00  0.00    +0.016 A 
ATOM     25  C   UNL     1      -3.119  -1.839  25.971  0.00  0.00    +0.039 A 
ATOM     26  C   UNL     1      -4.172  -2.393  23.868  0.00  0.00    +0.039 A 
ATOM     27  C   UNL     1      -3.449  -2.780  24.997  0.00  0.00    +0.123 A 
ENDBRANCH  21  22
ENDBRANCH  18   8
ENDBRANCH  12  18
TORSDOF 6
ENDMDL
MODEL 2
REMARK VINA RESULT:      -2.6     14.382     17.728
REMARK  Name = 75536636
REMARK  7 active torsions:
REMARK  status: ('A' for Active; 'I' for Inactive)
REMARK    1  A    between atoms: O_3  and  C_11
REMARK    2  A    between atoms: N_6  and  C_9
REMARK    3  A    between atoms: N_6  and  C_10
REMARK    4  A    between atoms: N_8  and  C_18
REMARK    5  A    between atoms: C_12  and  C_18
REMARK    6  A    between atoms: C_19  and  C_20
REMARK    7  A    between atoms: C_21  and  C_22
REMARK                            x       y       z     vdW  Elec       q    Type
REMARK                         _______ _______ _______ _____ _____    ______ ____
ROOT
ATOM      2  O   UNL     1      -5.548  -8.039   9.919  0.00  0.00    -0.371 OA
ATOM      9  C   UNL     1      -6.953  -9.295  11.366  0.00  0.00    +0.111 C 
ATOM     11  C   UNL     1      -5.694 -10.094  11.081  0.00  0.00    +0.164 C 
ATOM     12  C   UNL     1      -4.743  -8.993  10.631  0.00  0.00    +0.165 C 
ATOM     15  C   UNL     1      -6.931  -8.285  10.230  0.00  0.00    +0.181 C 
ENDROOT
BRANCH  11   3
ATOM      3  O   UNL     1      -5.210 -10.776  12.223  0.00  0.00    -0.388 OA
ATOM     29  H   UNL     1      -4.388 -10.344  12.510  0.00  0.00    +0.210 HD
ENDBRANCH  11   3
BRANCH   9   6
ATOM      6  N   UNL     1      -8.164 -10.100  11.385  0.00  0.00    -0.306 NA
ATOM     28  H   UNL     1      -8.045 -10.928  10.803  0.00  0.00    +0.123 HD
BRANCH   6  10
ATOM      4  O   UNL     1     -10.718  -8.605  16.775  0.00  0.00    -0.276 OA
ATOM      7  N   UNL     1      -9.206  -9.791  15.469  0.00  0.00    -0.302 N 
ATOM     10  C   UNL     1      -8.502 -10.494  12.751  0.00  0.00    +0.057 C 
ATOM     13  C   UNL     1      -9.903  -9.989  13.113  0.00  0.00    +0.037 C 
ATOM     14  C   UNL     1      -7.461  -9.939  13.731  0.00  0.00    +0.037 C 
ATOM     16  C   UNL     1     -10.239 -10.307  14.569  0.00  0.00    +0.109 C 
ATOM     17  C   UNL     1      -7.844 -10.258  15.176  0.00  0.00    +0.109 C 
ATOM     19  C   UNL     1      -9.561  -8.956  16.528  0.00  0.00    +0.212 C 
ATOM     20  C   UNL     1      -8.440  -8.464  17.407  0.00  0.00    +0.109 C 
ENDBRANCH   6  10
ENDBRANCH   9   6
BRANCH  12  18
ATOM     18  C   UNL     1      -3.626  -9.494   9.734  0.00  0.00    +0.138 C 
BRANCH  18   8
ATOM      5  O   UNL     1      -1.948 -10.247  11.939  0.00  0.00    -0.270 OA
ATOM      8  N   UNL     1      -2.367  -8.908  10.090  0.00  0.00    -0.309 N 
ATOM     21  C   UNL     1      -1.617  -9.338  11.181  0.00  0.00    +0.244 C 
ATOM     30  H   UNL     1      -2.070  -8.105   9.547  0.00  0.00    +0.149 HD
BRANCH  21  22
ATOM      1  F   UNL     1       3.182  -6.586  12.136  0.00  0.00    -0.205 F 
ATOM     22  C   UNL     1      -0.348  -8.609  11.433  0.00  0.00    +0.037 A 
ATOM     23  C   UNL     1      -0.306  -7.590  12.384  0.00  0.00    +0.016 A 
ATOM     24  C   UNL     1       0.804  -8.945  10.719  0.00  0.00    +0.016 A 
ATOM     25  C   UNL     1       0.887  -6.906  12.622  0.00  0.00    +0.039 A 
ATOM     26  C   UNL     1       1.995  -8.261  10.956  0.00  0.00    +0.039 A 
ATOM     27  C   UNL     1       2.037  -7.242  11.908  0.00  0.00    +0.123 A 
ENDBRANCH  21  22
ENDBRANCH  18   8
ENDBRANCH  12  18
TORSDOF 6
ENDMDL
MODEL 3
REMARK VINA RESULT:      -2.4     14.230     16.580
REMARK  Name = 75536636
REMARK  7 active torsions:
REMARK  status: ('A' for Active; 'I' for Inactive)
REMARK    1  A    between atoms: O_3  and  C_11
REMARK    2  A    between atoms: N_6  and  C_9
REMARK    3  A    between atoms: N_6  and  C_10
REMARK    4  A    between atoms: N_8  and  C_18
REMARK    5  A    between atoms: C_12  and  C_18
REMARK    6  A    between atoms: C_19  and  C_20
REMARK    7  A    between atoms: C_21  and  C_22
REMARK                            x       y       z     vdW  Elec       q    Type
REMARK                         _______ _______ _______ _____ _____    ______ ____
ROOT
ATOM      2  O   UNL     1      -1.869  -9.579  14.803  0.00  0.00    -0.371 OA
ATOM      9  C   UNL     1      -2.623 -10.011  12.592  0.00  0.00    +0.111 C 
ATOM     11  C   UNL     1      -3.515 -10.750  13.573  0.00  0.00    +0.164 C 
ATOM     12  C   UNL     1      -3.251  -9.971  14.854  0.00  0.00    +0.165 C 
ATOM     15  C   UNL     1      -1.401  -9.729  13.451  0.00  0.00    +0.181 C 
ENDROOT
BRANCH  11   3
ATOM      3  O   UNL     1      -4.881 -10.712  13.205  0.00  0.00    -0.388 OA
ATOM     29  H   UNL     1      -5.406 -10.514  13.999  0.00  0.00    +0.210 HD
ENDBRANCH  11   3
BRANCH   9   6
ATOM      6  N   UNL     1      -2.311 -10.777  11.396  0.00  0.00    -0.306 NA
ATOM     28  H   UNL     1      -2.234 -11.768  11.623  0.00  0.00    +0.123 HD
BRANCH   6  10
ATOM      4  O   UNL     1      -6.449  -7.042   8.802  0.00  0.00    -0.276 OA
ATOM      7  N   UNL     1      -5.639  -9.145   9.367  0.00  0.00    -0.302 N 
ATOM     10  C   UNL     1      -3.333 -10.577  10.371  0.00  0.00    +0.057 C 
ATOM     13  C   UNL     1      -3.208  -9.172   9.769  0.00  0.00    +0.037 C 
ATOM     14  C   UNL     1      -4.729 -10.780  10.974  0.00  0.00    +0.037 C 
ATOM     16  C   UNL     1      -4.327  -8.907   8.764  0.00  0.00    +0.109 C 
ATOM     17  C   UNL     1      -5.819 -10.483   9.945  0.00  0.00    +0.109 C 
ATOM     19  C   UNL     1      -6.613  -8.147   9.325  0.00  0.00    +0.212 C 
ATOM     20  C   UNL     1      -7.936  -8.467   9.972  0.00  0.00    +0.109 C 
ENDBRANCH   6  10
ENDBRANCH   9   6
BRANCH  12  18
ATOM     18  C   UNL     1      -3.508 -10.780  16.113  0.00  0.00    +0.138 C 
BRANCH  18   8
ATOM      5  O   UNL     1      -4.426 -10.542  18.823  0.00  0.00    -0.270 OA
ATOM      8  N   UNL     1      -4.869 -10.651  16.547  0.00  0.00    -0.309 N 
ATOM     21  C   UNL     1      -5.224 -10.541  17.889  0.00  0.00    +0.244 C 
ATOM     30  H   UNL     1      -5.583 -10.715  15.830  0.00  0.00    +0.149 HD
BRANCH  21  22
ATOM      1  F   UNL     1     -10.719 -10.165  18.977  0.00  0.00    -0.205 F 
ATOM     22  C   UNL     1      -6.678 -10.443  18.177  0.00  0.00    +0.037 A 
ATOM     23  C   UNL     1      -7.162 -10.775  19.441  0.00  0.00    +0.016 A 
ATOM     24  C   UNL     1      -7.559 -10.017  17.182  0.00  0.00    +0.016 A 
ATOM     25  C   UNL     1      -8.528 -10.681  19.712  0.00  0.00    +0.039 A 
ATOM     26  C   UNL     1      -8.924  -9.923  17.452  0.00  0.00    +0.039 A 
ATOM     27  C   UNL     1      -9.408 -10.256  18.718  0.00  0.00    +0.123 A 
ENDBRANCH  21  22
ENDBRANCH  18   8
ENDBRANCH  12  18
TORSDOF 6
ENDMDL
MODEL 4
REMARK VINA RESULT:      -1.7      2.855      5.353
REMARK  Name = 75536636
REMARK  7 active torsions:
REMARK  status: ('A' for Active; 'I' for Inactive)
REMARK    1  A    between atoms: O_3  and  C_11
REMARK    2  A    between atoms: N_6  and  C_9
REMARK    3  A    between atoms: N_6  and  C_10
REMARK    4  A    between atoms: N_8  and  C_18
REMARK    5  A    between atoms: C_12  and  C_18
REMARK    6  A    between atoms: C_19  and  C_20
REMARK    7  A    between atoms: C_21  and  C_22
REMARK                            x       y       z     vdW  Elec       q    Type
REMARK                         _______ _______ _______ _____ _____    ______ ____
ROOT
ATOM      2  O   UNL     1      -2.043  -2.944  23.723  0.00  0.00    -0.371 OA
ATOM      9  C   UNL     1      -0.765  -1.687  25.281  0.00  0.00    +0.111 C 
ATOM     11  C   UNL     1      -2.240  -1.443  25.540  0.00  0.00    +0.164 C 
ATOM     12  C   UNL     1      -2.861  -2.662  24.871  0.00  0.00    +0.165 C 
ATOM     15  C   UNL     1      -0.796  -2.242  23.866  0.00  0.00    +0.181 C 
ENDROOT
BRANCH  11   3
ATOM      3  O   UNL     1      -2.550  -1.384  26.920  0.00  0.00    -0.388 OA
ATOM     29  H   UNL     1      -3.034  -2.192  27.159  0.00  0.00    +0.210 HD
ENDBRANCH  11   3
BRANCH   9   6
ATOM      6  N   UNL     1       0.054  -0.492  25.402  0.00  0.00    -0.306 NA
ATOM     28  H   UNL     1       0.891  -0.579  24.826  0.00  0.00    +0.123 HD
BRANCH   6  10
ATOM      4  O   UNL     1       0.072   5.105  22.856  0.00  0.00    -0.276 OA
ATOM      7  N   UNL     1      -0.783   3.503  24.306  0.00  0.00    -0.302 N 
ATOM     10  C   UNL     1      -0.700   0.696  25.011  0.00  0.00    +0.057 C 
ATOM     13  C   UNL     1      -0.223   1.196  23.642  0.00  0.00    +0.037 C 
ATOM     14  C   UNL     1      -0.538   1.795  26.069  0.00  0.00    +0.037 C 
ATOM     16  C   UNL     1      -0.932   2.493  23.256  0.00  0.00    +0.109 C 
ATOM     17  C   UNL     1      -1.241   3.081  25.636  0.00  0.00    +0.109 C 
ATOM     19  C   UNL     1      -0.274   4.762  23.990  0.00  0.00    +0.212 C 
ATOM     20  C   UNL     1      -0.147   5.745  25.126  0.00  0.00    +0.109 C 
ENDBRANCH   6  10
ENDBRANCH   9   6
BRANCH  12  18
ATOM     18  C   UNL     1      -4.298  -2.441  24.436  0.00  0.00    +0.138 C 
BRANCH  18   8
ATOM      5  O   UNL     1      -3.447  -0.017  23.152  0.00  0.00    -0.270 OA
ATOM      8  N   UNL     1      -4.738  -1.111  24.742  0.00  0.00    -0.309 N 
ATOM     21  C   UNL     1      -4.270   0.012  24.064  0.00  0.00    +0.244 C 
ATOM     30  H   UNL     1      -5.364  -1.010  25.533  0.00  0.00    +0.149 HD
BRANCH  21  22
ATOM      1  F   UNL     1      -6.279   4.964  25.786  0.00  0.00    -0.205 F 
ATOM     22  C   UNL     1      -4.802   1.322  24.519  0.00  0.00    +0.037 A 
ATOM     23  C   UNL     1      -5.868   1.368  25.418  0.00  0.00    +0.016 A 
ATOM     24  C   UNL     1      -4.236   2.507  24.047  0.00  0.00    +0.016 A 
ATOM     25  C   UNL     1      -6.367   2.598  25.846  0.00  0.00    +0.039 A 
ATOM     26  C   UNL     1      -4.735   3.737  24.475  0.00  0.00    +0.039 A 
ATOM     27  C   UNL     1      -5.801   3.782  25.374  0.00  0.00    +0.123 A 
ENDBRANCH  21  22
ENDBRANCH  18   8
ENDBRANCH  12  18
TORSDOF 6
ENDMDL
MODEL 5
REMARK VINA RESULT:      -1.4      2.406      4.945
REMARK  Name = 75536636
REMARK  7 active torsions:
REMARK  status: ('A' for Active; 'I' for Inactive)
REMARK    1  A    between atoms: O_3  and  C_11
REMARK    2  A    between atoms: N_6  and  C_9
REMARK    3  A    between atoms: N_6  and  C_10
REMARK    4  A    between atoms: N_8  and  C_18
REMARK    5  A    between atoms: C_12  and  C_18
REMARK    6  A    between atoms: C_19  and  C_20
REMARK    7  A    between atoms: C_21  and  C_22
REMARK                            x       y       z     vdW  Elec       q    Type
REMARK                         _______ _______ _______ _____ _____    ______ ____
ROOT
ATOM      2  O   UNL     1      -2.861   4.666  23.812  0.00  0.00    -0.371 OA
ATOM      9  C   UNL     1      -4.432   3.626  25.259  0.00  0.00    +0.111 C 
ATOM     11  C   UNL     1      -3.117   3.797  25.997  0.00  0.00    +0.164 C 
ATOM     12  C   UNL     1      -2.459   4.895  25.173  0.00  0.00    +0.165 C 
ATOM     15  C   UNL     1      -3.985   3.770  23.813  0.00  0.00    +0.181 C 
ENDROOT
BRANCH  11   3
ATOM      3  O   UNL     1      -3.295   4.185  27.346  0.00  0.00    -0.388 OA
ATOM     29  H   UNL     1      -2.642   4.875  27.555  0.00  0.00    +0.210 HD
ENDBRANCH  11   3
BRANCH   9   6
ATOM      6  N   UNL     1      -5.091   2.358  25.525  0.00  0.00    -0.306 NA
ATOM     28  H   UNL     1      -6.097   2.450  25.392  0.00  0.00    +0.123 HD
BRANCH   6  10
ATOM      4  O   UNL     1      -3.474  -3.534  24.832  0.00  0.00    -0.276 OA
ATOM      7  N   UNL     1      -3.309  -1.276  24.309  0.00  0.00    -0.302 N 
ATOM     10  C   UNL     1      -4.566   1.308  24.654  0.00  0.00    +0.057 C 
ATOM     13  C   UNL     1      -5.338   0.003  24.878  0.00  0.00    +0.037 C 
ATOM     14  C   UNL     1      -3.070   1.101  24.924  0.00  0.00    +0.037 C 
ATOM     16  C   UNL     1      -4.742  -1.133  24.048  0.00  0.00    +0.109 C 
ATOM     17  C   UNL     1      -2.518  -0.057  24.093  0.00  0.00    +0.109 C 
ATOM     19  C   UNL     1      -2.794  -2.514  24.691  0.00  0.00    +0.212 C 
ATOM     20  C   UNL     1      -1.309  -2.579  24.946  0.00  0.00    +0.109 C 
ENDBRANCH   6  10
ENDBRANCH   9   6
BRANCH  12  18
ATOM     18  C   UNL     1      -0.944   4.891  25.269  0.00  0.00    +0.138 C 
BRANCH  18   8
ATOM      5  O   UNL     1       0.304   2.509  26.276  0.00  0.00    -0.270 OA
ATOM      8  N   UNL     1      -0.374   3.829  24.492  0.00  0.00    -0.309 N 
ATOM     21  C   UNL     1       0.213   2.705  25.067  0.00  0.00    +0.244 C 
ATOM     30  H   UNL     1      -0.353   3.962  23.487  0.00  0.00    +0.149 HD
BRANCH  21  22
ATOM      1  F   UNL     1       2.366  -1.062  21.505  0.00  0.00    -0.205 F 
ATOM     22  C   UNL     1       0.783   1.708  24.126  0.00  0.00    +0.037 A 
ATOM     23  C   UNL     1       0.007   0.631  23.697  0.00  0.00    +0.016 A 
ATOM     24  C   UNL     1       2.094   1.848  23.669  0.00  0.00    +0.016 A 
ATOM     25  C   UNL     1       0.542  -0.305  22.811  0.00  0.00    +0.039 A 
ATOM     26  C   UNL     1       2.629   0.912  22.785  0.00  0.00    +0.039 A 
ATOM     27  C   UNL     1       1.852  -0.164  22.356  0.00  0.00    +0.123 A 
ENDBRANCH  21  22
ENDBRANCH  18   8
ENDBRANCH  12  18
TORSDOF 6
ENDMDL
MODEL 6
REMARK VINA RESULT:      -1.2      2.037      5.085
REMARK  Name = 75536636
REMARK  7 active torsions:
REMARK  status: ('A' for Active; 'I' for Inactive)
REMARK    1  A    between atoms: O_3  and  C_11
REMARK    2  A    between atoms: N_6  and  C_9
REMARK    3  A    between atoms: N_6  and  C_10
REMARK    4  A    between atoms: N_8  and  C_18
REMARK    5  A    between atoms: C_12  and  C_18
REMARK    6  A    between atoms: C_19  and  C_20
REMARK    7  A    between atoms: C_21  and  C_22
REMARK                            x       y       z     vdW  Elec       q    Type
REMARK                         _______ _______ _______ _____ _____    ______ ____
ROOT
ATOM      2  O   UNL     1       0.189   2.951  23.253  0.00  0.00    -0.371 OA
ATOM      9  C   UNL     1      -0.367   3.863  25.376  0.00  0.00    +0.111 C 
ATOM     11  C   UNL     1       0.157   2.452  25.566  0.00  0.00    +0.164 C 
ATOM     12  C   UNL     1       0.925   2.247  24.267  0.00  0.00    +0.165 C 
ATOM     15  C   UNL     1      -0.726   3.854  23.899  0.00  0.00    +0.181 C 
ENDROOT
BRANCH  11   3
ATOM      3  O   UNL     1       0.995   2.328  26.699  0.00  0.00    -0.388 OA
ATOM     29  H   UNL     1       1.913   2.239  26.393  0.00  0.00    +0.210 HD
ENDBRANCH  11   3
BRANCH   9   6
ATOM      6  N   UNL     1      -1.497   4.187  26.232  0.00  0.00    -0.306 NA
ATOM     28  H   UNL     1      -1.399   5.132  26.600  0.00  0.00    +0.123 HD
BRANCH   6  10
ATOM      4  O   UNL     1      -7.242   2.005  26.041  0.00  0.00    -0.276 OA
ATOM      7  N   UNL     1      -5.271   2.712  25.033  0.00  0.00    -0.302 N 
ATOM     10  C   UNL     1      -2.754   4.064  25.498  0.00  0.00    +0.057 C 
ATOM     13  C   UNL     1      -3.941   4.221  26.457  0.00  0.00    +0.037 C 
ATOM     14  C   UNL     1      -2.817   2.708  24.785  0.00  0.00    +0.037 C 
ATOM     16  C   UNL     1      -5.265   4.000  25.728  0.00  0.00    +0.109 C 
ATOM     17  C   UNL     1      -4.164   2.516  24.089  0.00  0.00    +0.109 C 
ATOM     19  C   UNL     1      -6.302   1.803  25.267  0.00  0.00    +0.212 C 
ATOM     20  C   UNL     1      -6.235   0.497  24.516  0.00  0.00    +0.109 C 
ENDBRANCH   6  10
ENDBRANCH   9   6
BRANCH  12  18
ATOM     18  C   UNL     1       1.068   0.787  23.877  0.00  0.00    +0.138 C 
BRANCH  18   8
ATOM      5  O   UNL     1       0.182  -1.499  25.373  0.00  0.00    -0.270 OA
ATOM      8  N   UNL     1      -0.211   0.145  23.782  0.00  0.00    -0.309 N 
ATOM     21  C   UNL     1      -0.556  -0.964  24.550  0.00  0.00    +0.244 C 
ATOM     30  H   UNL     1      -0.842   0.493  23.069  0.00  0.00    +0.149 HD
BRANCH  21  22
ATOM      1  F   UNL     1      -5.666  -3.108  23.651  0.00  0.00    -0.205 F 
ATOM     22  C   UNL     1      -1.909  -1.531  24.313  0.00  0.00    +0.037 A 
ATOM     23  C   UNL     1      -2.910  -0.737  23.755  0.00  0.00    +0.016 A 
ATOM     24  C   UNL     1      -2.178  -2.859  24.648  0.00  0.00    +0.016 A 
ATOM     25  C   UNL     1      -4.180  -1.269  23.531  0.00  0.00    +0.039 A 
ATOM     26  C   UNL     1      -3.447  -3.391  24.425  0.00  0.00    +0.039 A 
ATOM     27  C   UNL     1      -4.448  -2.596  23.866  0.00  0.00    +0.123 A 
ENDBRANCH  21  22
ENDBRANCH  18   8
ENDBRANCH  12  18
TORSDOF 6
ENDMDL
MODEL 7
REMARK VINA RESULT:      -1.1      3.239      5.352
REMARK  Name = 75536636
REMARK  7 active torsions:
REMARK  status: ('A' for Active; 'I' for Inactive)
REMARK    1  A    between atoms: O_3  and  C_11
REMARK    2  A    between atoms: N_6  and  C_9
REMARK    3  A    between atoms: N_6  and  C_10
REMARK    4  A    between atoms: N_8  and  C_18
REMARK    5  A    between atoms: C_12  and  C_18
REMARK    6  A    between atoms: C_19  and  C_20
REMARK    7  A    between atoms: C_21  and  C_22
REMARK                            x       y       z     vdW  Elec       q    Type
REMARK                         _______ _______ _______ _____ _____    ______ ____
ROOT
ATOM      2  O   UNL     1      -1.815  -2.725  24.005  0.00  0.00    -0.371 OA
ATOM      9  C   UNL     1      -0.215  -0.975  24.159  0.00  0.00    +0.111 C 
ATOM     11  C   UNL     1      -1.323  -0.722  25.164  0.00  0.00    +0.164 C 
ATOM     12  C   UNL     1      -1.917  -2.117  25.303  0.00  0.00    +0.165 C 
ATOM     15  C   UNL     1      -0.884  -1.963  23.217  0.00  0.00    +0.181 C 
ENDROOT
BRANCH  11   3
ATOM      3  O   UNL     1      -0.839  -0.229  26.398  0.00  0.00    -0.388 OA
ATOM     29  H   UNL     1      -0.354   0.596  26.229  0.00  0.00    +0.210 HD
ENDBRANCH  11   3
BRANCH   9   6
ATOM      6  N   UNL     1       0.248   0.227  23.485  0.00  0.00    -0.306 NA
ATOM     28  H   UNL     1       0.245   1.015  24.131  0.00  0.00    +0.123 HD
BRANCH   6  10
ATOM      4  O   UNL     1       6.168  -1.074  24.519  0.00  0.00    -0.276 OA
ATOM      7  N   UNL     1       4.460  -0.071  23.304  0.00  0.00    -0.302 N 
ATOM     10  C   UNL     1       1.590   0.032  22.940  0.00  0.00    +0.057 C 
ATOM     13  C   UNL     1       2.271  -1.156  23.630  0.00  0.00    +0.037 C 
ATOM     14  C   UNL     1       2.422   1.308  23.123  0.00  0.00    +0.037 C 
ATOM     16  C   UNL     1       3.710  -1.318  23.145  0.00  0.00    +0.109 C 
ATOM     17  C   UNL     1       3.859   1.098  22.648  0.00  0.00    +0.109 C 
ATOM     19  C   UNL     1       5.665  -0.071  24.005  0.00  0.00    +0.212 C 
ATOM     20  C   UNL     1       6.375   1.254  24.129  0.00  0.00    +0.109 C 
ENDBRANCH   6  10
ENDBRANCH   9   6
BRANCH  12  18
ATOM     18  C   UNL     1      -3.367  -2.111  25.754  0.00  0.00    +0.138 C 
BRANCH  18   8
ATOM      5  O   UNL     1      -4.142  -0.438  23.553  0.00  0.00    -0.270 OA
ATOM      8  N   UNL     1      -3.883  -0.775  25.834  0.00  0.00    -0.309 N 
ATOM     21  C   UNL     1      -4.235  -0.035  24.709  0.00  0.00    +0.244 C 
ATOM     30  H   UNL     1      -3.917  -0.356  26.757  0.00  0.00    +0.149 HD
BRANCH  21  22
ATOM      1  F   UNL     1      -6.094   5.177  25.656  0.00  0.00    -0.205 F 
ATOM     22  C   UNL     1      -4.728   1.344  24.959  0.00  0.00    +0.037 A 
ATOM     23  C   UNL     1      -5.902   1.545  25.683  0.00  0.00    +0.016 A 
ATOM     24  C   UNL     1      -4.014   2.440  24.469  0.00  0.00    +0.016 A 
ATOM     25  C   UNL     1      -6.364   2.840  25.919  0.00  0.00    +0.039 A 
ATOM     26  C   UNL     1      -4.476   3.734  24.704  0.00  0.00    +0.039 A 
ATOM     27  C   UNL     1      -5.651   3.934  25.429  0.00  0.00    +0.123 A 
ENDBRANCH  21  22
ENDBRANCH  18   8
ENDBRANCH  12  18
TORSDOF 6
ENDMDL
MODEL 8
REMARK VINA RESULT:      -0.7      2.545      4.450
REMARK  Name = 75536636
REMARK  7 active torsions:
REMARK  status: ('A' for Active; 'I' for Inactive)
REMARK    1  A    between atoms: O_3  and  C_11
REMARK    2  A    between atoms: N_6  and  C_9
REMARK    3  A    between atoms: N_6  and  C_10
REMARK    4  A    between atoms: N_8  and  C_18
REMARK    5  A    between atoms: C_12  and  C_18
REMARK    6  A    between atoms: C_19  and  C_20
REMARK    7  A    between atoms: C_21  and  C_22
REMARK                            x       y       z     vdW  Elec       q    Type
REMARK                         _______ _______ _______ _____ _____    ______ ____
ROOT
ATOM      2  O   UNL     1       0.024   3.679  26.374  0.00  0.00    -0.371 OA
ATOM      9  C   UNL     1       0.777   2.292  24.598  0.00  0.00    +0.111 C 
ATOM     11  C   UNL     1      -0.144   3.359  24.036  0.00  0.00    +0.164 C 
ATOM     12  C   UNL     1      -0.086   4.407  25.139  0.00  0.00    +0.165 C 
ATOM     15  C   UNL     1       0.412   2.327  26.073  0.00  0.00    +0.181 C 
ENDROOT
BRANCH  11   3
ATOM      3  O   UNL     1       0.307   3.872  22.797  0.00  0.00    -0.388 OA
ATOM     29  H   UNL     1      -0.385   4.451  22.435  0.00  0.00    +0.210 HD
ENDBRANCH  11   3
BRANCH   9   6
ATOM      6  N   UNL     1       0.586   0.981  23.998  0.00  0.00    -0.306 NA
ATOM     28  H   UNL     1       1.468   0.469  23.985  0.00  0.00    +0.123 HD
BRANCH   6  10
ATOM      4  O   UNL     1      -3.276  -3.801  24.119  0.00  0.00    -0.276 OA
ATOM      7  N   UNL     1      -2.622  -1.664  24.754  0.00  0.00    -0.302 N 
ATOM     10  C   UNL     1      -0.423   0.218  24.729  0.00  0.00    +0.057 C 
ATOM     13  C   UNL     1      -0.197  -1.285  24.526  0.00  0.00    +0.037 C 
ATOM     14  C   UNL     1      -1.827   0.618  24.259  0.00  0.00    +0.037 C 
ATOM     16  C   UNL     1      -1.298  -2.099  25.203  0.00  0.00    +0.109 C 
ATOM     17  C   UNL     1      -2.897  -0.234  24.941  0.00  0.00    +0.109 C 
ATOM     19  C   UNL     1      -3.519  -2.597  24.234  0.00  0.00    +0.212 C 
ATOM     20  C   UNL     1      -4.859  -2.070  23.789  0.00  0.00    +0.109 C 
ENDBRANCH   6  10
ENDBRANCH   9   6
BRANCH  12  18
ATOM     18  C   UNL     1      -1.310   5.304  25.180  0.00  0.00    +0.138 C 
BRANCH  18   8
ATOM      5  O   UNL     1      -2.918   3.892  27.095  0.00  0.00    -0.270 OA
ATOM      8  N   UNL     1      -2.509   4.564  24.911  0.00  0.00    -0.309 N 
ATOM     21  C   UNL     1      -3.228   3.908  25.906  0.00  0.00    +0.244 C 
ATOM     30  H   UNL     1      -2.782   4.478  23.938  0.00  0.00    +0.149 HD
BRANCH  21  22
ATOM      1  F   UNL     1      -7.785   1.094  24.222  0.00  0.00    -0.205 F 
ATOM     22  C   UNL     1      -4.434   3.162  25.461  0.00  0.00    +0.037 A 
ATOM     23  C   UNL     1      -5.473   2.917  26.358  0.00  0.00    +0.016 A 
ATOM     24  C   UNL     1      -4.527   2.708  24.145  0.00  0.00    +0.016 A 
ATOM     25  C   UNL     1      -6.605   2.218  25.940  0.00  0.00    +0.039 A 
ATOM     26  C   UNL     1      -5.658   2.009  23.727  0.00  0.00    +0.039 A 
ATOM     27  C   UNL     1      -6.698   1.764  24.625  0.00  0.00    +0.123 A 
ENDBRANCH  21  22
ENDBRANCH  18   8
ENDBRANCH  12  18
TORSDOF 6
ENDMDL
MODEL 9
REMARK VINA RESULT:      -0.3      2.815      5.396
REMARK  Name = 75536636
REMARK  7 active torsions:
REMARK  status: ('A' for Active; 'I' for Inactive)
REMARK    1  A    between atoms: O_3  and  C_11
REMARK    2  A    between atoms: N_6  and  C_9
REMARK    3  A    between atoms: N_6  and  C_10
REMARK    4  A    between atoms: N_8  and  C_18
REMARK    5  A    between atoms: C_12  and  C_18
REMARK    6  A    between atoms: C_19  and  C_20
REMARK    7  A    between atoms: C_21  and  C_22
REMARK                            x       y       z     vdW  Elec       q    Type
REMARK                         _______ _______ _______ _____ _____    ______ ____
ROOT
ATOM      2  O   UNL     1      -4.760  -1.865  23.793  0.00  0.00    -0.371 OA
ATOM      9  C   UNL     1      -2.678  -2.450  24.777  0.00  0.00    +0.111 C 
ATOM     11  C   UNL     1      -3.063  -1.053  25.227  0.00  0.00    +0.164 C 
ATOM     12  C   UNL     1      -4.564  -1.065  24.970  0.00  0.00    +0.165 C 
ATOM     15  C   UNL     1      -3.563  -2.626  23.553  0.00  0.00    +0.181 C 
ENDROOT
BRANCH  11   3
ATOM      3  O   UNL     1      -2.761  -0.815  26.588  0.00  0.00    -0.388 OA
ATOM     29  H   UNL     1      -3.316  -0.079  26.900  0.00  0.00    +0.210 HD
ENDBRANCH  11   3
BRANCH   9   6
ATOM      6  N   UNL     1      -1.263  -2.599  24.478  0.00  0.00    -0.306 NA
ATOM     28  H   UNL     1      -1.110  -3.424  23.899  0.00  0.00    +0.123 HD
BRANCH   6  10
ATOM      4  O   UNL     1       3.234   0.005  21.192  0.00  0.00    -0.276 OA
ATOM      7  N   UNL     1       1.465   0.092  22.695  0.00  0.00    -0.302 N 
ATOM     10  C   UNL     1      -0.748  -1.411  23.800  0.00  0.00    +0.057 C 
ATOM     13  C   UNL     1      -0.092  -1.805  22.472  0.00  0.00    +0.037 C 
ATOM     14  C   UNL     1       0.259  -0.686  24.702  0.00  0.00    +0.037 C 
ATOM     16  C   UNL     1       0.537  -0.591  21.792  0.00  0.00    +0.109 C 
ATOM     17  C   UNL     1       0.883   0.507  23.978  0.00  0.00    +0.109 C 
ATOM     19  C   UNL     1       2.777   0.333  22.290  0.00  0.00    +0.212 C 
ATOM     20  C   UNL     1       3.672   1.038  23.278  0.00  0.00    +0.109 C 
ENDBRANCH   6  10
ENDBRANCH   9   6
BRANCH  12  18
ATOM     18  C   UNL     1      -5.147   0.319  24.754  0.00  0.00    +0.138 C 
BRANCH  18   8
ATOM      5  O   UNL     1      -5.152   2.857  26.097  0.00  0.00    -0.270 OA
ATOM      8  N   UNL     1      -4.119   1.317  24.701  0.00  0.00    -0.309 N 
ATOM     21  C   UNL     1      -4.205   2.525  25.388  0.00  0.00    +0.244 C 
ATOM     30  H   UNL     1      -3.341   1.136  24.076  0.00  0.00    +0.149 HD
BRANCH  21  22
ATOM      1  F   UNL     1       0.086   6.080  24.704  0.00  0.00    -0.205 F 
ATOM     22  C   UNL     1      -3.069   3.465  25.208  0.00  0.00    +0.037 A 
ATOM     23  C   UNL     1      -1.843   2.996  24.737  0.00  0.00    +0.016 A 
ATOM     24  C   UNL     1      -3.229   4.819  25.510  0.00  0.00    +0.016 A 
ATOM     25  C   UNL     1      -0.777   3.879  24.566  0.00  0.00    +0.039 A 
ATOM     26  C   UNL     1      -2.163   5.701  25.340  0.00  0.00    +0.039 A 
ATOM     27  C   UNL     1      -0.937   5.231  24.868  0.00  0.00    +0.123 A 
ENDBRANCH  21  22
ENDBRANCH  18   8
ENDBRANCH  12  18
TORSDOF 6
ENDMDL
MODEL 10
REMARK VINA RESULT:      -0.1      3.196      6.670
REMARK  Name = 75536636
REMARK  7 active torsions:
REMARK  status: ('A' for Active; 'I' for Inactive)
REMARK    1  A    between atoms: O_3  and  C_11
REMARK    2  A    between atoms: N_6  and  C_9
REMARK    3  A    between atoms: N_6  and  C_10
REMARK    4  A    between atoms: N_8  and  C_18
REMARK    5  A    between atoms: C_12  and  C_18
REMARK    6  A    between atoms: C_19  and  C_20
REMARK    7  A    between atoms: C_21  and  C_22
REMARK                            x       y       z     vdW  Elec       q    Type
REMARK                         _______ _______ _______ _____ _____    ______ ____
ROOT
ATOM      2  O   UNL     1      -0.986  -0.710  25.408  0.00  0.00    -0.371 OA
ATOM      9  C   UNL     1      -3.351  -0.803  25.615  0.00  0.00    +0.111 C 
ATOM     11  C   UNL     1      -2.955  -1.298  24.236  0.00  0.00    +0.164 C 
ATOM     12  C   UNL     1      -1.495  -1.668  24.465  0.00  0.00    +0.165 C 
ATOM     15  C   UNL     1      -2.099  -0.049  26.034  0.00  0.00    +0.181 C 
ENDROOT
BRANCH  11   3
ATOM      3  O   UNL     1      -3.721  -2.411  23.814  0.00  0.00    -0.388 OA
ATOM     29  H   UNL     1      -4.349  -2.635  24.521  0.00  0.00    +0.210 HD
ENDBRANCH  11   3
BRANCH   9   6
ATOM      6  N   UNL     1      -4.542   0.030  25.616  0.00  0.00    -0.306 NA
ATOM     28  H   UNL     1      -4.815   0.252  26.574  0.00  0.00    +0.123 HD
BRANCH   6  10
ATOM      4  O   UNL     1      -0.552   4.233  23.561  0.00  0.00    -0.276 OA
ATOM      7  N   UNL     1      -2.668   3.563  24.250  0.00  0.00    -0.302 N 
ATOM     10  C   UNL     1      -4.313   1.262  24.865  0.00  0.00    +0.057 C 
ATOM     13  C   UNL     1      -3.039   1.136  24.022  0.00  0.00    +0.037 C 
ATOM     14  C   UNL     1      -4.206   2.452  25.827  0.00  0.00    +0.037 C 
ATOM     16  C   UNL     1      -2.728   2.448  23.303  0.00  0.00    +0.109 C 
ATOM     17  C   UNL     1      -3.872   3.739  25.072  0.00  0.00    +0.109 C 
ATOM     19  C   UNL     1      -1.539   4.380  24.288  0.00  0.00    +0.212 C 
ATOM     20  C   UNL     1      -1.551   5.504  25.293  0.00  0.00    +0.109 C 
ENDBRANCH   6  10
ENDBRANCH   9   6
BRANCH  12  18
ATOM     18  C   UNL     1      -0.662  -1.633  23.197  0.00  0.00    +0.138 C 
BRANCH  18   8
ATOM      5  O   UNL     1       1.184  -0.396  21.379  0.00  0.00    -0.270 OA
ATOM      8  N   UNL     1       0.696  -1.266  23.474  0.00  0.00    -0.309 N 
ATOM     21  C   UNL     1       1.523  -0.667  22.528  0.00  0.00    +0.244 C 
ATOM     30  H   UNL     1       1.061  -1.527  24.384  0.00  0.00    +0.149 HD
BRANCH  21  22
ATOM      1  F   UNL     1       6.777   0.444  24.165  0.00  0.00    -0.205 F 
ATOM     22  C   UNL     1       2.913  -0.373  22.962  0.00  0.00    +0.037 A 
ATOM     23  C   UNL     1       3.651  -1.342  23.640  0.00  0.00    +0.016 A 
ATOM     24  C   UNL     1       3.480   0.873  22.691  0.00  0.00    +0.016 A 
ATOM     25  C   UNL     1       4.957  -1.066  24.047  0.00  0.00    +0.039 A 
ATOM     26  C   UNL     1       4.785   1.149  23.098  0.00  0.00    +0.039 A 
ATOM     27  C   UNL     1       5.523   0.179  23.776  0.00  0.00    +0.123 A 
ENDBRANCH  21  22
ENDBRANCH  18   8
ENDBRANCH  12  18
TORSDOF 6
ENDMDL
