MODEL 1
REMARK VINA RESULT:      -2.7      0.000      0.000
REMARK  Name = 45361424
REMARK  14 active torsions:
REMARK  status: ('A' for Active; 'I' for Inactive)
REMARK    1  A    between atoms: O_1  and  C_10
REMARK    2  A    between atoms: N_4  and  C_14
REMARK    3  A    between atoms: N_5  and  C_25
REMARK    4  A    between atoms: C_7  and  C_17
REMARK    5  A    between atoms: C_9  and  C_19
REMARK    6  A    between atoms: C_13  and  C_18
REMARK    7  A    between atoms: C_18  and  C_20
REMARK    8  A    between atoms: C_18  and  C_21
REMARK    9  A    between atoms: C_22  and  C_23
REMARK   10  A    between atoms: C_23  and  C_24
REMARK   11  A    between atoms: C_24  and  C_26
REMARK   12  A    between atoms: C_24  and  C_27
REMARK   13  A    between atoms: C_24  and  C_28
REMARK   14  A    between atoms: C_25  and  C_29
REMARK                            x       y       z     vdW  Elec       q    Type
REMARK                         _______ _______ _______ _____ _____    ______ ____
ROOT
ATOM      7  C   UNL     1      -2.136  -0.994  25.028  0.00  0.00    -0.027 C 
ATOM      8  C   UNL     1      -2.166   0.256  24.086  0.00  0.00    +0.028 C 
ATOM      9  C   UNL     1      -0.734   0.886  23.948  0.00  0.00    +0.012 C 
ATOM     10  C   UNL     1      -3.295   1.245  24.498  0.00  0.00    +0.122 C 
ATOM     11  C   UNL     1      -3.535  -1.655  25.051  0.00  0.00    +0.007 C 
ATOM     12  C   UNL     1      -1.137  -2.028  24.460  0.00  0.00    +0.009 C 
ATOM     13  C   UNL     1      -4.674   0.556  24.622  0.00  0.00    +0.029 C 
ATOM     14  C   UNL     1       0.279  -0.183  23.450  0.00  0.00    +0.076 C 
ATOM     15  C   UNL     1      -4.637  -0.700  25.492  0.00  0.00    +0.007 C 
ATOM     16  C   UNL     1       0.266  -1.466  24.280  0.00  0.00    +0.023 C 
ATOM     17  C   UNL     1      -1.732  -0.635  26.479  0.00  0.00    +0.011 C 
ATOM     19  C   UNL     1      -0.685   2.106  23.012  0.00  0.00    +0.010 C 
ENDROOT
BRANCH  14   4
ATOM      3  O   UNL     1       2.192  -0.388  21.284  0.00  0.00    -0.276 OA
ATOM      4  N   UNL     1       1.631   0.332  23.422  0.00  0.00    -0.312 N 
ATOM     22  C   UNL     1       2.475   0.184  22.336  0.00  0.00    +0.214 C 
ATOM     34  H   UNL     1       1.977   0.791  24.259  0.00  0.00    +0.149 HD
BRANCH  22  23
ATOM     23  C   UNL     1       3.844   0.805  22.560  0.00  0.00    +0.102 C 
BRANCH  23  24
ATOM     24  C   UNL     1       4.847  -0.097  23.316  0.00  0.00    -0.029 C 
ATOM     26  C   UNL     1       6.072  -0.418  22.442  0.00  0.00    +0.011 C 
ATOM     27  C   UNL     1       5.327   0.666  24.567  0.00  0.00    +0.011 C 
ATOM     28  C   UNL     1       4.191  -1.411  23.771  0.00  0.00    +0.011 C 
ENDBRANCH  23  24
ENDBRANCH  22  23
ENDBRANCH  14   4
BRANCH  10   1
ATOM      1  O   UNL     1      -3.431   2.256  23.498  0.00  0.00    -0.391 OA
ATOM     35  H   UNL     1      -2.543   2.588  23.281  0.00  0.00    +0.210 HD
ENDBRANCH  10   1
BRANCH  13  18
ATOM     18  C   UNL     1      -5.744   1.517  25.153  0.00  0.00    +0.077 C 
ATOM     20  C   UNL     1      -6.932   1.561  24.198  0.00  0.00    +0.017 C 
BRANCH  18  21
ATOM      2  O   UNL     1      -5.408   3.857  24.628  0.00  0.00    -0.276 OA
ATOM      5  N   UNL     1      -4.278   2.954  26.441  0.00  0.00    -0.309 N 
ATOM     21  C   UNL     1      -5.143   2.904  25.357  0.00  0.00    +0.217 C 
ATOM     36  H   UNL     1      -4.152   2.135  27.027  0.00  0.00    +0.149 HD
BRANCH   5  25
ATOM     25  C   UNL     1      -3.585   4.160  26.833  0.00  0.00    +0.159 C 
BRANCH  25  29
ATOM      6  N   UNL     1      -1.339   3.360  26.367  0.00  0.00    -0.258 NA
ATOM     29  C   UNL     1      -2.271   4.309  26.122  0.00  0.00    +0.058 A 
ATOM     30  C   UNL     1      -2.078   5.382  25.269  0.00  0.00    +0.025 A 
ATOM     31  C   UNL     1      -0.851   5.491  24.625  0.00  0.00    +0.003 A 
ATOM     32  C   UNL     1      -0.158   3.498  25.723  0.00  0.00    +0.111 A 
ATOM     33  C   UNL     1       0.133   4.534  24.851  0.00  0.00    +0.020 A 
ENDBRANCH  25  29
ENDBRANCH   5  25
ENDBRANCH  18  21
ENDBRANCH  13  18
TORSDOF 8
ENDMDL
