MODEL 1
REMARK VINA RESULT:      -5.9      0.000      0.000
REMARK  Name = 75536740
REMARK  9 active torsions:
REMARK  status: ('A' for Active; 'I' for Inactive)
REMARK    1  A    between atoms: O_3  and  C_9
REMARK    2  A    between atoms: N_5  and  C_8
REMARK    3  A    between atoms: N_5  and  C_13
REMARK    4  A    between atoms: N_6  and  C_12
REMARK    5  A    between atoms: N_7  and  C_18
REMARK    6  A    between atoms: C_10  and  C_12
REMARK    7  A    between atoms: C_13  and  C_14
REMARK    8  A    between atoms: C_18  and  C_21
REMARK    9  A    between atoms: C_18  and  C_22
REMARK                            x       y       z     vdW  Elec       q    Type
REMARK                         _______ _______ _______ _____ _____    ______ ____
ROOT
ATOM      2  O   UNL     1      -1.816   3.689  24.113  0.00  0.00    -0.371 OA
ATOM      8  C   UNL     1      -4.059   3.202  24.696  0.00  0.00    +0.111 C 
ATOM      9  C   UNL     1      -3.247   3.273  25.978  0.00  0.00    +0.164 C 
ATOM     10  C   UNL     1      -1.794   3.366  25.516  0.00  0.00    +0.165 C 
ATOM     11  C   UNL     1      -3.168   3.957  23.722  0.00  0.00    +0.181 C 
ENDROOT
BRANCH   9   3
ATOM      3  O   UNL     1      -3.602   4.482  26.652  0.00  0.00    -0.388 OA
ATOM     25  H   UNL     1      -3.117   5.208  26.222  0.00  0.00    +0.210 HD
ENDBRANCH   9   3
BRANCH   8   5
ATOM      5  N   UNL     1      -4.254   1.823  24.256  0.00  0.00    -0.305 NA
ATOM     24  H   UNL     1      -5.134   1.752  23.746  0.00  0.00    +0.123 HD
BRANCH   5  13
ATOM     13  C   UNL     1      -4.304   0.911  25.394  0.00  0.00    +0.119 C 
BRANCH  13  14
ATOM      1  F   UNL     1      -2.347  -0.651  26.718  0.00  0.00    -0.205 F 
ATOM     14  C   UNL     1      -3.972  -0.501  24.994  0.00  0.00    +0.002 A 
ATOM     16  C   UNL     1      -2.996  -1.216  25.691  0.00  0.00    +0.128 A 
ATOM     17  C   UNL     1      -4.641  -1.097  23.925  0.00  0.00    +0.008 A 
ATOM     19  C   UNL     1      -2.690  -2.524  25.318  0.00  0.00    +0.038 A 
ATOM     20  C   UNL     1      -4.336  -2.406  23.552  0.00  0.00    +0.000 A 
ATOM     23  C   UNL     1      -3.361  -3.120  24.249  0.00  0.00    +0.003 A 
ENDBRANCH  13  14
ENDBRANCH   5  13
ENDBRANCH   8   5
BRANCH  10  12
ATOM     12  C   UNL     1      -1.014   2.073  25.697  0.00  0.00    +0.140 C 
BRANCH  12   6
ATOM      4  O   UNL     1       0.108  -0.217  24.346  0.00  0.00    -0.253 OA
ATOM      6  N   UNL     1       0.154   2.047  24.864  0.00  0.00    -0.297 N 
ATOM      7  N   UNL     1       1.779   1.149  23.495  0.00  0.00    -0.297 N 
ATOM     15  C   UNL     1       0.634   0.891  24.243  0.00  0.00    +0.300 C 
ATOM     26  H   UNL     1       0.663   2.914  24.725  0.00  0.00    +0.150 HD
ATOM     27  H   UNL     1       2.178   2.082  23.529  0.00  0.00    +0.150 HD
BRANCH   7  18
ATOM     18  C   UNL     1       2.476   0.124  22.752  0.00  0.00    +0.068 C 
ATOM     21  C   UNL     1       1.660  -0.308  21.541  0.00  0.00    +0.027 C 
ATOM     22  C   UNL     1       3.857   0.617  22.341  0.00  0.00    +0.027 C 
ENDBRANCH   7  18
ENDBRANCH  12   6
ENDBRANCH  10  12
TORSDOF 7
ENDMDL
MODEL 2
REMARK VINA RESULT:      -5.6      2.131      4.847
REMARK  Name = 75536740
REMARK  9 active torsions:
REMARK  status: ('A' for Active; 'I' for Inactive)
REMARK    1  A    between atoms: O_3  and  C_9
REMARK    2  A    between atoms: N_5  and  C_8
REMARK    3  A    between atoms: N_5  and  C_13
REMARK    4  A    between atoms: N_6  and  C_12
REMARK    5  A    between atoms: N_7  and  C_18
REMARK    6  A    between atoms: C_10  and  C_12
REMARK    7  A    between atoms: C_13  and  C_14
REMARK    8  A    between atoms: C_18  and  C_21
REMARK    9  A    between atoms: C_18  and  C_22
REMARK                            x       y       z     vdW  Elec       q    Type
REMARK                         _______ _______ _______ _____ _____    ______ ____
ROOT
ATOM      2  O   UNL     1      -0.204   2.718  26.332  0.00  0.00    -0.371 OA
ATOM      8  C   UNL     1      -0.511   1.157  24.579  0.00  0.00    +0.111 C 
ATOM      9  C   UNL     1       0.255   2.343  24.020  0.00  0.00    +0.164 C 
ATOM     10  C   UNL     1       0.221   3.390  25.132  0.00  0.00    +0.165 C 
ATOM     11  C   UNL     1      -0.276   1.311  26.073  0.00  0.00    +0.181 C 
ENDROOT
BRANCH   9   3
ATOM      3  O   UNL     1       1.607   1.929  23.810  0.00  0.00    -0.388 OA
ATOM     25  H   UNL     1       2.009   1.793  24.685  0.00  0.00    +0.210 HD
ENDBRANCH   9   3
BRANCH   8   5
ATOM      5  N   UNL     1      -1.937   1.240  24.268  0.00  0.00    -0.305 NA
ATOM     24  H   UNL     1      -2.226   2.218  24.271  0.00  0.00    +0.123 HD
BRANCH   5  13
ATOM     13  C   UNL     1      -2.732   0.518  25.254  0.00  0.00    +0.119 C 
BRANCH  13  14
ATOM      1  F   UNL     1      -1.071  -1.751  25.598  0.00  0.00    -0.205 F 
ATOM     14  C   UNL     1      -3.108  -0.857  24.771  0.00  0.00    +0.002 A 
ATOM     16  C   UNL     1      -2.242  -1.932  24.974  0.00  0.00    +0.128 A 
ATOM     17  C   UNL     1      -4.325  -1.056  24.119  0.00  0.00    +0.008 A 
ATOM     19  C   UNL     1      -2.593  -3.205  24.525  0.00  0.00    +0.038 A 
ATOM     20  C   UNL     1      -4.678  -2.329  23.671  0.00  0.00    +0.000 A 
ATOM     23  C   UNL     1      -3.812  -3.403  23.873  0.00  0.00    +0.003 A 
ENDBRANCH  13  14
ENDBRANCH   5  13
ENDBRANCH   8   5
BRANCH  10  12
ATOM     12  C   UNL     1      -0.742   4.535  24.859  0.00  0.00    +0.140 C 
BRANCH  12   6
ATOM      4  O   UNL     1      -2.995   4.259  26.640  0.00  0.00    -0.253 OA
ATOM      6  N   UNL     1      -2.050   4.050  24.529  0.00  0.00    -0.297 N 
ATOM      7  N   UNL     1      -4.252   3.447  24.867  0.00  0.00    -0.297 N 
ATOM     15  C   UNL     1      -3.092   3.946  25.454  0.00  0.00    +0.300 C 
ATOM     26  H   UNL     1      -2.226   3.758  23.572  0.00  0.00    +0.150 HD
ATOM     27  H   UNL     1      -4.213   3.150  23.896  0.00  0.00    +0.150 HD
BRANCH   7  18
ATOM     18  C   UNL     1      -5.477   3.241  25.604  0.00  0.00    +0.068 C 
ATOM     21  C   UNL     1      -6.336   4.499  25.576  0.00  0.00    +0.027 C 
ATOM     22  C   UNL     1      -6.234   2.043  25.048  0.00  0.00    +0.027 C 
ENDBRANCH   7  18
ENDBRANCH  12   6
ENDBRANCH  10  12
TORSDOF 7
ENDMDL
MODEL 3
REMARK VINA RESULT:      -5.6      2.353      4.584
REMARK  Name = 75536740
REMARK  9 active torsions:
REMARK  status: ('A' for Active; 'I' for Inactive)
REMARK    1  A    between atoms: O_3  and  C_9
REMARK    2  A    between atoms: N_5  and  C_8
REMARK    3  A    between atoms: N_5  and  C_13
REMARK    4  A    between atoms: N_6  and  C_12
REMARK    5  A    between atoms: N_7  and  C_18
REMARK    6  A    between atoms: C_10  and  C_12
REMARK    7  A    between atoms: C_13  and  C_14
REMARK    8  A    between atoms: C_18  and  C_21
REMARK    9  A    between atoms: C_18  and  C_22
REMARK                            x       y       z     vdW  Elec       q    Type
REMARK                         _______ _______ _______ _____ _____    ______ ____
ROOT
ATOM      2  O   UNL     1      -1.505  -0.723  25.638  0.00  0.00    -0.371 OA
ATOM      8  C   UNL     1      -3.746  -0.786  24.878  0.00  0.00    +0.111 C 
ATOM      9  C   UNL     1      -2.967  -1.850  24.125  0.00  0.00    +0.164 C 
ATOM     10  C   UNL     1      -1.506  -1.603  24.499  0.00  0.00    +0.165 C 
ATOM     11  C   UNL     1      -2.854  -0.543  26.085  0.00  0.00    +0.181 C 
ENDROOT
BRANCH   9   3
ATOM      3  O   UNL     1      -3.370  -3.125  24.630  0.00  0.00    -0.388 OA
ATOM     25  H   UNL     1      -3.078  -3.797  23.989  0.00  0.00    +0.210 HD
ENDBRANCH   9   3
BRANCH   8   5
ATOM      5  N   UNL     1      -3.893   0.435  24.089  0.00  0.00    -0.305 NA
ATOM     24  H   UNL     1      -3.033   0.607  23.569  0.00  0.00    +0.123 HD
BRANCH   5  13
ATOM     13  C   UNL     1      -4.155   1.585  24.946  0.00  0.00    +0.119 C 
BRANCH  13  14
ATOM      1  F   UNL     1      -4.228   4.062  26.319  0.00  0.00    -0.205 F 
ATOM     14  C   UNL     1      -3.019   2.572  24.921  0.00  0.00    +0.002 A 
ATOM     16  C   UNL     1      -3.121   3.775  25.621  0.00  0.00    +0.128 A 
ATOM     17  C   UNL     1      -1.863   2.284  24.196  0.00  0.00    +0.008 A 
ATOM     19  C   UNL     1      -2.068   4.689  25.595  0.00  0.00    +0.038 A 
ATOM     20  C   UNL     1      -0.808   3.196  24.171  0.00  0.00    +0.000 A 
ATOM     23  C   UNL     1      -0.911   4.399  24.871  0.00  0.00    +0.003 A 
ENDBRANCH  13  14
ENDBRANCH   5  13
ENDBRANCH   8   5
BRANCH  10  12
ATOM     12  C   UNL     1      -0.696  -0.951  23.389  0.00  0.00    +0.140 C 
BRANCH  12   6
ATOM      4  O   UNL     1       1.534  -0.284  21.684  0.00  0.00    -0.253 OA
ATOM      6  N   UNL     1       0.667  -0.749  23.788  0.00  0.00    -0.297 N 
ATOM      7  N   UNL     1       2.914  -0.286  23.548  0.00  0.00    -0.297 N 
ATOM     15  C   UNL     1       1.693  -0.426  22.895  0.00  0.00    +0.300 C 
ATOM     26  H   UNL     1       0.899  -0.853  24.771  0.00  0.00    +0.150 HD
ATOM     27  H   UNL     1       2.958  -0.493  24.542  0.00  0.00    +0.150 HD
BRANCH   7  18
ATOM     18  C   UNL     1       4.139   0.045  22.856  0.00  0.00    +0.068 C 
ATOM     21  C   UNL     1       4.155   1.520  22.476  0.00  0.00    +0.027 C 
ATOM     22  C   UNL     1       5.345  -0.319  23.711  0.00  0.00    +0.027 C 
ENDBRANCH   7  18
ENDBRANCH  12   6
ENDBRANCH  10  12
TORSDOF 7
ENDMDL
MODEL 4
REMARK VINA RESULT:      -5.0      2.244      4.942
REMARK  Name = 75536740
REMARK  9 active torsions:
REMARK  status: ('A' for Active; 'I' for Inactive)
REMARK    1  A    between atoms: O_3  and  C_9
REMARK    2  A    between atoms: N_5  and  C_8
REMARK    3  A    between atoms: N_5  and  C_13
REMARK    4  A    between atoms: N_6  and  C_12
REMARK    5  A    between atoms: N_7  and  C_18
REMARK    6  A    between atoms: C_10  and  C_12
REMARK    7  A    between atoms: C_13  and  C_14
REMARK    8  A    between atoms: C_18  and  C_21
REMARK    9  A    between atoms: C_18  and  C_22
REMARK                            x       y       z     vdW  Elec       q    Type
REMARK                         _______ _______ _______ _____ _____    ______ ____
ROOT
ATOM      2  O   UNL     1      -0.855   3.588  24.070  0.00  0.00    -0.371 OA
ATOM      8  C   UNL     1      -0.116   1.903  25.560  0.00  0.00    +0.111 C 
ATOM      9  C   UNL     1       0.193   1.444  24.146  0.00  0.00    +0.164 C 
ATOM     10  C   UNL     1      -0.502   2.462  23.244  0.00  0.00    +0.165 C 
ATOM     11  C   UNL     1      -0.285   3.402  25.371  0.00  0.00    +0.181 C 
ENDROOT
BRANCH   9   3
ATOM      3  O   UNL     1       1.606   1.539  23.956  0.00  0.00    -0.388 OA
ATOM     25  H   UNL     1       2.031   1.241  24.779  0.00  0.00    +0.210 HD
ENDBRANCH   9   3
BRANCH   8   5
ATOM      5  N   UNL     1      -1.349   1.303  26.065  0.00  0.00    -0.305 NA
ATOM     24  H   UNL     1      -1.686   1.842  26.862  0.00  0.00    +0.123 HD
BRANCH   5  13
ATOM     13  C   UNL     1      -1.125  -0.072  26.496  0.00  0.00    +0.119 C 
BRANCH  13  14
ATOM      1  F   UNL     1       0.081  -1.849  24.650  0.00  0.00    -0.205 F 
ATOM     14  C   UNL     1      -1.910  -1.054  25.668  0.00  0.00    +0.002 A 
ATOM     16  C   UNL     1      -1.252  -1.902  24.776  0.00  0.00    +0.128 A 
ATOM     17  C   UNL     1      -3.298  -1.115  25.792  0.00  0.00    +0.008 A 
ATOM     19  C   UNL     1      -1.981  -2.810  24.010  0.00  0.00    +0.038 A 
ATOM     20  C   UNL     1      -4.028  -2.024  25.026  0.00  0.00    +0.000 A 
ATOM     23  C   UNL     1      -3.370  -2.871  24.135  0.00  0.00    +0.003 A 
ENDBRANCH  13  14
ENDBRANCH   5  13
ENDBRANCH   8   5
BRANCH  10  12
ATOM     12  C   UNL     1      -1.770   1.932  22.592  0.00  0.00    +0.140 C 
BRANCH  12   6
ATOM      4  O   UNL     1      -4.108   3.459  23.316  0.00  0.00    -0.253 OA
ATOM      6  N   UNL     1      -2.756   1.588  23.574  0.00  0.00    -0.297 N 
ATOM      7  N   UNL     1      -4.661   1.815  24.857  0.00  0.00    -0.297 N 
ATOM     15  C   UNL     1      -3.866   2.386  23.867  0.00  0.00    +0.300 C 
ATOM     26  H   UNL     1      -2.638   0.721  24.089  0.00  0.00    +0.150 HD
ATOM     27  H   UNL     1      -4.339   0.960  25.302  0.00  0.00    +0.150 HD
BRANCH   7  18
ATOM     18  C   UNL     1      -5.869   2.437  25.346  0.00  0.00    +0.068 C 
ATOM     21  C   UNL     1      -6.417   1.671  26.543  0.00  0.00    +0.027 C 
ATOM     22  C   UNL     1      -5.609   3.896  25.696  0.00  0.00    +0.027 C 
ENDBRANCH   7  18
ENDBRANCH  12   6
ENDBRANCH  10  12
TORSDOF 7
ENDMDL
MODEL 5
REMARK VINA RESULT:      -4.9      2.206      4.199
REMARK  Name = 75536740
REMARK  9 active torsions:
REMARK  status: ('A' for Active; 'I' for Inactive)
REMARK    1  A    between atoms: O_3  and  C_9
REMARK    2  A    between atoms: N_5  and  C_8
REMARK    3  A    between atoms: N_5  and  C_13
REMARK    4  A    between atoms: N_6  and  C_12
REMARK    5  A    between atoms: N_7  and  C_18
REMARK    6  A    between atoms: C_10  and  C_12
REMARK    7  A    between atoms: C_13  and  C_14
REMARK    8  A    between atoms: C_18  and  C_21
REMARK    9  A    between atoms: C_18  and  C_22
REMARK                            x       y       z     vdW  Elec       q    Type
REMARK                         _______ _______ _______ _____ _____    ______ ____
ROOT
ATOM      2  O   UNL     1      -1.829  -0.147  26.097  0.00  0.00    -0.371 OA
ATOM      8  C   UNL     1      -2.838  -1.711  24.633  0.00  0.00    +0.111 C 
ATOM      9  C   UNL     1      -1.375  -1.585  24.246  0.00  0.00    +0.164 C 
ATOM     10  C   UNL     1      -0.851  -0.413  25.074  0.00  0.00    +0.165 C 
ATOM     11  C   UNL     1      -2.831  -1.170  26.054  0.00  0.00    +0.181 C 
ENDROOT
BRANCH   9   3
ATOM      3  O   UNL     1      -0.710  -2.782  24.656  0.00  0.00    -0.388 OA
ATOM     25  H   UNL     1      -0.370  -3.215  23.855  0.00  0.00    +0.210 HD
ENDBRANCH   9   3
BRANCH   8   5
ATOM      5  N   UNL     1      -3.696  -0.899  23.774  0.00  0.00    -0.305 NA
ATOM     24  H   UNL     1      -3.153  -0.129  23.385  0.00  0.00    +0.123 HD
BRANCH   5  13
ATOM     13  C   UNL     1      -4.816  -0.344  24.525  0.00  0.00    +0.119 C 
BRANCH  13  14
ATOM      1  F   UNL     1      -3.222   1.255  22.815  0.00  0.00    -0.205 F 
ATOM     14  C   UNL     1      -4.714   1.152  24.658  0.00  0.00    +0.002 A 
ATOM     16  C   UNL     1      -3.910   1.880  23.781  0.00  0.00    +0.128 A 
ATOM     17  C   UNL     1      -5.425   1.811  25.662  0.00  0.00    +0.008 A 
ATOM     19  C   UNL     1      -3.817   3.266  23.907  0.00  0.00    +0.038 A 
ATOM     20  C   UNL     1      -5.333   3.197  25.787  0.00  0.00    +0.000 A 
ATOM     23  C   UNL     1      -4.529   3.924  24.910  0.00  0.00    +0.003 A 
ENDBRANCH  13  14
ENDBRANCH   5  13
ENDBRANCH   8   5
BRANCH  10  12
ATOM     12  C   UNL     1      -0.646   0.859  24.266  0.00  0.00    +0.140 C 
BRANCH  12   6
ATOM      4  O   UNL     1       1.377  -0.062  22.426  0.00  0.00    -0.253 OA
ATOM      6  N   UNL     1       0.735   1.243  24.238  0.00  0.00    -0.297 N 
ATOM      7  N   UNL     1       2.924   1.287  23.508  0.00  0.00    -0.297 N 
ATOM     15  C   UNL     1       1.655   0.748  23.309  0.00  0.00    +0.300 C 
ATOM     26  H   UNL     1       1.064   1.903  24.935  0.00  0.00    +0.150 HD
ATOM     27  H   UNL     1       3.071   1.894  24.309  0.00  0.00    +0.150 HD
BRANCH   7  18
ATOM     18  C   UNL     1       4.059   0.941  22.684  0.00  0.00    +0.068 C 
ATOM     21  C   UNL     1       5.085   0.155  23.490  0.00  0.00    +0.027 C 
ATOM     22  C   UNL     1       3.605   0.160  21.458  0.00  0.00    +0.027 C 
ENDBRANCH   7  18
ENDBRANCH  12   6
ENDBRANCH  10  12
TORSDOF 7
ENDMDL
MODEL 6
REMARK VINA RESULT:      -4.9      1.882      2.473
REMARK  Name = 75536740
REMARK  9 active torsions:
REMARK  status: ('A' for Active; 'I' for Inactive)
REMARK    1  A    between atoms: O_3  and  C_9
REMARK    2  A    between atoms: N_5  and  C_8
REMARK    3  A    between atoms: N_5  and  C_13
REMARK    4  A    between atoms: N_6  and  C_12
REMARK    5  A    between atoms: N_7  and  C_18
REMARK    6  A    between atoms: C_10  and  C_12
REMARK    7  A    between atoms: C_13  and  C_14
REMARK    8  A    between atoms: C_18  and  C_21
REMARK    9  A    between atoms: C_18  and  C_22
REMARK                            x       y       z     vdW  Elec       q    Type
REMARK                         _______ _______ _______ _____ _____    ______ ____
ROOT
ATOM      2  O   UNL     1      -3.698   3.525  23.882  0.00  0.00    -0.371 OA
ATOM      8  C   UNL     1      -5.376   2.359  25.078  0.00  0.00    +0.111 C 
ATOM      9  C   UNL     1      -4.990   3.583  25.889  0.00  0.00    +0.164 C 
ATOM     10  C   UNL     1      -3.766   4.155  25.175  0.00  0.00    +0.165 C 
ATOM     11  C   UNL     1      -4.877   2.734  23.691  0.00  0.00    +0.181 C 
ENDROOT
BRANCH   9   3
ATOM      3  O   UNL     1      -6.063   4.522  25.800  0.00  0.00    -0.388 OA
ATOM     25  H   UNL     1      -6.341   4.560  24.868  0.00  0.00    +0.210 HD
ENDBRANCH   9   3
BRANCH   8   5
ATOM      5  N   UNL     1      -4.703   1.156  25.562  0.00  0.00    -0.305 NA
ATOM     24  H   UNL     1      -3.720   1.366  25.736  0.00  0.00    +0.123 HD
BRANCH   5  13
ATOM     13  C   UNL     1      -4.781   0.080  24.580  0.00  0.00    +0.119 C 
BRANCH  13  14
ATOM      1  F   UNL     1      -4.807  -2.498  23.407  0.00  0.00    -0.205 F 
ATOM     14  C   UNL     1      -3.657  -0.907  24.742  0.00  0.00    +0.002 A 
ATOM     16  C   UNL     1      -3.734  -2.162  24.136  0.00  0.00    +0.128 A 
ATOM     17  C   UNL     1      -2.536  -0.568  25.500  0.00  0.00    +0.008 A 
ATOM     19  C   UNL     1      -2.692  -3.076  24.288  0.00  0.00    +0.038 A 
ATOM     20  C   UNL     1      -1.492  -1.481  25.652  0.00  0.00    +0.000 A 
ATOM     23  C   UNL     1      -1.570  -2.735  25.045  0.00  0.00    +0.003 A 
ENDBRANCH  13  14
ENDBRANCH   5  13
ENDBRANCH   8   5
BRANCH  10  12
ATOM     12  C   UNL     1      -2.458   3.890  25.905  0.00  0.00    +0.140 C 
BRANCH  12   6
ATOM      4  O   UNL     1      -0.396   3.627  23.903  0.00  0.00    -0.253 OA
ATOM      6  N   UNL     1      -1.844   2.676  25.451  0.00  0.00    -0.297 N 
ATOM      7  N   UNL     1      -0.428   1.330  24.223  0.00  0.00    -0.297 N 
ATOM     15  C   UNL     1      -0.847   2.634  24.472  0.00  0.00    +0.300 C 
ATOM     26  H   UNL     1      -2.156   1.800  25.857  0.00  0.00    +0.150 HD
ATOM     27  H   UNL     1      -0.910   0.569  24.693  0.00  0.00    +0.150 HD
BRANCH   7  18
ATOM     18  C   UNL     1       0.594   1.007  23.254  0.00  0.00    +0.068 C 
ATOM     21  C   UNL     1       1.955   1.499  23.729  0.00  0.00    +0.027 C 
ATOM     22  C   UNL     1       0.612  -0.491  22.983  0.00  0.00    +0.027 C 
ENDBRANCH   7  18
ENDBRANCH  12   6
ENDBRANCH  10  12
TORSDOF 7
ENDMDL
MODEL 7
REMARK VINA RESULT:      -4.8      2.287      4.411
REMARK  Name = 75536740
REMARK  9 active torsions:
REMARK  status: ('A' for Active; 'I' for Inactive)
REMARK    1  A    between atoms: O_3  and  C_9
REMARK    2  A    between atoms: N_5  and  C_8
REMARK    3  A    between atoms: N_5  and  C_13
REMARK    4  A    between atoms: N_6  and  C_12
REMARK    5  A    between atoms: N_7  and  C_18
REMARK    6  A    between atoms: C_10  and  C_12
REMARK    7  A    between atoms: C_13  and  C_14
REMARK    8  A    between atoms: C_18  and  C_21
REMARK    9  A    between atoms: C_18  and  C_22
REMARK                            x       y       z     vdW  Elec       q    Type
REMARK                         _______ _______ _______ _____ _____    ______ ____
ROOT
ATOM      2  O   UNL     1       0.757   3.231  23.888  0.00  0.00    -0.371 OA
ATOM      8  C   UNL     1      -1.453   3.319  24.734  0.00  0.00    +0.111 C 
ATOM      9  C   UNL     1      -0.733   2.173  25.423  0.00  0.00    +0.164 C 
ATOM     10  C   UNL     1       0.593   2.038  24.676  0.00  0.00    +0.165 C 
ATOM     11  C   UNL     1      -0.289   4.152  24.220  0.00  0.00    +0.181 C 
ENDROOT
BRANCH   9   3
ATOM      3  O   UNL     1      -0.472   2.569  26.771  0.00  0.00    -0.388 OA
ATOM     25  H   UNL     1      -0.452   1.761  27.313  0.00  0.00    +0.210 HD
ENDBRANCH   9   3
BRANCH   8   5
ATOM      5  N   UNL     1      -2.282   2.849  23.627  0.00  0.00    -0.305 NA
ATOM     24  H   UNL     1      -1.844   3.109  22.743  0.00  0.00    +0.123 HD
BRANCH   5  13
ATOM     13  C   UNL     1      -3.612   3.444  23.678  0.00  0.00    +0.119 C 
BRANCH  13  14
ATOM      1  F   UNL     1      -5.394   4.682  25.499  0.00  0.00    -0.205 F 
ATOM     14  C   UNL     1      -4.537   2.669  24.578  0.00  0.00    +0.002 A 
ATOM     16  C   UNL     1      -5.391   3.343  25.453  0.00  0.00    +0.128 A 
ATOM     17  C   UNL     1      -4.541   1.275  24.537  0.00  0.00    +0.008 A 
ATOM     19  C   UNL     1      -6.247   2.623  26.285  0.00  0.00    +0.038 A 
ATOM     20  C   UNL     1      -5.397   0.554  25.370  0.00  0.00    +0.000 A 
ATOM     23  C   UNL     1      -6.250   1.228  26.244  0.00  0.00    +0.003 A 
ENDBRANCH  13  14
ENDBRANCH   5  13
ENDBRANCH   8   5
BRANCH  10  12
ATOM     12  C   UNL     1       0.647   0.838  23.744  0.00  0.00    +0.140 C 
BRANCH  12   6
ATOM      4  O   UNL     1      -0.321  -1.448  25.216  0.00  0.00    -0.253 OA
ATOM      6  N   UNL     1      -0.639   0.213  23.623  0.00  0.00    -0.297 N 
ATOM      7  N   UNL     1      -2.327  -1.298  24.060  0.00  0.00    -0.297 N 
ATOM     15  C   UNL     1      -1.032  -0.896  24.376  0.00  0.00    +0.300 C 
ATOM     26  H   UNL     1      -1.295   0.593  22.948  0.00  0.00    +0.150 HD
ATOM     27  H   UNL     1      -2.808  -0.823  23.302  0.00  0.00    +0.150 HD
BRANCH   7  18
ATOM     18  C   UNL     1      -2.976  -2.422  24.694  0.00  0.00    +0.068 C 
ATOM     21  C   UNL     1      -3.336  -2.087  26.136  0.00  0.00    +0.027 C 
ATOM     22  C   UNL     1      -4.205  -2.840  23.900  0.00  0.00    +0.027 C 
ENDBRANCH   7  18
ENDBRANCH  12   6
ENDBRANCH  10  12
TORSDOF 7
ENDMDL
MODEL 8
REMARK VINA RESULT:      -4.8      2.426      5.098
REMARK  Name = 75536740
REMARK  9 active torsions:
REMARK  status: ('A' for Active; 'I' for Inactive)
REMARK    1  A    between atoms: O_3  and  C_9
REMARK    2  A    between atoms: N_5  and  C_8
REMARK    3  A    between atoms: N_5  and  C_13
REMARK    4  A    between atoms: N_6  and  C_12
REMARK    5  A    between atoms: N_7  and  C_18
REMARK    6  A    between atoms: C_10  and  C_12
REMARK    7  A    between atoms: C_13  and  C_14
REMARK    8  A    between atoms: C_18  and  C_21
REMARK    9  A    between atoms: C_18  and  C_22
REMARK                            x       y       z     vdW  Elec       q    Type
REMARK                         _______ _______ _______ _____ _____    ______ ____
ROOT
ATOM      2  O   UNL     1      -1.256  -0.567  26.104  0.00  0.00    -0.371 OA
ATOM      8  C   UNL     1      -2.946  -1.563  24.777  0.00  0.00    +0.111 C 
ATOM      9  C   UNL     1      -1.604  -2.084  24.294  0.00  0.00    +0.164 C 
ATOM     10  C   UNL     1      -0.567  -1.242  25.035  0.00  0.00    +0.165 C 
ATOM     11  C   UNL     1      -2.601  -1.059  26.169  0.00  0.00    +0.181 C 
ENDROOT
BRANCH   9   3
ATOM      3  O   UNL     1      -1.488  -3.445  24.714  0.00  0.00    -0.388 OA
ATOM     25  H   UNL     1      -2.332  -3.695  25.128  0.00  0.00    +0.210 HD
ENDBRANCH   9   3
BRANCH   8   5
ATOM      5  N   UNL     1      -3.435  -0.471  23.938  0.00  0.00    -0.305 NA
ATOM     24  H   UNL     1      -2.895   0.372  24.132  0.00  0.00    +0.123 HD
BRANCH   5  13
ATOM     13  C   UNL     1      -4.841  -0.193  24.206  0.00  0.00    +0.119 C 
BRANCH  13  14
ATOM      1  F   UNL     1      -3.590   2.021  22.959  0.00  0.00    -0.205 F 
ATOM     14  C   UNL     1      -5.056   1.229  24.650  0.00  0.00    +0.002 A 
ATOM     16  C   UNL     1      -4.407   2.274  23.990  0.00  0.00    +0.128 A 
ATOM     17  C   UNL     1      -5.904   1.502  25.723  0.00  0.00    +0.008 A 
ATOM     19  C   UNL     1      -4.607   3.591  24.404  0.00  0.00    +0.038 A 
ATOM     20  C   UNL     1      -6.105   2.819  26.136  0.00  0.00    +0.000 A 
ATOM     23  C   UNL     1      -5.457   3.864  25.477  0.00  0.00    +0.003 A 
ENDBRANCH  13  14
ENDBRANCH   5  13
ENDBRANCH   8   5
BRANCH  10  12
ATOM     12  C   UNL     1       0.102  -0.192  24.160  0.00  0.00    +0.140 C 
BRANCH  12   6
ATOM      4  O   UNL     1       0.635   2.200  25.683  0.00  0.00    -0.253 OA
ATOM      6  N   UNL     1      -0.650   1.029  24.143  0.00  0.00    -0.297 N 
ATOM      7  N   UNL     1      -1.219   3.193  24.704  0.00  0.00    -0.297 N 
ATOM     15  C   UNL     1      -0.324   2.147  24.914  0.00  0.00    +0.300 C 
ATOM     26  H   UNL     1      -1.468   1.080  23.543  0.00  0.00    +0.150 HD
ATOM     27  H   UNL     1      -2.021   3.029  24.103  0.00  0.00    +0.150 HD
BRANCH   7  18
ATOM     18  C   UNL     1      -1.109   4.466  25.379  0.00  0.00    +0.068 C 
ATOM     21  C   UNL     1      -0.550   5.524  24.438  0.00  0.00    +0.027 C 
ATOM     22  C   UNL     1      -2.460   4.885  25.941  0.00  0.00    +0.027 C 
ENDBRANCH   7  18
ENDBRANCH  12   6
ENDBRANCH  10  12
TORSDOF 7
ENDMDL
MODEL 9
REMARK VINA RESULT:      -4.0      2.618      3.573
REMARK  Name = 75536740
REMARK  9 active torsions:
REMARK  status: ('A' for Active; 'I' for Inactive)
REMARK    1  A    between atoms: O_3  and  C_9
REMARK    2  A    between atoms: N_5  and  C_8
REMARK    3  A    between atoms: N_5  and  C_13
REMARK    4  A    between atoms: N_6  and  C_12
REMARK    5  A    between atoms: N_7  and  C_18
REMARK    6  A    between atoms: C_10  and  C_12
REMARK    7  A    between atoms: C_13  and  C_14
REMARK    8  A    between atoms: C_18  and  C_21
REMARK    9  A    between atoms: C_18  and  C_22
REMARK                            x       y       z     vdW  Elec       q    Type
REMARK                         _______ _______ _______ _____ _____    ______ ____
ROOT
ATOM      2  O   UNL     1      -3.363   3.953  23.682  0.00  0.00    -0.371 OA
ATOM      8  C   UNL     1      -4.894   2.363  24.538  0.00  0.00    +0.111 C 
ATOM      9  C   UNL     1      -4.101   2.925  25.706  0.00  0.00    +0.164 C 
ATOM     10  C   UNL     1      -2.999   3.764  25.062  0.00  0.00    +0.165 C 
ATOM     11  C   UNL     1      -4.680   3.429  23.476  0.00  0.00    +0.181 C 
ENDROOT
BRANCH   9   3
ATOM      3  O   UNL     1      -4.969   3.783  26.449  0.00  0.00    -0.388 OA
ATOM     25  H   UNL     1      -5.374   3.247  27.153  0.00  0.00    +0.210 HD
ENDBRANCH   9   3
BRANCH   8   5
ATOM      5  N   UNL     1      -4.363   1.076  24.094  0.00  0.00    -0.305 NA
ATOM     24  H   UNL     1      -4.970   0.692  23.370  0.00  0.00    +0.123 HD
BRANCH   5  13
ATOM     13  C   UNL     1      -4.299   0.126  25.199  0.00  0.00    +0.119 C 
BRANCH  13  14
ATOM      1  F   UNL     1      -4.424  -2.380  23.885  0.00  0.00    -0.205 F 
ATOM     14  C   UNL     1      -3.116  -0.797  25.075  0.00  0.00    +0.002 A 
ATOM     16  C   UNL     1      -3.247  -2.019  24.414  0.00  0.00    +0.128 A 
ATOM     17  C   UNL     1      -1.887  -0.430  25.624  0.00  0.00    +0.008 A 
ATOM     19  C   UNL     1      -2.151  -2.873  24.302  0.00  0.00    +0.038 A 
ATOM     20  C   UNL     1      -0.789  -1.283  25.511  0.00  0.00    +0.000 A 
ATOM     23  C   UNL     1      -0.921  -2.505  24.850  0.00  0.00    +0.003 A 
ENDBRANCH  13  14
ENDBRANCH   5  13
ENDBRANCH   8   5
BRANCH  10  12
ATOM     12  C   UNL     1      -1.628   3.108  25.109  0.00  0.00    +0.140 C 
BRANCH  12   6
ATOM      4  O   UNL     1       0.974   2.181  25.944  0.00  0.00    -0.253 OA
ATOM      6  N   UNL     1      -1.109   3.078  26.446  0.00  0.00    -0.297 N 
ATOM      7  N   UNL     1       0.414   2.695  28.136  0.00  0.00    -0.297 N 
ATOM     15  C   UNL     1       0.168   2.611  26.769  0.00  0.00    +0.300 C 
ATOM     26  H   UNL     1      -1.706   3.406  27.199  0.00  0.00    +0.150 HD
ATOM     27  H   UNL     1      -0.340   2.998  28.745  0.00  0.00    +0.150 HD
BRANCH   7  18
ATOM     18  C   UNL     1       1.661   2.277  28.735  0.00  0.00    +0.068 C 
ATOM     21  C   UNL     1       2.732   3.342  28.538  0.00  0.00    +0.027 C 
ATOM     22  C   UNL     1       1.459   1.963  30.211  0.00  0.00    +0.027 C 
ENDBRANCH   7  18
ENDBRANCH  12   6
ENDBRANCH  10  12
TORSDOF 7
ENDMDL
MODEL 10
REMARK VINA RESULT:      -2.5     15.844     17.833
REMARK  Name = 75536740
REMARK  9 active torsions:
REMARK  status: ('A' for Active; 'I' for Inactive)
REMARK    1  A    between atoms: O_3  and  C_9
REMARK    2  A    between atoms: N_5  and  C_8
REMARK    3  A    between atoms: N_5  and  C_13
REMARK    4  A    between atoms: N_6  and  C_12
REMARK    5  A    between atoms: N_7  and  C_18
REMARK    6  A    between atoms: C_10  and  C_12
REMARK    7  A    between atoms: C_13  and  C_14
REMARK    8  A    between atoms: C_18  and  C_21
REMARK    9  A    between atoms: C_18  and  C_22
REMARK                            x       y       z     vdW  Elec       q    Type
REMARK                         _______ _______ _______ _____ _____    ______ ____
ROOT
ATOM      2  O   UNL     1      -5.329  -8.683  11.797  0.00  0.00    -0.371 OA
ATOM      8  C   UNL     1      -7.449  -9.661  11.402  0.00  0.00    +0.111 C 
ATOM      9  C   UNL     1      -6.593 -10.679  12.135  0.00  0.00    +0.164 C 
ATOM     10  C   UNL     1      -5.192 -10.071  12.156  0.00  0.00    +0.165 C 
ATOM     11  C   UNL     1      -6.723  -8.362  11.716  0.00  0.00    +0.181 C 
ENDROOT
BRANCH   9   3
ATOM      3  O   UNL     1      -7.081 -10.777  13.474  0.00  0.00    -0.388 OA
ATOM     25  H   UNL     1      -7.208 -11.721  13.670  0.00  0.00    +0.210 HD
ENDBRANCH   9   3
BRANCH   8   5
ATOM      5  N   UNL     1      -7.469  -9.908   9.962  0.00  0.00    -0.305 NA
ATOM     24  H   UNL     1      -6.839  -9.254   9.498  0.00  0.00    +0.123 HD
BRANCH   5  13
ATOM     13  C   UNL     1      -8.809  -9.726   9.418  0.00  0.00    +0.119 C 
BRANCH  13  14
ATOM      1  F   UNL     1      -6.928  -8.051   8.124  0.00  0.00    -0.205 F 
ATOM     14  C   UNL     1      -9.086  -8.285   9.082  0.00  0.00    +0.002 A 
ATOM     16  C   UNL     1      -8.114  -7.515   8.443  0.00  0.00    +0.128 A 
ATOM     17  C   UNL     1     -10.317  -7.718   9.412  0.00  0.00    +0.008 A 
ATOM     19  C   UNL     1      -8.372  -6.181   8.134  0.00  0.00    +0.038 A 
ATOM     20  C   UNL     1     -10.577  -6.383   9.102  0.00  0.00    +0.000 A 
ATOM     23  C   UNL     1      -9.605  -5.614   8.463  0.00  0.00    +0.003 A 
ENDBRANCH  13  14
ENDBRANCH   5  13
ENDBRANCH   8   5
BRANCH  10  12
ATOM     12  C   UNL     1      -4.229 -10.725  11.177  0.00  0.00    +0.140 C 
BRANCH  12   6
ATOM      4  O   UNL     1      -1.700 -10.554  12.555  0.00  0.00    -0.253 OA
ATOM      6  N   UNL     1      -3.132  -9.856  10.864  0.00  0.00    -0.297 N 
ATOM      7  N   UNL     1      -1.042  -8.899  11.068  0.00  0.00    -0.297 N 
ATOM     15  C   UNL     1      -1.935  -9.834  11.585  0.00  0.00    +0.300 C 
ATOM     26  H   UNL     1      -3.234  -9.217  10.082  0.00  0.00    +0.150 HD
ATOM     27  H   UNL     1      -1.355  -8.302  10.308  0.00  0.00    +0.150 HD
BRANCH   7  18
ATOM     18  C   UNL     1       0.270  -8.675  11.629  0.00  0.00    +0.068 C 
ATOM     21  C   UNL     1       1.302  -8.504  10.523  0.00  0.00    +0.027 C 
ATOM     22  C   UNL     1       0.249  -7.468  12.557  0.00  0.00    +0.027 C 
ENDBRANCH   7  18
ENDBRANCH  12   6
ENDBRANCH  10  12
TORSDOF 7
ENDMDL
