MODEL 1
REMARK VINA RESULT:      -1.6      0.000      0.000
REMARK  Name = 38026621
REMARK  12 active torsions:
REMARK  status: ('A' for Active; 'I' for Inactive)
REMARK    1  A    between atoms: O_5  and  C_13
REMARK    2  A    between atoms: O_6  and  C_16
REMARK    3  A    between atoms: N_8  and  C_11
REMARK    4  A    between atoms: N_8  and  C_17
REMARK    5  A    between atoms: N_8  and  C_18
REMARK    6  A    between atoms: N_9  and  C_15
REMARK    7  A    between atoms: C_12  and  C_15
REMARK    8  A    between atoms: C_14  and  C_16
REMARK    9  A    between atoms: C_17  and  C_19
REMARK   10  A    between atoms: C_19  and  C_20
REMARK   11  A    between atoms: C_21  and  C_22
REMARK   12  A    between atoms: C_31  and  C_32
REMARK                            x       y       z     vdW  Elec       q    Type
REMARK                         _______ _______ _______ _____ _____    ______ ____
ROOT
ATOM      4  O   UNL     1      -1.461   3.386  25.521  0.00  0.00    -0.365 OA
ATOM     11  C   UNL     1      -3.654   2.458  25.497  0.00  0.00    +0.118 C 
ATOM     12  C   UNL     1      -2.164   2.139  25.321  0.00  0.00    +0.155 C 
ATOM     13  C   UNL     1      -3.733   3.934  25.140  0.00  0.00    +0.165 C 
ATOM     14  C   UNL     1      -2.423   4.438  25.734  0.00  0.00    +0.174 C 
ENDROOT
BRANCH  13   5
ATOM      5  O   UNL     1      -3.745   4.128  23.731  0.00  0.00    -0.388 OA
ATOM     33  H   UNL     1      -4.493   3.620  23.371  0.00  0.00    +0.210 HD
ENDBRANCH  13   5
BRANCH  11   8
ATOM      8  N   UNL     1      -4.583   1.597  24.786  0.00  0.00    -0.297 NA
ATOM     18  C   UNL     1      -5.904   2.224  24.689  0.00  0.00    +0.105 C 
BRANCH   8  17
ATOM     17  C   UNL     1      -4.694   0.291  25.446  0.00  0.00    +0.090 C 
BRANCH  17  19
ATOM     19  C   UNL     1      -4.326  -0.840  24.486  0.00  0.00    +0.071 C 
BRANCH  19  20
ATOM     10  N   UNL     1      -2.279  -0.822  25.805  0.00  0.00    -0.260 NA
ATOM     20  C   UNL     1      -2.952  -1.389  24.778  0.00  0.00    +0.042 A 
ATOM     23  C   UNL     1      -2.456  -2.423  24.001  0.00  0.00    +0.023 A 
ATOM     26  C   UNL     1      -1.187  -2.907  24.297  0.00  0.00    +0.003 A 
ATOM     27  C   UNL     1      -1.049  -1.319  26.063  0.00  0.00    +0.111 A 
ATOM     28  C   UNL     1      -0.463  -2.351  25.346  0.00  0.00    +0.020 A 
ENDBRANCH  19  20
ENDBRANCH  17  19
ENDBRANCH   8  17
ENDBRANCH  11   8
BRANCH  12  15
ATOM     15  C   UNL     1      -1.737   1.593  23.963  0.00  0.00    +0.137 C 
BRANCH  15   9
ATOM      7  O   UNL     1      -0.362  -0.258  22.251  0.00  0.00    -0.270 OA
ATOM      9  N   UNL     1      -0.326   1.348  23.925  0.00  0.00    -0.309 N 
ATOM     21  C   UNL     1       0.259   0.428  23.059  0.00  0.00    +0.244 C 
ATOM     34  H   UNL     1       0.237   1.832  24.617  0.00  0.00    +0.149 HD
BRANCH  21  22
ATOM     22  C   UNL     1       1.732   0.272  23.162  0.00  0.00    +0.037 A 
ATOM     24  C   UNL     1       2.567   1.371  22.955  0.00  0.00    +0.013 A 
ATOM     25  C   UNL     1       2.281  -0.974  23.467  0.00  0.00    +0.013 A 
ATOM     29  C   UNL     1       3.951   1.222  23.052  0.00  0.00    +0.013 A 
ATOM     30  C   UNL     1       3.665  -1.121  23.564  0.00  0.00    +0.013 A 
ATOM     31  C   UNL     1       4.500  -0.023  23.356  0.00  0.00    +0.055 A 
BRANCH  31  32
ATOM      1  F   UNL     1       6.561  -0.656  22.318  0.00  0.00    -0.166 F 
ATOM      2  F   UNL     1       6.349  -1.045  24.447  0.00  0.00    -0.166 F 
ATOM      3  F   UNL     1       6.635   0.988  23.732  0.00  0.00    -0.166 F 
ATOM     32  C   UNL     1       5.979  -0.179  23.459  0.00  0.00    +0.417 C 
ENDBRANCH  31  32
ENDBRANCH  21  22
ENDBRANCH  15   9
ENDBRANCH  12  15
BRANCH  14  16
ATOM     16  C   UNL     1      -1.891   5.730  25.141  0.00  0.00    +0.190 C 
BRANCH  16   6
ATOM      6  O   UNL     1      -0.547   5.530  24.736  0.00  0.00    -0.392 OA
ATOM     35  H   UNL     1      -0.570   5.095  23.867  0.00  0.00    +0.210 HD
ENDBRANCH  16   6
ENDBRANCH  14  16
TORSDOF 11
ENDMDL
MODEL 2
REMARK VINA RESULT:      -1.4      4.599      7.426
REMARK  Name = 38026621
REMARK  12 active torsions:
REMARK  status: ('A' for Active; 'I' for Inactive)
REMARK    1  A    between atoms: O_5  and  C_13
REMARK    2  A    between atoms: O_6  and  C_16
REMARK    3  A    between atoms: N_8  and  C_11
REMARK    4  A    between atoms: N_8  and  C_17
REMARK    5  A    between atoms: N_8  and  C_18
REMARK    6  A    between atoms: N_9  and  C_15
REMARK    7  A    between atoms: C_12  and  C_15
REMARK    8  A    between atoms: C_14  and  C_16
REMARK    9  A    between atoms: C_17  and  C_19
REMARK   10  A    between atoms: C_19  and  C_20
REMARK   11  A    between atoms: C_21  and  C_22
REMARK   12  A    between atoms: C_31  and  C_32
REMARK                            x       y       z     vdW  Elec       q    Type
REMARK                         _______ _______ _______ _____ _____    ______ ____
ROOT
ATOM      4  O   UNL     1       3.412   1.606  23.028  0.00  0.00    -0.365 OA
ATOM     11  C   UNL     1       1.671   0.065  22.520  0.00  0.00    +0.118 C 
ATOM     12  C   UNL     1       1.985   1.423  23.159  0.00  0.00    +0.155 C 
ATOM     13  C   UNL     1       2.981  -0.693  22.663  0.00  0.00    +0.165 C 
ATOM     14  C   UNL     1       3.983   0.430  22.422  0.00  0.00    +0.174 C 
ENDROOT
BRANCH  13   5
ATOM      5  O   UNL     1       3.136  -1.222  23.974  0.00  0.00    -0.388 OA
ATOM     33  H   UNL     1       3.213  -0.471  24.587  0.00  0.00    +0.210 HD
ENDBRANCH  13   5
BRANCH  11   8
ATOM      8  N   UNL     1       0.497  -0.626  23.025  0.00  0.00    -0.297 NA
ATOM     18  C   UNL     1      -0.730  -0.027  22.493  0.00  0.00    +0.105 C 
BRANCH   8  17
ATOM     17  C   UNL     1       0.470  -0.608  24.492  0.00  0.00    +0.090 C 
BRANCH  17  19
ATOM     19  C   UNL     1      -0.208  -1.861  25.043  0.00  0.00    +0.071 C 
BRANCH  19  20
ATOM     10  N   UNL     1      -2.309  -2.710  24.151  0.00  0.00    -0.260 NA
ATOM     20  C   UNL     1      -1.709  -1.776  24.922  0.00  0.00    +0.042 A 
ATOM     23  C   UNL     1      -2.388  -0.770  25.592  0.00  0.00    +0.023 A 
ATOM     26  C   UNL     1      -3.770  -0.720  25.461  0.00  0.00    +0.003 A 
ATOM     27  C   UNL     1      -3.655  -2.629  24.047  0.00  0.00    +0.111 A 
ATOM     28  C   UNL     1      -4.424  -1.663  24.677  0.00  0.00    +0.020 A 
ENDBRANCH  19  20
ENDBRANCH  17  19
ENDBRANCH   8  17
ENDBRANCH  11   8
BRANCH  12  15
ATOM     15  C   UNL     1       1.644   1.579  24.638  0.00  0.00    +0.137 C 
BRANCH  15   9
ATOM      7  O   UNL     1       0.110   3.917  23.986  0.00  0.00    -0.270 OA
ATOM      9  N   UNL     1       0.235   1.758  24.826  0.00  0.00    -0.309 N 
ATOM     21  C   UNL     1      -0.430   2.931  24.480  0.00  0.00    +0.244 C 
ATOM     34  H   UNL     1      -0.259   1.007  25.296  0.00  0.00    +0.149 HD
BRANCH  21  22
ATOM     22  C   UNL     1      -1.888   2.969  24.764  0.00  0.00    +0.037 A 
ATOM     24  C   UNL     1      -2.789   2.388  23.870  0.00  0.00    +0.013 A 
ATOM     25  C   UNL     1      -2.356   3.584  25.925  0.00  0.00    +0.013 A 
ATOM     29  C   UNL     1      -4.157   2.425  24.137  0.00  0.00    +0.013 A 
ATOM     30  C   UNL     1      -3.725   3.619  26.192  0.00  0.00    +0.013 A 
ATOM     31  C   UNL     1      -4.625   3.040  25.297  0.00  0.00    +0.055 A 
BRANCH  31  32
ATOM      1  F   UNL     1      -6.843   2.411  24.658  0.00  0.00    -0.166 F 
ATOM      2  F   UNL     1      -6.586   4.348  25.613  0.00  0.00    -0.166 F 
ATOM      3  F   UNL     1      -6.427   2.523  26.784  0.00  0.00    -0.166 F 
ATOM     32  C   UNL     1      -6.089   3.078  25.582  0.00  0.00    +0.417 C 
ENDBRANCH  31  32
ENDBRANCH  21  22
ENDBRANCH  15   9
ENDBRANCH  12  15
BRANCH  14  16
ATOM     16  C   UNL     1       5.372   0.199  22.988  0.00  0.00    +0.190 C 
BRANCH  16   6
ATOM      6  O   UNL     1       5.346   0.446  24.385  0.00  0.00    -0.392 OA
ATOM     35  H   UNL     1       5.563   1.384  24.515  0.00  0.00    +0.210 HD
ENDBRANCH  16   6
ENDBRANCH  14  16
TORSDOF 11
ENDMDL
MODEL 3
REMARK VINA RESULT:      -1.3      1.486      2.239
REMARK  Name = 38026621
REMARK  12 active torsions:
REMARK  status: ('A' for Active; 'I' for Inactive)
REMARK    1  A    between atoms: O_5  and  C_13
REMARK    2  A    between atoms: O_6  and  C_16
REMARK    3  A    between atoms: N_8  and  C_11
REMARK    4  A    between atoms: N_8  and  C_17
REMARK    5  A    between atoms: N_8  and  C_18
REMARK    6  A    between atoms: N_9  and  C_15
REMARK    7  A    between atoms: C_12  and  C_15
REMARK    8  A    between atoms: C_14  and  C_16
REMARK    9  A    between atoms: C_17  and  C_19
REMARK   10  A    between atoms: C_19  and  C_20
REMARK   11  A    between atoms: C_21  and  C_22
REMARK   12  A    between atoms: C_31  and  C_32
REMARK                            x       y       z     vdW  Elec       q    Type
REMARK                         _______ _______ _______ _____ _____    ______ ____
ROOT
ATOM      4  O   UNL     1      -0.583   1.178  26.001  0.00  0.00    -0.365 OA
ATOM     11  C   UNL     1      -2.496   2.431  25.338  0.00  0.00    +0.118 C 
ATOM     12  C   UNL     1      -1.698   1.146  25.083  0.00  0.00    +0.155 C 
ATOM     13  C   UNL     1      -1.448   3.379  25.898  0.00  0.00    +0.165 C 
ATOM     14  C   UNL     1      -0.616   2.417  26.737  0.00  0.00    +0.174 C 
ENDROOT
BRANCH  13   5
ATOM      5  O   UNL     1      -0.654   3.947  24.863  0.00  0.00    -0.388 OA
ATOM     33  H   UNL     1      -0.686   3.342  24.102  0.00  0.00    +0.210 HD
ENDBRANCH  13   5
BRANCH  11   8
ATOM      8  N   UNL     1      -3.261   2.945  24.215  0.00  0.00    -0.297 NA
ATOM     18  C   UNL     1      -3.856   4.244  24.541  0.00  0.00    +0.105 C 
BRANCH   8  17
ATOM     17  C   UNL     1      -4.309   1.998  23.820  0.00  0.00    +0.090 C 
BRANCH  17  19
ATOM     19  C   UNL     1      -4.775   1.166  25.016  0.00  0.00    +0.071 C 
BRANCH  19  20
ATOM     10  N   UNL     1      -3.749  -0.811  26.001  0.00  0.00    -0.260 NA
ATOM     20  C   UNL     1      -4.321  -0.268  24.903  0.00  0.00    +0.042 A 
ATOM     23  C   UNL     1      -4.506  -0.946  23.709  0.00  0.00    +0.023 A 
ATOM     26  C   UNL     1      -4.078  -2.266  23.638  0.00  0.00    +0.003 A 
ATOM     27  C   UNL     1      -3.345  -2.096  25.894  0.00  0.00    +0.111 A 
ATOM     28  C   UNL     1      -3.486  -2.860  24.746  0.00  0.00    +0.020 A 
ENDBRANCH  19  20
ENDBRANCH  17  19
ENDBRANCH   8  17
ENDBRANCH  11   8
BRANCH  12  15
ATOM     15  C   UNL     1      -1.123   0.964  23.681  0.00  0.00    +0.137 C 
BRANCH  15   9
ATOM      7  O   UNL     1       0.488  -0.577  21.872  0.00  0.00    -0.270 OA
ATOM      9  N   UNL     1       0.300   0.808  23.724  0.00  0.00    -0.309 N 
ATOM     21  C   UNL     1       1.004   0.037  22.802  0.00  0.00    +0.244 C 
ATOM     34  H   UNL     1       0.780   1.233  24.510  0.00  0.00    +0.149 HD
BRANCH  21  22
ATOM     22  C   UNL     1       2.474  -0.045  22.999  0.00  0.00    +0.037 A 
ATOM     24  C   UNL     1       3.282   1.051  22.695  0.00  0.00    +0.013 A 
ATOM     25  C   UNL     1       3.046  -1.219  23.489  0.00  0.00    +0.013 A 
ATOM     29  C   UNL     1       4.662   0.972  22.880  0.00  0.00    +0.013 A 
ATOM     30  C   UNL     1       4.426  -1.297  23.674  0.00  0.00    +0.013 A 
ATOM     31  C   UNL     1       5.234  -0.202  23.370  0.00  0.00    +0.055 A 
BRANCH  31  32
ATOM      1  F   UNL     1       7.297   0.923  23.825  0.00  0.00    -0.166 F 
ATOM      2  F   UNL     1       7.360  -0.781  22.475  0.00  0.00    -0.166 F 
ATOM      3  F   UNL     1       7.078  -1.088  24.609  0.00  0.00    -0.166 F 
ATOM     32  C   UNL     1       6.710  -0.284  23.567  0.00  0.00    +0.417 C 
ENDBRANCH  31  32
ENDBRANCH  21  22
ENDBRANCH  15   9
ENDBRANCH  12  15
BRANCH  14  16
ATOM     16  C   UNL     1       0.805   2.864  27.028  0.00  0.00    +0.190 C 
BRANCH  16   6
ATOM      6  O   UNL     1       1.144   2.482  28.351  0.00  0.00    -0.392 OA
ATOM     35  H   UNL     1       1.110   1.512  28.388  0.00  0.00    +0.210 HD
ENDBRANCH  16   6
ENDBRANCH  14  16
TORSDOF 11
ENDMDL
MODEL 4
REMARK VINA RESULT:      -1.0      1.774      4.338
REMARK  Name = 38026621
REMARK  12 active torsions:
REMARK  status: ('A' for Active; 'I' for Inactive)
REMARK    1  A    between atoms: O_5  and  C_13
REMARK    2  A    between atoms: O_6  and  C_16
REMARK    3  A    between atoms: N_8  and  C_11
REMARK    4  A    between atoms: N_8  and  C_17
REMARK    5  A    between atoms: N_8  and  C_18
REMARK    6  A    between atoms: N_9  and  C_15
REMARK    7  A    between atoms: C_12  and  C_15
REMARK    8  A    between atoms: C_14  and  C_16
REMARK    9  A    between atoms: C_17  and  C_19
REMARK   10  A    between atoms: C_19  and  C_20
REMARK   11  A    between atoms: C_21  and  C_22
REMARK   12  A    between atoms: C_31  and  C_32
REMARK                            x       y       z     vdW  Elec       q    Type
REMARK                         _______ _______ _______ _____ _____    ______ ____
ROOT
ATOM      4  O   UNL     1      -3.533  -1.670  23.776  0.00  0.00    -0.365 OA
ATOM     11  C   UNL     1      -4.639  -0.295  25.374  0.00  0.00    +0.118 C 
ATOM     12  C   UNL     1      -4.355  -0.486  23.879  0.00  0.00    +0.155 C 
ATOM     13  C   UNL     1      -3.454  -0.977  26.038  0.00  0.00    +0.165 C 
ATOM     14  C   UNL     1      -3.248  -2.161  25.101  0.00  0.00    +0.174 C 
ENDROOT
BRANCH  13   5
ATOM      5  O   UNL     1      -2.305  -0.139  26.038  0.00  0.00    -0.388 OA
ATOM     33  H   UNL     1      -2.076   0.047  26.965  0.00  0.00    +0.210 HD
ENDBRANCH  13   5
BRANCH  11   8
ATOM      8  N   UNL     1      -4.896   1.067  25.810  0.00  0.00    -0.297 NA
ATOM     18  C   UNL     1      -6.174   1.155  26.521  0.00  0.00    +0.105 C 
BRANCH   8  17
ATOM     17  C   UNL     1      -4.891   1.990  24.670  0.00  0.00    +0.090 C 
BRANCH  17  19
ATOM     19  C   UNL     1      -4.655   3.428  25.131  0.00  0.00    +0.071 C 
BRANCH  19  20
ATOM     10  N   UNL     1      -2.422   2.767  25.842  0.00  0.00    -0.260 NA
ATOM     20  C   UNL     1      -3.184   3.729  25.276  0.00  0.00    +0.042 A 
ATOM     23  C   UNL     1      -2.694   4.946  24.831  0.00  0.00    +0.023 A 
ATOM     26  C   UNL     1      -1.334   5.192  24.978  0.00  0.00    +0.003 A 
ATOM     27  C   UNL     1      -1.104   3.042  25.968  0.00  0.00    +0.111 A 
ATOM     28  C   UNL     1      -0.517   4.227  25.555  0.00  0.00    +0.020 A 
ENDBRANCH  19  20
ENDBRANCH  17  19
ENDBRANCH   8  17
ENDBRANCH  11   8
BRANCH  12  15
ATOM     15  C   UNL     1      -3.609   0.644  23.175  0.00  0.00    +0.137 C 
BRANCH  15   9
ATOM      7  O   UNL     1      -1.574   2.561  22.523  0.00  0.00    -0.270 OA
ATOM      9  N   UNL     1      -2.192   0.440  23.231  0.00  0.00    -0.309 N 
ATOM     21  C   UNL     1      -1.272   1.429  22.895  0.00  0.00    +0.244 C 
ATOM     34  H   UNL     1      -1.878  -0.496  23.464  0.00  0.00    +0.149 HD
BRANCH  21  22
ATOM     22  C   UNL     1       0.161   1.051  22.980  0.00  0.00    +0.037 A 
ATOM     24  C   UNL     1       0.633  -0.062  22.283  0.00  0.00    +0.013 A 
ATOM     25  C   UNL     1       1.036   1.809  23.758  0.00  0.00    +0.013 A 
ATOM     29  C   UNL     1       1.979  -0.416  22.365  0.00  0.00    +0.013 A 
ATOM     30  C   UNL     1       2.383   1.455  23.838  0.00  0.00    +0.013 A 
ATOM     31  C   UNL     1       2.854   0.342  23.142  0.00  0.00    +0.055 A 
BRANCH  31  32
ATOM      1  F   UNL     1       4.961   0.070  22.040  0.00  0.00    -0.166 F 
ATOM      2  F   UNL     1       4.474  -1.329  23.632  0.00  0.00    -0.166 F 
ATOM      3  F   UNL     1       5.009   0.723  24.108  0.00  0.00    -0.166 F 
ATOM     32  C   UNL     1       4.294  -0.039  23.228  0.00  0.00    +0.417 C 
ENDBRANCH  31  32
ENDBRANCH  21  22
ENDBRANCH  15   9
ENDBRANCH  12  15
BRANCH  14  16
ATOM     16  C   UNL     1      -1.861  -2.776  25.119  0.00  0.00    +0.190 C 
BRANCH  16   6
ATOM      6  O   UNL     1      -0.958  -1.890  24.478  0.00  0.00    -0.392 OA
ATOM     35  H   UNL     1      -0.493  -1.399  25.176  0.00  0.00    +0.210 HD
ENDBRANCH  16   6
ENDBRANCH  14  16
TORSDOF 11
ENDMDL
MODEL 5
REMARK VINA RESULT:       1.3      1.750      4.421
REMARK  Name = 38026621
REMARK  12 active torsions:
REMARK  status: ('A' for Active; 'I' for Inactive)
REMARK    1  A    between atoms: O_5  and  C_13
REMARK    2  A    between atoms: O_6  and  C_16
REMARK    3  A    between atoms: N_8  and  C_11
REMARK    4  A    between atoms: N_8  and  C_17
REMARK    5  A    between atoms: N_8  and  C_18
REMARK    6  A    between atoms: N_9  and  C_15
REMARK    7  A    between atoms: C_12  and  C_15
REMARK    8  A    between atoms: C_14  and  C_16
REMARK    9  A    between atoms: C_17  and  C_19
REMARK   10  A    between atoms: C_19  and  C_20
REMARK   11  A    between atoms: C_21  and  C_22
REMARK   12  A    between atoms: C_31  and  C_32
REMARK                            x       y       z     vdW  Elec       q    Type
REMARK                         _______ _______ _______ _____ _____    ______ ____
ROOT
ATOM      4  O   UNL     1      -2.479  -0.908  23.747  0.00  0.00    -0.365 OA
ATOM     11  C   UNL     1      -4.335   0.441  24.381  0.00  0.00    +0.118 C 
ATOM     12  C   UNL     1      -2.826   0.448  24.107  0.00  0.00    +0.155 C 
ATOM     13  C   UNL     1      -4.604  -0.999  24.787  0.00  0.00    +0.165 C 
ATOM     14  C   UNL     1      -3.653  -1.737  23.852  0.00  0.00    +0.174 C 
ENDROOT
BRANCH  13   5
ATOM      5  O   UNL     1      -4.245  -1.232  26.144  0.00  0.00    -0.388 OA
ATOM     33  H   UNL     1      -5.058  -1.461  26.627  0.00  0.00    +0.210 HD
ENDBRANCH  13   5
BRANCH  11   8
ATOM      8  N   UNL     1      -4.824   1.448  25.307  0.00  0.00    -0.297 NA
ATOM     18  C   UNL     1      -6.255   1.266  25.568  0.00  0.00    +0.105 C 
BRANCH   8  17
ATOM     17  C   UNL     1      -4.576   2.798  24.789  0.00  0.00    +0.090 C 
BRANCH  17  19
ATOM     19  C   UNL     1      -4.017   3.709  25.881  0.00  0.00    +0.071 C 
BRANCH  19  20
ATOM     10  N   UNL     1      -1.603   3.390  25.887  0.00  0.00    -0.260 NA
ATOM     20  C   UNL     1      -2.631   4.196  25.540  0.00  0.00    +0.042 A 
ATOM     23  C   UNL     1      -2.478   5.416  24.901  0.00  0.00    +0.023 A 
ATOM     26  C   UNL     1      -1.188   5.836  24.600  0.00  0.00    +0.003 A 
ATOM     27  C   UNL     1      -0.363   3.831  25.578  0.00  0.00    +0.111 A 
ATOM     28  C   UNL     1      -0.105   5.034  24.940  0.00  0.00    +0.020 A 
ENDBRANCH  19  20
ENDBRANCH  17  19
ENDBRANCH   8  17
ENDBRANCH  11   8
BRANCH  12  15
ATOM     15  C   UNL     1      -1.922   0.852  25.267  0.00  0.00    +0.137 C 
BRANCH  15   9
ATOM      7  O   UNL     1      -0.565   1.526  22.828  0.00  0.00    -0.270 OA
ATOM      9  N   UNL     1      -0.545   0.607  24.958  0.00  0.00    -0.309 N 
ATOM     21  C   UNL     1       0.034   0.968  23.745  0.00  0.00    +0.244 C 
ATOM     34  H   UNL     1      -0.012   0.086  25.646  0.00  0.00    +0.149 HD
BRANCH  21  22
ATOM     22  C   UNL     1       1.467   0.620  23.569  0.00  0.00    +0.037 A 
ATOM     24  C   UNL     1       2.398   1.619  23.280  0.00  0.00    +0.013 A 
ATOM     25  C   UNL     1       1.882  -0.706  23.694  0.00  0.00    +0.013 A 
ATOM     29  C   UNL     1       3.743   1.290  23.115  0.00  0.00    +0.013 A 
ATOM     30  C   UNL     1       3.228  -1.033  23.529  0.00  0.00    +0.013 A 
ATOM     31  C   UNL     1       4.158  -0.036  23.240  0.00  0.00    +0.055 A 
BRANCH  31  32
ATOM      1  F   UNL     1       6.444   0.392  23.803  0.00  0.00    -0.166 F 
ATOM      2  F   UNL     1       6.015  -0.255  21.771  0.00  0.00    -0.166 F 
ATOM      3  F   UNL     1       5.895  -1.671  23.416  0.00  0.00    -0.166 F 
ATOM     32  C   UNL     1       5.598  -0.385  23.063  0.00  0.00    +0.417 C 
ENDBRANCH  31  32
ENDBRANCH  21  22
ENDBRANCH  15   9
ENDBRANCH  12  15
BRANCH  14  16
ATOM     16  C   UNL     1      -3.244  -3.128  24.301  0.00  0.00    +0.190 C 
BRANCH  16   6
ATOM      6  O   UNL     1      -1.857  -3.127  24.596  0.00  0.00    -0.392 OA
ATOM     35  H   UNL     1      -1.425  -2.550  23.943  0.00  0.00    +0.210 HD
ENDBRANCH  16   6
ENDBRANCH  14  16
TORSDOF 11
ENDMDL
MODEL 6
REMARK VINA RESULT:       2.3      4.552      7.879
REMARK  Name = 38026621
REMARK  12 active torsions:
REMARK  status: ('A' for Active; 'I' for Inactive)
REMARK    1  A    between atoms: O_5  and  C_13
REMARK    2  A    between atoms: O_6  and  C_16
REMARK    3  A    between atoms: N_8  and  C_11
REMARK    4  A    between atoms: N_8  and  C_17
REMARK    5  A    between atoms: N_8  and  C_18
REMARK    6  A    between atoms: N_9  and  C_15
REMARK    7  A    between atoms: C_12  and  C_15
REMARK    8  A    between atoms: C_14  and  C_16
REMARK    9  A    between atoms: C_17  and  C_19
REMARK   10  A    between atoms: C_19  and  C_20
REMARK   11  A    between atoms: C_21  and  C_22
REMARK   12  A    between atoms: C_31  and  C_32
REMARK                            x       y       z     vdW  Elec       q    Type
REMARK                         _______ _______ _______ _____ _____    ______ ____
ROOT
ATOM      4  O   UNL     1      -1.306  -2.687  25.413  0.00  0.00    -0.365 OA
ATOM     11  C   UNL     1      -0.469  -1.314  23.658  0.00  0.00    +0.118 C 
ATOM     12  C   UNL     1      -0.214  -1.798  25.091  0.00  0.00    +0.155 C 
ATOM     13  C   UNL     1      -1.978  -1.439  23.517  0.00  0.00    +0.165 C 
ATOM     14  C   UNL     1      -2.230  -2.718  24.307  0.00  0.00    +0.174 C 
ENDROOT
BRANCH  13   5
ATOM      5  O   UNL     1      -2.649  -0.341  24.124  0.00  0.00    -0.388 OA
ATOM     33  H   UNL     1      -2.791   0.333  23.438  0.00  0.00    +0.210 HD
ENDBRANCH  13   5
BRANCH  11   8
ATOM      8  N   UNL     1       0.081  -0.015  23.311  0.00  0.00    -0.297 NA
ATOM     18  C   UNL     1      -0.934   0.827  22.671  0.00  0.00    +0.105 C 
BRANCH   8  17
ATOM     17  C   UNL     1       1.244  -0.158  22.429  0.00  0.00    +0.090 C 
BRANCH  17  19
ATOM     19  C   UNL     1       2.318   0.876  22.766  0.00  0.00    +0.071 C 
BRANCH  19  20
ATOM     10  N   UNL     1       3.528  -1.085  23.553  0.00  0.00    -0.260 NA
ATOM     20  C   UNL     1       3.603   0.217  23.200  0.00  0.00    +0.042 A 
ATOM     23  C   UNL     1       4.774   0.959  23.216  0.00  0.00    +0.023 A 
ATOM     26  C   UNL     1       5.941   0.323  23.619  0.00  0.00    +0.003 A 
ATOM     27  C   UNL     1       4.683  -1.670  23.940  0.00  0.00    +0.111 A 
ATOM     28  C   UNL     1       5.905  -1.017  23.990  0.00  0.00    +0.020 A 
ENDBRANCH  19  20
ENDBRANCH  17  19
ENDBRANCH   8  17
ENDBRANCH  11   8
BRANCH  12  15
ATOM     15  C   UNL     1      -0.169  -0.727  26.177  0.00  0.00    +0.137 C 
BRANCH  15   9
ATOM      7  O   UNL     1       0.095   2.120  25.916  0.00  0.00    -0.270 OA
ATOM      9  N   UNL     1      -1.232   0.219  26.013  0.00  0.00    -0.309 N 
ATOM     21  C   UNL     1      -1.013   1.589  25.894  0.00  0.00    +0.244 C 
ATOM     34  H   UNL     1      -2.177  -0.148  26.057  0.00  0.00    +0.149 HD
BRANCH  21  22
ATOM     22  C   UNL     1      -2.223   2.439  25.756  0.00  0.00    +0.037 A 
ATOM     24  C   UNL     1      -3.408   1.893  25.261  0.00  0.00    +0.013 A 
ATOM     25  C   UNL     1      -2.175   3.784  26.123  0.00  0.00    +0.013 A 
ATOM     29  C   UNL     1      -4.543   2.692  25.132  0.00  0.00    +0.013 A 
ATOM     30  C   UNL     1      -3.311   4.583  25.994  0.00  0.00    +0.013 A 
ATOM     31  C   UNL     1      -4.495   4.037  25.498  0.00  0.00    +0.055 A 
BRANCH  31  32
ATOM      1  F   UNL     1      -5.900   5.748  26.407  0.00  0.00    -0.166 F 
ATOM      2  F   UNL     1      -6.859   4.159  25.273  0.00  0.00    -0.166 F 
ATOM      3  F   UNL     1      -5.697   5.685  24.248  0.00  0.00    -0.166 F 
ATOM     32  C   UNL     1      -5.710   4.890  25.360  0.00  0.00    +0.417 C 
ENDBRANCH  31  32
ENDBRANCH  21  22
ENDBRANCH  15   9
ENDBRANCH  12  15
BRANCH  14  16
ATOM     16  C   UNL     1      -3.641  -2.891  24.838  0.00  0.00    +0.190 C 
BRANCH  16   6
ATOM      6  O   UNL     1      -4.555  -2.356  23.896  0.00  0.00    -0.392 OA
ATOM     35  H   UNL     1      -4.031  -1.910  23.209  0.00  0.00    +0.210 HD
ENDBRANCH  16   6
ENDBRANCH  14  16
TORSDOF 11
ENDMDL
MODEL 7
REMARK VINA RESULT:       2.3      4.193      6.639
REMARK  Name = 38026621
REMARK  12 active torsions:
REMARK  status: ('A' for Active; 'I' for Inactive)
REMARK    1  A    between atoms: O_5  and  C_13
REMARK    2  A    between atoms: O_6  and  C_16
REMARK    3  A    between atoms: N_8  and  C_11
REMARK    4  A    between atoms: N_8  and  C_17
REMARK    5  A    between atoms: N_8  and  C_18
REMARK    6  A    between atoms: N_9  and  C_15
REMARK    7  A    between atoms: C_12  and  C_15
REMARK    8  A    between atoms: C_14  and  C_16
REMARK    9  A    between atoms: C_17  and  C_19
REMARK   10  A    between atoms: C_19  and  C_20
REMARK   11  A    between atoms: C_21  and  C_22
REMARK   12  A    between atoms: C_31  and  C_32
REMARK                            x       y       z     vdW  Elec       q    Type
REMARK                         _______ _______ _______ _____ _____    ______ ____
ROOT
ATOM      4  O   UNL     1       1.064   1.746  25.127  0.00  0.00    -0.365 OA
ATOM     11  C   UNL     1      -0.204   3.679  24.558  0.00  0.00    +0.118 C 
ATOM     12  C   UNL     1       0.329   2.837  25.724  0.00  0.00    +0.155 C 
ATOM     13  C   UNL     1      -0.291   2.673  23.421  0.00  0.00    +0.165 C 
ATOM     14  C   UNL     1       0.951   1.833  23.692  0.00  0.00    +0.174 C 
ENDROOT
BRANCH  13   5
ATOM      5  O   UNL     1      -1.463   1.873  23.523  0.00  0.00    -0.388 OA
ATOM     33  H   UNL     1      -1.836   1.782  22.629  0.00  0.00    +0.210 HD
ENDBRANCH  13   5
BRANCH  11   8
ATOM      8  N   UNL     1      -1.420   4.433  24.814  0.00  0.00    -0.297 NA
ATOM     18  C   UNL     1      -1.156   5.874  24.779  0.00  0.00    +0.105 C 
BRANCH   8  17
ATOM     17  C   UNL     1      -2.003   4.060  26.107  0.00  0.00    +0.090 C 
BRANCH  17  19
ATOM     19  C   UNL     1      -3.445   4.555  26.220  0.00  0.00    +0.071 C 
BRANCH  19  20
ATOM     10  N   UNL     1      -5.403   3.152  26.576  0.00  0.00    -0.260 NA
ATOM     20  C   UNL     1      -4.425   3.524  25.720  0.00  0.00    +0.042 A 
ATOM     23  C   UNL     1      -4.282   3.018  24.438  0.00  0.00    +0.023 A 
ATOM     26  C   UNL     1      -5.202   2.070  24.006  0.00  0.00    +0.003 A 
ATOM     27  C   UNL     1      -6.279   2.229  26.121  0.00  0.00    +0.111 A 
ATOM     28  C   UNL     1      -6.223   1.663  24.857  0.00  0.00    +0.020 A 
ENDBRANCH  19  20
ENDBRANCH  17  19
ENDBRANCH   8  17
ENDBRANCH  11   8
BRANCH  12  15
ATOM     15  C   UNL     1      -0.710   2.224  26.657  0.00  0.00    +0.137 C 
BRANCH  15   9
ATOM      7  O   UNL     1      -0.486  -0.626  26.921  0.00  0.00    -0.270 OA
ATOM      9  N   UNL     1      -1.495   1.238  25.978  0.00  0.00    -0.309 N 
ATOM     21  C   UNL     1      -1.318  -0.130  26.166  0.00  0.00    +0.244 C 
ATOM     34  H   UNL     1      -2.154   1.580  25.287  0.00  0.00    +0.149 HD
BRANCH  21  22
ATOM     22  C   UNL     1      -2.195  -1.023  25.367  0.00  0.00    +0.037 A 
ATOM     24  C   UNL     1      -1.715  -2.255  24.918  0.00  0.00    +0.013 A 
ATOM     25  C   UNL     1      -3.499  -0.631  25.065  0.00  0.00    +0.013 A 
ATOM     29  C   UNL     1      -2.540  -3.092  24.167  0.00  0.00    +0.013 A 
ATOM     30  C   UNL     1      -4.323  -1.469  24.314  0.00  0.00    +0.013 A 
ATOM     31  C   UNL     1      -3.844  -2.700  23.865  0.00  0.00    +0.055 A 
BRANCH  31  32
ATOM      1  F   UNL     1      -6.001  -3.682  23.540  0.00  0.00    -0.166 F 
ATOM      2  F   UNL     1      -4.264  -4.880  23.015  0.00  0.00    -0.166 F 
ATOM      3  F   UNL     1      -4.858  -3.208  21.759  0.00  0.00    -0.166 F 
ATOM     32  C   UNL     1      -4.724  -3.596  23.062  0.00  0.00    +0.417 C 
ENDBRANCH  31  32
ENDBRANCH  21  22
ENDBRANCH  15   9
ENDBRANCH  12  15
BRANCH  14  16
ATOM     16  C   UNL     1       0.935   0.434  23.106  0.00  0.00    +0.190 C 
BRANCH  16   6
ATOM      6  O   UNL     1       2.271  -0.010  22.937  0.00  0.00    -0.392 OA
ATOM     35  H   UNL     1       2.323  -0.440  22.068  0.00  0.00    +0.210 HD
ENDBRANCH  16   6
ENDBRANCH  14  16
TORSDOF 11
ENDMDL
