MODEL 1
REMARK VINA RESULT:      25.8      0.000      0.000
REMARK  Name = 7155500
REMARK  4 active torsions:
REMARK  status: ('A' for Active; 'I' for Inactive)
REMARK    1  A    between atoms: N_7  and  C_18
REMARK    2  A    between atoms: C_17  and  C_20
REMARK    3  A    between atoms: C_23  and  C_27
REMARK    4  A    between atoms: C_26  and  C_28
REMARK                            x       y       z     vdW  Elec       q    Type
REMARK                         _______ _______ _______ _____ _____    ______ ____
ROOT
ATOM      2  O   UNL     1       0.209   0.880  21.837  0.00  0.00    -0.266 OA
ATOM      3  O   UNL     1      -1.754   4.748  24.656  0.00  0.00    -0.270 OA
ATOM      5  N   UNL     1      -3.209   2.925  24.843  0.00  0.00    -0.297 N 
ATOM      6  N   UNL     1      -1.686   0.687  23.190  0.00  0.00    -0.310 N 
ATOM      8  C   UNL     1      -3.883   1.900  22.677  0.00  0.00    +0.027 C 
ATOM      9  C   UNL     1      -3.701   0.496  24.692  0.00  0.00    +0.054 C 
ATOM     10  C   UNL     1      -4.533   0.746  23.435  0.00  0.00    +0.018 C 
ATOM     11  C   UNL     1      -3.853   3.167  23.552  0.00  0.00    +0.113 C 
ATOM     12  C   UNL     1      -2.479   1.472  22.234  0.00  0.00    +0.130 C 
ATOM     13  C   UNL     1      -3.714   1.756  25.581  0.00  0.00    +0.117 C 
ATOM     14  C   UNL     1      -2.270   0.137  24.336  0.00  0.00    +0.027 A 
ATOM     15  C   UNL     1      -1.557  -0.673  25.137  0.00  0.00    +0.024 A 
ATOM     16  C   UNL     1      -0.344   0.434  22.843  0.00  0.00    +0.273 A 
ATOM     17  C   UNL     1      -2.181   3.771  25.268  0.00  0.00    +0.247 C 
ATOM     18  C   UNL     1       0.424  -0.452  23.776  0.00  0.00    +0.099 A 
ATOM     19  C   UNL     1      -0.182  -0.971  24.849  0.00  0.00    +0.030 A 
ENDROOT
BRANCH  17  20
ATOM     20  C   UNL     1      -1.529   3.470  26.546  0.00  0.00    +0.037 A 
ATOM     21  C   UNL     1      -2.160   3.802  27.742  0.00  0.00    +0.013 A 
ATOM     22  C   UNL     1      -0.282   2.850  26.558  0.00  0.00    +0.013 A 
ATOM     24  C   UNL     1      -1.541   3.514  28.958  0.00  0.00    +0.009 A 
ATOM     25  C   UNL     1       0.338   2.562  27.774  0.00  0.00    +0.009 A 
ATOM     26  C   UNL     1      -0.292   2.893  28.974  0.00  0.00    -0.018 A 
BRANCH  26  28
ATOM     28  C   UNL     1       0.352   2.595  30.235  0.00  0.00    -0.018 A 
ATOM     30  C   UNL     1      -0.290   2.903  31.435  0.00  0.00    +0.008 A 
ATOM     31  C   UNL     1       1.612   2.000  30.251  0.00  0.00    +0.008 A 
ATOM     34  C   UNL     1       0.331   2.614  32.651  0.00  0.00    +0.001 A 
ATOM     35  C   UNL     1       2.232   1.711  31.467  0.00  0.00    +0.001 A 
ATOM     36  C   UNL     1       1.591   2.018  32.667  0.00  0.00    +0.000 A 
ENDBRANCH  26  28
ENDBRANCH  17  20
BRANCH  18   7
ATOM      4  O   UNL     1       2.529   1.472  23.658  0.00  0.00    -0.269 OA
ATOM      7  N   UNL     1       1.732  -0.706  23.486  0.00  0.00    -0.277 N 
ATOM     23  C   UNL     1       2.711   0.277  23.444  0.00  0.00    +0.255 C 
ATOM     37  H   UNL     1       1.929  -1.623  23.098  0.00  0.00    +0.155 HD
BRANCH  23  27
ATOM      1  S   UNL     1       4.604  -1.614  23.879  0.00  0.00    -0.092 S 
ATOM     27  C   UNL     1       4.086  -0.196  23.134  0.00  0.00    +0.074 A 
ATOM     29  C   UNL     1       4.973   0.389  22.315  0.00  0.00    +0.021 A 
ATOM     32  C   UNL     1       6.180  -0.367  22.279  0.00  0.00    +0.008 A 
ATOM     33  C   UNL     1       6.115  -1.483  23.084  0.00  0.00    +0.046 A 
ENDBRANCH  23  27
ENDBRANCH  18   7
TORSDOF 4
ENDMDL
MODEL 2
REMARK VINA RESULT:      26.7      3.363      6.381
REMARK  Name = 7155500
REMARK  4 active torsions:
REMARK  status: ('A' for Active; 'I' for Inactive)
REMARK    1  A    between atoms: N_7  and  C_18
REMARK    2  A    between atoms: C_17  and  C_20
REMARK    3  A    between atoms: C_23  and  C_27
REMARK    4  A    between atoms: C_26  and  C_28
REMARK                            x       y       z     vdW  Elec       q    Type
REMARK                         _______ _______ _______ _____ _____    ______ ____
ROOT
ATOM      2  O   UNL     1       0.522   3.049  25.737  0.00  0.00    -0.266 OA
ATOM      3  O   UNL     1      -4.028   1.169  27.327  0.00  0.00    -0.270 OA
ATOM      5  N   UNL     1      -4.425   2.474  25.426  0.00  0.00    -0.297 N 
ATOM      6  N   UNL     1      -1.490   3.332  24.583  0.00  0.00    -0.310 N 
ATOM      8  C   UNL     1      -3.419   4.750  25.493  0.00  0.00    +0.027 C 
ATOM      9  C   UNL     1      -3.666   3.584  23.339  0.00  0.00    +0.054 C 
ATOM     10  C   UNL     1      -3.782   4.945  24.024  0.00  0.00    +0.018 C 
ATOM     11  C   UNL     1      -4.378   3.743  26.153  0.00  0.00    +0.113 C 
ATOM     12  C   UNL     1      -1.956   4.300  25.586  0.00  0.00    +0.130 C 
ATOM     13  C   UNL     1      -4.662   2.596  23.979  0.00  0.00    +0.117 C 
ATOM     14  C   UNL     1      -2.257   3.034  23.452  0.00  0.00    +0.027 A 
ATOM     15  C   UNL     1      -1.762   2.236  22.490  0.00  0.00    +0.024 A 
ATOM     16  C   UNL     1      -0.197   2.802  24.768  0.00  0.00    +0.273 A 
ATOM     17  C   UNL     1      -4.227   1.277  26.119  0.00  0.00    +0.247 C 
ATOM     18  C   UNL     1       0.306   1.896  23.687  0.00  0.00    +0.099 A 
ATOM     19  C   UNL     1      -0.455   1.656  22.614  0.00  0.00    +0.030 A 
ENDROOT
BRANCH  17  20
ATOM     20  C   UNL     1      -4.235   0.029  25.348  0.00  0.00    +0.037 A 
ATOM     21  C   UNL     1      -5.013  -0.069  24.197  0.00  0.00    +0.013 A 
ATOM     22  C   UNL     1      -3.463  -1.050  25.770  0.00  0.00    +0.013 A 
ATOM     24  C   UNL     1      -5.019  -1.255  23.463  0.00  0.00    +0.009 A 
ATOM     25  C   UNL     1      -3.470  -2.236  25.036  0.00  0.00    +0.009 A 
ATOM     26  C   UNL     1      -4.247  -2.339  23.882  0.00  0.00    -0.018 A 
BRANCH  26  28
ATOM     28  C   UNL     1      -4.255  -3.569  23.121  0.00  0.00    -0.018 A 
ATOM     30  C   UNL     1      -5.352  -3.889  22.322  0.00  0.00    +0.008 A 
ATOM     31  C   UNL     1      -3.164  -4.436  23.186  0.00  0.00    +0.008 A 
ATOM     34  C   UNL     1      -5.358  -5.075  21.588  0.00  0.00    +0.001 A 
ATOM     35  C   UNL     1      -3.170  -5.621  22.451  0.00  0.00    +0.001 A 
ATOM     36  C   UNL     1      -4.268  -5.941  21.652  0.00  0.00    +0.000 A 
ENDBRANCH  26  28
ENDBRANCH  17  20
BRANCH  18   7
ATOM      4  O   UNL     1       1.428  -0.193  22.099  0.00  0.00    -0.269 OA
ATOM      7  N   UNL     1       1.545   1.347  23.837  0.00  0.00    -0.277 N 
ATOM     23  C   UNL     1       2.035   0.330  23.029  0.00  0.00    +0.255 C 
ATOM     37  H   UNL     1       2.027   1.574  24.701  0.00  0.00    +0.155 HD
BRANCH  23  27
ATOM      1  S   UNL     1       4.670   0.965  23.045  0.00  0.00    -0.092 S 
ATOM     27  C   UNL     1       3.418  -0.124  23.331  0.00  0.00    +0.074 A 
ATOM     29  C   UNL     1       3.785  -1.321  23.812  0.00  0.00    +0.021 A 
ATOM     32  C   UNL     1       5.201  -1.372  23.968  0.00  0.00    +0.008 A 
ATOM     33  C   UNL     1       5.806  -0.195  23.586  0.00  0.00    +0.046 A 
ENDBRANCH  23  27
ENDBRANCH  18   7
TORSDOF 4
ENDMDL
MODEL 3
REMARK VINA RESULT:      29.4      2.285      6.883
REMARK  Name = 7155500
REMARK  4 active torsions:
REMARK  status: ('A' for Active; 'I' for Inactive)
REMARK    1  A    between atoms: N_7  and  C_18
REMARK    2  A    between atoms: C_17  and  C_20
REMARK    3  A    between atoms: C_23  and  C_27
REMARK    4  A    between atoms: C_26  and  C_28
REMARK                            x       y       z     vdW  Elec       q    Type
REMARK                         _______ _______ _______ _____ _____    ______ ____
ROOT
ATOM      2  O   UNL     1      -3.405   2.697  27.607  0.00  0.00    -0.266 OA
ATOM      3  O   UNL     1      -3.041  -0.549  23.596  0.00  0.00    -0.270 OA
ATOM      5  N   UNL     1      -2.907   1.631  22.758  0.00  0.00    -0.297 N 
ATOM      6  N   UNL     1      -2.975   3.368  25.411  0.00  0.00    -0.310 N 
ATOM      8  C   UNL     1      -4.708   3.163  23.536  0.00  0.00    +0.027 C 
ATOM      9  C   UNL     1      -2.469   4.059  23.041  0.00  0.00    +0.054 C 
ATOM     10  C   UNL     1      -3.965   4.340  22.913  0.00  0.00    +0.018 C 
ATOM     11  C   UNL     1      -4.351   1.856  22.804  0.00  0.00    +0.113 C 
ATOM     12  C   UNL     1      -4.368   3.099  25.030  0.00  0.00    +0.130 C 
ATOM     13  C   UNL     1      -2.116   2.772  22.268  0.00  0.00    +0.117 C 
ATOM     14  C   UNL     1      -2.065   3.908  24.495  0.00  0.00    +0.027 A 
ATOM     15  C   UNL     1      -0.830   4.255  24.895  0.00  0.00    +0.024 A 
ATOM     16  C   UNL     1      -2.634   3.153  26.761  0.00  0.00    +0.273 A 
ATOM     17  C   UNL     1      -2.387   0.407  23.185  0.00  0.00    +0.247 C 
ATOM     18  C   UNL     1      -1.240   3.527  27.159  0.00  0.00    +0.099 A 
ATOM     19  C   UNL     1      -0.411   4.058  26.254  0.00  0.00    +0.030 A 
ENDROOT
BRANCH  17  20
ATOM     20  C   UNL     1      -0.930   0.236  23.167  0.00  0.00    +0.037 A 
ATOM     21  C   UNL     1      -0.158   0.760  24.201  0.00  0.00    +0.013 A 
ATOM     22  C   UNL     1      -0.327  -0.452  22.117  0.00  0.00    +0.013 A 
ATOM     24  C   UNL     1       1.227   0.595  24.185  0.00  0.00    +0.009 A 
ATOM     25  C   UNL     1       1.058  -0.616  22.101  0.00  0.00    +0.009 A 
ATOM     26  C   UNL     1       1.835  -0.093  23.135  0.00  0.00    -0.018 A 
BRANCH  26  28
ATOM     28  C   UNL     1       3.272  -0.263  23.118  0.00  0.00    -0.018 A 
ATOM     30  C   UNL     1       4.077   0.673  22.468  0.00  0.00    +0.008 A 
ATOM     31  C   UNL     1       3.852  -1.361  23.752  0.00  0.00    +0.008 A 
ATOM     34  C   UNL     1       5.462   0.510  22.453  0.00  0.00    +0.001 A 
ATOM     35  C   UNL     1       5.237  -1.523  23.737  0.00  0.00    +0.001 A 
ATOM     36  C   UNL     1       6.042  -0.588  23.087  0.00  0.00    +0.000 A 
ENDBRANCH  26  28
ENDBRANCH  17  20
BRANCH  18   7
ATOM      4  O   UNL     1       1.248   2.438  28.036  0.00  0.00    -0.269 OA
ATOM      7  N   UNL     1      -0.864   3.315  28.453  0.00  0.00    -0.277 N 
ATOM     23  C   UNL     1       0.364   2.781  28.816  0.00  0.00    +0.255 C 
ATOM     37  H   UNL     1      -1.606   3.377  29.144  0.00  0.00    +0.155 HD
BRANCH  23  27
ATOM      1  S   UNL     1       1.966   1.787  30.763  0.00  0.00    -0.092 S 
ATOM     27  C   UNL     1       0.602   2.647  30.277  0.00  0.00    +0.074 A 
ATOM     29  C   UNL     1      -0.159   3.141  31.266  0.00  0.00    +0.021 A 
ATOM     32  C   UNL     1       0.401   2.801  32.531  0.00  0.00    +0.008 A 
ATOM     33  C   UNL     1       1.559   2.065  32.403  0.00  0.00    +0.046 A 
ENDBRANCH  23  27
ENDBRANCH  18   7
TORSDOF 4
ENDMDL
