MODEL 1
REMARK VINA RESULT:       1.5      0.000      0.000
REMARK  Name = 26742458
REMARK  6 active torsions:
REMARK  status: ('A' for Active; 'I' for Inactive)
REMARK    1  A    between atoms: N_4  and  C_15
REMARK    2  A    between atoms: N_7  and  C_24
REMARK    3  A    between atoms: C_9  and  C_16
REMARK    4  A    between atoms: C_10  and  C_15
REMARK    5  A    between atoms: C_18  and  C_21
REMARK    6  A    between atoms: C_19  and  C_22
REMARK                            x       y       z     vdW  Elec       q    Type
REMARK                         _______ _______ _______ _____ _____    ______ ____
ROOT
ATOM      3  N   UNL     1      -3.245  -2.129  23.794  0.00  0.00    -0.297 NA
ATOM      8  C   UNL     1      -2.965  -1.022  26.134  0.00  0.00    +0.002 C 
ATOM      9  C   UNL     1      -4.124  -0.349  25.350  0.00  0.00    +0.055 C 
ATOM     10  C   UNL     1      -1.819  -1.769  24.019  0.00  0.00    +0.074 C 
ATOM     11  C   UNL     1      -1.666  -0.929  25.305  0.00  0.00    +0.024 C 
ATOM     12  C   UNL     1      -3.320  -2.519  26.256  0.00  0.00    +0.019 C 
ATOM     13  C   UNL     1      -4.098  -0.919  23.903  0.00  0.00    +0.094 C 
ATOM     14  C   UNL     1      -3.648  -3.077  24.859  0.00  0.00    +0.085 C 
ENDROOT
BRANCH   9  16
ATOM      5  N   UNL     1      -5.439   1.698  25.606  0.00  0.00    -0.237 NA
ATOM      6  N   UNL     1      -4.452   3.889  25.418  0.00  0.00    -0.229 NA
ATOM     16  C   UNL     1      -4.220   1.170  25.370  0.00  0.00    +0.050 A 
ATOM     17  C   UNL     1      -3.086   1.925  25.152  0.00  0.00    +0.055 A 
ATOM     18  C   UNL     1      -3.263   3.294  25.188  0.00  0.00    +0.110 A 
ATOM     19  C   UNL     1      -5.482   3.044  25.616  0.00  0.00    +0.127 A 
ATOM     22  C   UNL     1      -6.812   3.667  25.875  0.00  0.00    +0.088 C 
BRANCH  18  21
ATOM      2  O   UNL     1      -1.028   3.634  24.492  0.00  0.00    -0.461 OA
ATOM     21  C   UNL     1      -2.166   4.199  24.976  0.00  0.00    +0.153 A 
ATOM     23  C   UNL     1      -1.994   5.553  25.154  0.00  0.00    +0.051 A 
ATOM     25  C   UNL     1      -0.666   5.836  24.756  0.00  0.00    +0.042 A 
ATOM     26  C   UNL     1      -0.121   4.636  24.361  0.00  0.00    +0.196 A 
ENDBRANCH  18  21
ENDBRANCH   9  16
BRANCH  10  15
ATOM     15  C   UNL     1      -1.195  -1.074  22.807  0.00  0.00    +0.124 C 
BRANCH  15   4
ATOM      1  O   UNL     1       0.965   0.564  23.732  0.00  0.00    -0.253 OA
ATOM      4  N   UNL     1       0.201  -1.368  22.713  0.00  0.00    -0.298 N 
ATOM      7  N   UNL     1       2.475  -1.061  22.963  0.00  0.00    -0.269 N 
ATOM     20  C   UNL     1       1.210  -0.512  23.192  0.00  0.00    +0.304 C 
ATOM     32  H   UNL     1       0.479  -2.240  22.273  0.00  0.00    +0.150 HD
ATOM     33  H   UNL     1       2.503  -1.966  22.500  0.00  0.00    +0.156 HD
BRANCH   7  24
ATOM     24  C   UNL     1       3.734  -0.509  23.296  0.00  0.00    +0.035 A 
ATOM     27  C   UNL     1       4.041   0.801  22.928  0.00  0.00    +0.023 A 
ATOM     28  C   UNL     1       4.667  -1.274  23.995  0.00  0.00    +0.023 A 
ATOM     29  C   UNL     1       5.282   1.345  23.256  0.00  0.00    +0.002 A 
ATOM     30  C   UNL     1       5.909  -0.729  24.325  0.00  0.00    +0.002 A 
ATOM     31  C   UNL     1       6.216   0.579  23.955  0.00  0.00    +0.000 A 
ENDBRANCH   7  24
ENDBRANCH  15   4
ENDBRANCH  10  15
TORSDOF 5
ENDMDL
MODEL 2
REMARK VINA RESULT:       2.5      1.935      6.745
REMARK  Name = 26742458
REMARK  6 active torsions:
REMARK  status: ('A' for Active; 'I' for Inactive)
REMARK    1  A    between atoms: N_4  and  C_15
REMARK    2  A    between atoms: N_7  and  C_24
REMARK    3  A    between atoms: C_9  and  C_16
REMARK    4  A    between atoms: C_10  and  C_15
REMARK    5  A    between atoms: C_18  and  C_21
REMARK    6  A    between atoms: C_19  and  C_22
REMARK                            x       y       z     vdW  Elec       q    Type
REMARK                         _______ _______ _______ _____ _____    ______ ____
ROOT
ATOM      3  N   UNL     1      -4.199   4.547  24.047  0.00  0.00    -0.297 NA
ATOM      8  C   UNL     1      -2.106   4.626  25.593  0.00  0.00    +0.002 C 
ATOM      9  C   UNL     1      -1.802   3.807  24.309  0.00  0.00    +0.055 C 
ATOM     10  C   UNL     1      -4.578   4.168  25.435  0.00  0.00    +0.074 C 
ATOM     11  C   UNL     1      -3.321   4.008  26.317  0.00  0.00    +0.024 C 
ATOM     12  C   UNL     1      -2.522   6.039  25.132  0.00  0.00    +0.019 C 
ATOM     13  C   UNL     1      -3.143   3.634  23.541  0.00  0.00    +0.094 C 
ATOM     14  C   UNL     1      -3.644   5.920  24.085  0.00  0.00    +0.085 C 
ENDROOT
BRANCH   9  16
ATOM      5  N   UNL     1      -1.518   1.623  25.373  0.00  0.00    -0.237 NA
ATOM      6  N   UNL     1       0.265   0.120  24.764  0.00  0.00    -0.229 NA
ATOM     16  C   UNL     1      -1.047   2.494  24.456  0.00  0.00    +0.050 A 
ATOM     17  C   UNL     1       0.057   2.252  23.665  0.00  0.00    +0.055 A 
ATOM     18  C   UNL     1       0.680   1.036  23.865  0.00  0.00    +0.110 A 
ATOM     19  C   UNL     1      -0.823   0.474  25.474  0.00  0.00    +0.127 A 
ATOM     22  C   UNL     1      -1.313  -0.515  26.477  0.00  0.00    +0.088 C 
BRANCH  18  21
ATOM      2  O   UNL     1       2.998   1.281  23.463  0.00  0.00    -0.461 OA
ATOM     21  C   UNL     1       1.844   0.656  23.109  0.00  0.00    +0.153 A 
ATOM     23  C   UNL     1       2.069  -0.225  22.077  0.00  0.00    +0.051 A 
ATOM     25  C   UNL     1       3.449  -0.134  21.776  0.00  0.00    +0.042 A 
ATOM     26  C   UNL     1       3.969   0.794  22.647  0.00  0.00    +0.196 A 
ENDBRANCH  18  21
ENDBRANCH   9  16
BRANCH  10  15
ATOM     15  C   UNL     1      -5.466   2.923  25.477  0.00  0.00    +0.124 C 
BRANCH  15   4
ATOM      1  O   UNL     1      -4.554   0.293  26.150  0.00  0.00    -0.253 OA
ATOM      4  N   UNL     1      -4.989   1.925  24.570  0.00  0.00    -0.298 N 
ATOM      7  N   UNL     1      -4.148  -0.108  23.873  0.00  0.00    -0.269 N 
ATOM     20  C   UNL     1      -4.557   0.649  24.975  0.00  0.00    +0.304 C 
ATOM     32  H   UNL     1      -4.959   2.152  23.581  0.00  0.00    +0.150 HD
ATOM     33  H   UNL     1      -4.213   0.340  22.962  0.00  0.00    +0.156 HD
BRANCH   7  24
ATOM     24  C   UNL     1      -3.651  -1.432  23.866  0.00  0.00    +0.035 A 
ATOM     27  C   UNL     1      -4.535  -2.509  23.803  0.00  0.00    +0.023 A 
ATOM     28  C   UNL     1      -2.276  -1.661  23.921  0.00  0.00    +0.023 A 
ATOM     29  C   UNL     1      -4.045  -3.814  23.797  0.00  0.00    +0.002 A 
ATOM     30  C   UNL     1      -1.786  -2.967  23.914  0.00  0.00    +0.002 A 
ATOM     31  C   UNL     1      -2.670  -4.043  23.852  0.00  0.00    +0.000 A 
ENDBRANCH   7  24
ENDBRANCH  15   4
ENDBRANCH  10  15
TORSDOF 5
ENDMDL
MODEL 3
REMARK VINA RESULT:       3.3      3.062      4.704
REMARK  Name = 26742458
REMARK  6 active torsions:
REMARK  status: ('A' for Active; 'I' for Inactive)
REMARK    1  A    between atoms: N_4  and  C_15
REMARK    2  A    between atoms: N_7  and  C_24
REMARK    3  A    between atoms: C_9  and  C_16
REMARK    4  A    between atoms: C_10  and  C_15
REMARK    5  A    between atoms: C_18  and  C_21
REMARK    6  A    between atoms: C_19  and  C_22
REMARK                            x       y       z     vdW  Elec       q    Type
REMARK                         _______ _______ _______ _____ _____    ______ ____
ROOT
ATOM      3  N   UNL     1      -1.581  -2.941  24.027  0.00  0.00    -0.297 NA
ATOM      8  C   UNL     1      -3.873  -1.987  24.812  0.00  0.00    +0.002 C 
ATOM      9  C   UNL     1      -3.406  -1.278  23.511  0.00  0.00    +0.055 C 
ATOM     10  C   UNL     1      -1.514  -2.579  25.468  0.00  0.00    +0.074 C 
ATOM     11  C   UNL     1      -2.789  -1.824  25.899  0.00  0.00    +0.024 C 
ATOM     12  C   UNL     1      -3.968  -3.493  24.489  0.00  0.00    +0.019 C 
ATOM     13  C   UNL     1      -1.953  -1.752  23.221  0.00  0.00    +0.094 C 
ATOM     14  C   UNL     1      -2.643  -3.962  23.863  0.00  0.00    +0.085 C 
ENDROOT
BRANCH   9  16
ATOM      5  N   UNL     1      -2.859   0.854  22.445  0.00  0.00    -0.237 NA
ATOM      6  N   UNL     1      -3.763   2.948  23.224  0.00  0.00    -0.229 NA
ATOM     16  C   UNL     1      -3.548   0.235  23.426  0.00  0.00    +0.050 A 
ATOM     17  C   UNL     1      -4.353   0.894  24.331  0.00  0.00    +0.055 A 
ATOM     18  C   UNL     1      -4.424   2.265  24.180  0.00  0.00    +0.110 A 
ATOM     19  C   UNL     1      -3.010   2.192  22.402  0.00  0.00    +0.127 A 
ATOM     22  C   UNL     1      -2.265   2.913  21.331  0.00  0.00    +0.088 C 
BRANCH  18  21
ATOM      2  O   UNL     1      -5.181   4.413  24.816  0.00  0.00    -0.461 OA
ATOM     21  C   UNL     1      -5.226   3.076  25.057  0.00  0.00    +0.153 A 
ATOM     23  C   UNL     1      -6.057   2.804  26.118  0.00  0.00    +0.051 A 
ATOM     25  C   UNL     1      -6.554   4.053  26.559  0.00  0.00    +0.042 A 
ATOM     26  C   UNL     1      -5.992   5.000  25.734  0.00  0.00    +0.196 A 
ENDBRANCH  18  21
ENDBRANCH   9  16
BRANCH  10  15
ATOM     15  C   UNL     1      -0.244  -1.798  25.814  0.00  0.00    +0.124 C 
BRANCH  15   4
ATOM      1  O   UNL     1      -0.236   0.552  24.178  0.00  0.00    -0.253 OA
ATOM      4  N   UNL     1      -0.562  -0.467  26.229  0.00  0.00    -0.298 N 
ATOM      7  N   UNL     1      -0.891   1.810  26.049  0.00  0.00    -0.269 N 
ATOM     20  C   UNL     1      -0.537   0.643  25.366  0.00  0.00    +0.304 C 
ATOM     32  H   UNL     1      -0.815  -0.315  27.201  0.00  0.00    +0.150 HD
ATOM     33  H   UNL     1      -1.112   1.711  27.037  0.00  0.00    +0.156 HD
BRANCH   7  24
ATOM     24  C   UNL     1      -0.983   3.124  25.533  0.00  0.00    +0.035 A 
ATOM     27  C   UNL     1      -1.955   3.998  26.020  0.00  0.00    +0.023 A 
ATOM     28  C   UNL     1      -0.101   3.546  24.539  0.00  0.00    +0.023 A 
ATOM     29  C   UNL     1      -2.046   5.293  25.511  0.00  0.00    +0.002 A 
ATOM     30  C   UNL     1      -0.191   4.842  24.031  0.00  0.00    +0.002 A 
ATOM     31  C   UNL     1      -1.163   5.715  24.517  0.00  0.00    +0.000 A 
ENDBRANCH   7  24
ENDBRANCH  15   4
ENDBRANCH  10  15
TORSDOF 5
ENDMDL
MODEL 4
REMARK VINA RESULT:       3.3      2.030      5.729
REMARK  Name = 26742458
REMARK  6 active torsions:
REMARK  status: ('A' for Active; 'I' for Inactive)
REMARK    1  A    between atoms: N_4  and  C_15
REMARK    2  A    between atoms: N_7  and  C_24
REMARK    3  A    between atoms: C_9  and  C_16
REMARK    4  A    between atoms: C_10  and  C_15
REMARK    5  A    between atoms: C_18  and  C_21
REMARK    6  A    between atoms: C_19  and  C_22
REMARK                            x       y       z     vdW  Elec       q    Type
REMARK                         _______ _______ _______ _____ _____    ______ ____
ROOT
ATOM      3  N   UNL     1      -4.124  -2.082  25.553  0.00  0.00    -0.297 NA
ATOM      8  C   UNL     1      -2.249  -2.384  23.772  0.00  0.00    +0.002 C 
ATOM      9  C   UNL     1      -1.672  -1.749  25.067  0.00  0.00    +0.055 C 
ATOM     10  C   UNL     1      -4.567  -1.520  24.249  0.00  0.00    +0.074 C 
ATOM     11  C   UNL     1      -3.398  -1.501  23.241  0.00  0.00    +0.024 C 
ATOM     12  C   UNL     1      -2.867  -3.739  24.178  0.00  0.00    +0.019 C 
ATOM     13  C   UNL     1      -2.874  -1.416  25.996  0.00  0.00    +0.094 C 
ATOM     14  C   UNL     1      -3.836  -3.522  25.353  0.00  0.00    +0.085 C 
ENDROOT
BRANCH   9  16
ATOM      5  N   UNL     1      -0.918   0.478  25.740  0.00  0.00    -0.237 NA
ATOM      6  N   UNL     1       0.985   1.551  24.721  0.00  0.00    -0.229 NA
ATOM     16  C   UNL     1      -0.709  -0.579  24.927  0.00  0.00    +0.050 A 
ATOM     17  C   UNL     1       0.310  -0.644  24.000  0.00  0.00    +0.055 A 
ATOM     18  C   UNL     1       1.136   0.461  23.941  0.00  0.00    +0.110 A 
ATOM     19  C   UNL     1      -0.046   1.493  25.585  0.00  0.00    +0.127 A 
ATOM     22  C   UNL     1      -0.242   2.680  26.466  0.00  0.00    +0.088 C 
BRANCH  18  21
ATOM      2  O   UNL     1       3.301   1.266  23.431  0.00  0.00    -0.461 OA
ATOM     21  C   UNL     1       2.237   0.527  23.018  0.00  0.00    +0.153 A 
ATOM     23  C   UNL     1       2.473  -0.003  21.771  0.00  0.00    +0.051 A 
ATOM     25  C   UNL     1       3.764   0.439  21.393  0.00  0.00    +0.042 A 
ATOM     26  C   UNL     1       4.225   1.207  22.437  0.00  0.00    +0.196 A 
ENDBRANCH  18  21
ENDBRANCH   9  16
BRANCH  10  15
ATOM     15  C   UNL     1      -5.212  -0.141  24.399  0.00  0.00    +0.124 C 
BRANCH  15   4
ATOM      1  O   UNL     1      -3.776   1.925  25.768  0.00  0.00    -0.253 OA
ATOM      4  N   UNL     1      -4.396   0.872  23.804  0.00  0.00    -0.298 N 
ATOM      7  N   UNL     1      -3.002   2.708  23.694  0.00  0.00    -0.269 N 
ATOM     20  C   UNL     1      -3.718   1.857  24.543  0.00  0.00    +0.304 C 
ATOM     32  H   UNL     1      -4.305   0.881  22.792  0.00  0.00    +0.150 HD
ATOM     33  H   UNL     1      -3.061   2.513  22.698  0.00  0.00    +0.156 HD
BRANCH   7  24
ATOM     24  C   UNL     1      -2.198   3.815  24.052  0.00  0.00    +0.035 A 
ATOM     27  C   UNL     1      -2.673   4.756  24.966  0.00  0.00    +0.023 A 
ATOM     28  C   UNL     1      -0.930   3.966  23.492  0.00  0.00    +0.023 A 
ATOM     29  C   UNL     1      -1.881   5.848  25.318  0.00  0.00    +0.002 A 
ATOM     30  C   UNL     1      -0.137   5.058  23.845  0.00  0.00    +0.002 A 
ATOM     31  C   UNL     1      -0.612   5.998  24.758  0.00  0.00    +0.000 A 
ENDBRANCH   7  24
ENDBRANCH  15   4
ENDBRANCH  10  15
TORSDOF 5
ENDMDL
MODEL 5
REMARK VINA RESULT:       3.3      2.656      5.665
REMARK  Name = 26742458
REMARK  6 active torsions:
REMARK  status: ('A' for Active; 'I' for Inactive)
REMARK    1  A    between atoms: N_4  and  C_15
REMARK    2  A    between atoms: N_7  and  C_24
REMARK    3  A    between atoms: C_9  and  C_16
REMARK    4  A    between atoms: C_10  and  C_15
REMARK    5  A    between atoms: C_18  and  C_21
REMARK    6  A    between atoms: C_19  and  C_22
REMARK                            x       y       z     vdW  Elec       q    Type
REMARK                         _______ _______ _______ _____ _____    ______ ____
ROOT
ATOM      3  N   UNL     1      -4.312   3.374  25.667  0.00  0.00    -0.297 NA
ATOM      8  C   UNL     1      -5.070   1.448  24.087  0.00  0.00    +0.002 C 
ATOM      9  C   UNL     1      -4.107   0.908  25.180  0.00  0.00    +0.055 C 
ATOM     10  C   UNL     1      -4.124   3.777  24.248  0.00  0.00    +0.074 C 
ATOM     11  C   UNL     1      -4.371   2.580  23.306  0.00  0.00    +0.024 C 
ATOM     12  C   UNL     1      -6.270   2.079  24.825  0.00  0.00    +0.019 C 
ATOM     13  C   UNL     1      -3.544   2.136  25.950  0.00  0.00    +0.094 C 
ATOM     14  C   UNL     1      -5.751   3.082  25.871  0.00  0.00    +0.085 C 
ENDROOT
BRANCH   9  16
ATOM      5  N   UNL     1      -3.295  -1.376  24.849  0.00  0.00    -0.237 NA
ATOM      6  N   UNL     1      -1.083  -1.844  24.014  0.00  0.00    -0.229 NA
ATOM     16  C   UNL     1      -3.011  -0.060  24.758  0.00  0.00    +0.050 A 
ATOM     17  C   UNL     1      -1.802   0.434  24.311  0.00  0.00    +0.055 A 
ATOM     18  C   UNL     1      -0.867  -0.514  23.948  0.00  0.00    +0.110 A 
ATOM     19  C   UNL     1      -2.301  -2.200  24.466  0.00  0.00    +0.127 A 
ATOM     22  C   UNL     1      -2.577  -3.662  24.551  0.00  0.00    +0.088 C 
BRANCH  18  21
ATOM      2  O   UNL     1       0.927   1.028  23.963  0.00  0.00    -0.461 OA
ATOM     21  C   UNL     1       0.436  -0.138  23.466  0.00  0.00    +0.153 A 
ATOM     23  C   UNL     1       1.331  -0.704  22.589  0.00  0.00    +0.051 A 
ATOM     25  C   UNL     1       2.443   0.170  22.543  0.00  0.00    +0.042 A 
ATOM     26  C   UNL     1       2.148   1.208  23.396  0.00  0.00    +0.196 A 
ENDBRANCH  18  21
ENDBRANCH   9  16
BRANCH  10  15
ATOM     15  C   UNL     1      -2.760   4.425  24.002  0.00  0.00    +0.124 C 
BRANCH  15   4
ATOM      1  O   UNL     1      -1.563   4.726  26.586  0.00  0.00    -0.253 OA
ATOM      4  N   UNL     1      -1.710   3.628  24.556  0.00  0.00    -0.298 N 
ATOM      7  N   UNL     1      -0.160   2.907  26.106  0.00  0.00    -0.269 N 
ATOM     20  C   UNL     1      -1.170   3.835  25.838  0.00  0.00    +0.304 C 
ATOM     32  H   UNL     1      -1.331   2.874  23.991  0.00  0.00    +0.150 HD
ATOM     33  H   UNL     1       0.045   2.231  25.374  0.00  0.00    +0.156 HD
BRANCH   7  24
ATOM     24  C   UNL     1       0.620   2.787  27.280  0.00  0.00    +0.035 A 
ATOM     27  C   UNL     1       1.970   3.134  27.259  0.00  0.00    +0.023 A 
ATOM     28  C   UNL     1       0.038   2.322  28.459  0.00  0.00    +0.023 A 
ATOM     29  C   UNL     1       2.739   3.016  28.416  0.00  0.00    +0.002 A 
ATOM     30  C   UNL     1       0.807   2.204  29.618  0.00  0.00    +0.002 A 
ATOM     31  C   UNL     1       2.157   2.551  29.596  0.00  0.00    +0.000 A 
ENDBRANCH   7  24
ENDBRANCH  15   4
ENDBRANCH  10  15
TORSDOF 5
ENDMDL
MODEL 6
REMARK VINA RESULT:       3.4      3.203      6.928
REMARK  Name = 26742458
REMARK  6 active torsions:
REMARK  status: ('A' for Active; 'I' for Inactive)
REMARK    1  A    between atoms: N_4  and  C_15
REMARK    2  A    between atoms: N_7  and  C_24
REMARK    3  A    between atoms: C_9  and  C_16
REMARK    4  A    between atoms: C_10  and  C_15
REMARK    5  A    between atoms: C_18  and  C_21
REMARK    6  A    between atoms: C_19  and  C_22
REMARK                            x       y       z     vdW  Elec       q    Type
REMARK                         _______ _______ _______ _____ _____    ______ ____
ROOT
ATOM      3  N   UNL     1      -4.409   4.591  23.753  0.00  0.00    -0.297 NA
ATOM      8  C   UNL     1      -2.292   5.379  25.047  0.00  0.00    +0.002 C 
ATOM      9  C   UNL     1      -1.992   4.075  24.257  0.00  0.00    +0.055 C 
ATOM     10  C   UNL     1      -4.755   4.868  25.173  0.00  0.00    +0.074 C 
ATOM     11  C   UNL     1      -3.480   5.135  26.001  0.00  0.00    +0.024 C 
ATOM     12  C   UNL     1      -2.747   6.431  24.014  0.00  0.00    +0.019 C 
ATOM     13  C   UNL     1      -3.342   3.561  23.682  0.00  0.00    +0.094 C 
ATOM     14  C   UNL     1      -3.884   5.843  23.159  0.00  0.00    +0.085 C 
ENDROOT
BRANCH   9  16
ATOM      5  N   UNL     1      -1.222   1.757  24.376  0.00  0.00    -0.237 NA
ATOM      6  N   UNL     1       0.185   0.962  26.165  0.00  0.00    -0.229 NA
ATOM     16  C   UNL     1      -1.206   2.975  24.956  0.00  0.00    +0.050 A 
ATOM     17  C   UNL     1      -0.528   3.260  26.123  0.00  0.00    +0.055 A 
ATOM     18  C   UNL     1       0.157   2.204  26.689  0.00  0.00    +0.110 A 
ATOM     19  C   UNL     1      -0.516   0.811  25.025  0.00  0.00    +0.127 A 
ATOM     22  C   UNL     1      -0.507  -0.550  24.414  0.00  0.00    +0.088 C 
BRANCH  18  21
ATOM      2  O   UNL     1       2.167   2.846  27.759  0.00  0.00    -0.461 OA
ATOM     21  C   UNL     1       0.905   2.362  27.908  0.00  0.00    +0.153 A 
ATOM     23  C   UNL     1       0.631   2.128  29.236  0.00  0.00    +0.051 A 
ATOM     25  C   UNL     1       1.799   2.492  29.948  0.00  0.00    +0.042 A 
ATOM     26  C   UNL     1       2.703   2.922  29.005  0.00  0.00    +0.196 A 
ENDBRANCH  18  21
ENDBRANCH   9  16
BRANCH  10  15
ATOM     15  C   UNL     1      -5.615   3.763  25.790  0.00  0.00    +0.124 C 
BRANCH  15   4
ATOM      1  O   UNL     1      -5.756   1.303  24.329  0.00  0.00    -0.253 OA
ATOM      4  N   UNL     1      -4.840   2.584  26.024  0.00  0.00    -0.298 N 
ATOM      7  N   UNL     1      -4.080   0.426  25.720  0.00  0.00    -0.269 N 
ATOM     20  C   UNL     1      -4.963   1.408  25.262  0.00  0.00    +0.304 C 
ATOM     32  H   UNL     1      -4.166   2.596  26.783  0.00  0.00    +0.150 HD
ATOM     33  H   UNL     1      -3.489   0.676  26.508  0.00  0.00    +0.156 HD
BRANCH   7  24
ATOM     24  C   UNL     1      -3.904  -0.885  25.218  0.00  0.00    +0.035 A 
ATOM     27  C   UNL     1      -4.358  -1.210  23.940  0.00  0.00    +0.023 A 
ATOM     28  C   UNL     1      -3.276  -1.853  26.002  0.00  0.00    +0.023 A 
ATOM     29  C   UNL     1      -4.186  -2.502  23.446  0.00  0.00    +0.002 A 
ATOM     30  C   UNL     1      -3.102  -3.146  25.507  0.00  0.00    +0.002 A 
ATOM     31  C   UNL     1      -3.557  -3.470  24.230  0.00  0.00    +0.000 A 
ENDBRANCH   7  24
ENDBRANCH  15   4
ENDBRANCH  10  15
TORSDOF 5
ENDMDL
MODEL 7
REMARK VINA RESULT:       3.9      1.977      5.175
REMARK  Name = 26742458
REMARK  6 active torsions:
REMARK  status: ('A' for Active; 'I' for Inactive)
REMARK    1  A    between atoms: N_4  and  C_15
REMARK    2  A    between atoms: N_7  and  C_24
REMARK    3  A    between atoms: C_9  and  C_16
REMARK    4  A    between atoms: C_10  and  C_15
REMARK    5  A    between atoms: C_18  and  C_21
REMARK    6  A    between atoms: C_19  and  C_22
REMARK                            x       y       z     vdW  Elec       q    Type
REMARK                         _______ _______ _______ _____ _____    ______ ____
ROOT
ATOM      3  N   UNL     1      -4.242   3.622  26.134  0.00  0.00    -0.297 NA
ATOM      8  C   UNL     1      -4.351   2.701  23.701  0.00  0.00    +0.002 C 
ATOM      9  C   UNL     1      -4.807   1.615  24.714  0.00  0.00    +0.055 C 
ATOM     10  C   UNL     1      -2.959   3.890  25.432  0.00  0.00    +0.074 C 
ATOM     11  C   UNL     1      -2.927   3.173  24.065  0.00  0.00    +0.024 C 
ATOM     12  C   UNL     1      -5.292   3.910  23.891  0.00  0.00    +0.019 C 
ATOM     13  C   UNL     1      -4.524   2.165  26.141  0.00  0.00    +0.094 C 
ATOM     14  C   UNL     1      -5.324   4.298  25.379  0.00  0.00    +0.085 C 
ENDROOT
BRANCH   9  16
ATOM      5  N   UNL     1      -5.138  -0.692  23.972  0.00  0.00    -0.237 NA
ATOM      6  N   UNL     1      -3.415  -2.365  24.172  0.00  0.00    -0.229 NA
ATOM     16  C   UNL     1      -4.289   0.196  24.529  0.00  0.00    +0.050 A 
ATOM     17  C   UNL     1      -3.005  -0.117  24.928  0.00  0.00    +0.055 A 
ATOM     18  C   UNL     1      -2.618  -1.426  24.723  0.00  0.00    +0.110 A 
ATOM     19  C   UNL     1      -4.643  -1.936  23.826  0.00  0.00    +0.127 A 
ATOM     22  C   UNL     1      -5.552  -2.946  23.212  0.00  0.00    +0.088 C 
BRANCH  18  21
ATOM      2  O   UNL     1      -0.696  -1.179  26.079  0.00  0.00    -0.461 OA
ATOM     21  C   UNL     1      -1.307  -1.888  25.093  0.00  0.00    +0.153 A 
ATOM     23  C   UNL     1      -0.500  -2.917  24.667  0.00  0.00    +0.051 A 
ATOM     25  C   UNL     1       0.683  -2.835  25.440  0.00  0.00    +0.042 A 
ATOM     26  C   UNL     1       0.513  -1.762  26.284  0.00  0.00    +0.196 A 
ENDBRANCH  18  21
ENDBRANCH   9  16
BRANCH  10  15
ATOM     15  C   UNL     1      -1.741   3.538  26.289  0.00  0.00    +0.124 C 
BRANCH  15   4
ATOM      1  O   UNL     1       0.217   3.453  24.200  0.00  0.00    -0.253 OA
ATOM      4  N   UNL     1      -1.081   2.375  25.783  0.00  0.00    -0.298 N 
ATOM      7  N   UNL     1       0.346   1.124  24.469  0.00  0.00    -0.269 N 
ATOM     20  C   UNL     1      -0.125   2.410  24.751  0.00  0.00    +0.304 C 
ATOM     32  H   UNL     1      -1.318   1.474  26.188  0.00  0.00    +0.150 HD
ATOM     33  H   UNL     1      -0.043   0.364  25.020  0.00  0.00    +0.156 HD
BRANCH   7  24
ATOM     24  C   UNL     1       1.308   0.745  23.503  0.00  0.00    +0.035 A 
ATOM     27  C   UNL     1       0.974  -0.177  22.511  0.00  0.00    +0.023 A 
ATOM     28  C   UNL     1       2.589   1.294  23.542  0.00  0.00    +0.023 A 
ATOM     29  C   UNL     1       1.922  -0.551  21.560  0.00  0.00    +0.002 A 
ATOM     30  C   UNL     1       3.538   0.921  22.590  0.00  0.00    +0.002 A 
ATOM     31  C   UNL     1       3.204  -0.001  21.599  0.00  0.00    +0.000 A 
ENDBRANCH   7  24
ENDBRANCH  15   4
ENDBRANCH  10  15
TORSDOF 5
ENDMDL
MODEL 8
REMARK VINA RESULT:       4.1      2.351      5.950
REMARK  Name = 26742458
REMARK  6 active torsions:
REMARK  status: ('A' for Active; 'I' for Inactive)
REMARK    1  A    between atoms: N_4  and  C_15
REMARK    2  A    between atoms: N_7  and  C_24
REMARK    3  A    between atoms: C_9  and  C_16
REMARK    4  A    between atoms: C_10  and  C_15
REMARK    5  A    between atoms: C_18  and  C_21
REMARK    6  A    between atoms: C_19  and  C_22
REMARK                            x       y       z     vdW  Elec       q    Type
REMARK                         _______ _______ _______ _____ _____    ______ ____
ROOT
ATOM      3  N   UNL     1      -5.102   3.993  24.140  0.00  0.00    -0.297 NA
ATOM      8  C   UNL     1      -3.736   4.364  26.325  0.00  0.00    +0.002 C 
ATOM      9  C   UNL     1      -2.782   4.153  25.116  0.00  0.00    +0.055 C 
ATOM     10  C   UNL     1      -5.606   3.095  25.212  0.00  0.00    +0.074 C 
ATOM     11  C   UNL     1      -4.681   3.150  26.447  0.00  0.00    +0.024 C 
ATOM     12  C   UNL     1      -4.612   5.590  25.991  0.00  0.00    +0.019 C 
ATOM     13  C   UNL     1      -3.659   3.739  23.900  0.00  0.00    +0.094 C 
ATOM     14  C   UNL     1      -5.255   5.391  24.607  0.00  0.00    +0.085 C 
ENDROOT
BRANCH   9  16
ATOM      5  N   UNL     1      -1.013   3.218  26.524  0.00  0.00    -0.237 NA
ATOM      6  N   UNL     1       0.576   1.610  25.689  0.00  0.00    -0.229 NA
ATOM     16  C   UNL     1      -1.582   3.235  25.300  0.00  0.00    +0.050 A 
ATOM     17  C   UNL     1      -1.134   2.479  24.236  0.00  0.00    +0.055 A 
ATOM     18  C   UNL     1      -0.041   1.676  24.491  0.00  0.00    +0.110 A 
ATOM     19  C   UNL     1       0.046   2.395  26.646  0.00  0.00    +0.127 A 
ATOM     22  C   UNL     1       0.701   2.346  27.985  0.00  0.00    +0.088 C 
BRANCH  18  21
ATOM      2  O   UNL     1       1.868   0.979  23.281  0.00  0.00    -0.461 OA
ATOM     21  C   UNL     1       0.529   0.837  23.471  0.00  0.00    +0.153 A 
ATOM     23  C   UNL     1       0.017  -0.108  22.614  0.00  0.00    +0.051 A 
ATOM     25  C   UNL     1       1.110  -0.577  21.847  0.00  0.00    +0.042 A 
ATOM     26  C   UNL     1       2.213   0.114  22.292  0.00  0.00    +0.196 A 
ENDBRANCH  18  21
ENDBRANCH   9  16
BRANCH  10  15
ATOM     15  C   UNL     1      -5.817   1.661  24.722  0.00  0.00    +0.124 C 
BRANCH  15   4
ATOM      1  O   UNL     1      -3.580   0.280  23.584  0.00  0.00    -0.253 OA
ATOM      4  N   UNL     1      -4.938   0.757  25.396  0.00  0.00    -0.298 N 
ATOM      7  N   UNL     1      -3.177  -0.709  25.675  0.00  0.00    -0.269 N 
ATOM     20  C   UNL     1      -3.855   0.113  24.770  0.00  0.00    +0.304 C 
ATOM     32  H   UNL     1      -5.107   0.566  26.379  0.00  0.00    +0.150 HD
ATOM     33  H   UNL     1      -3.536  -0.735  26.625  0.00  0.00    +0.156 HD
BRANCH   7  24
ATOM     24  C   UNL     1      -2.041  -1.516  25.431  0.00  0.00    +0.035 A 
ATOM     27  C   UNL     1      -0.854  -1.277  26.122  0.00  0.00    +0.023 A 
ATOM     28  C   UNL     1      -2.109  -2.553  24.500  0.00  0.00    +0.023 A 
ATOM     29  C   UNL     1       0.266  -2.073  25.882  0.00  0.00    +0.002 A 
ATOM     30  C   UNL     1      -0.989  -3.350  24.260  0.00  0.00    +0.002 A 
ATOM     31  C   UNL     1       0.197  -3.110  24.951  0.00  0.00    +0.000 A 
ENDBRANCH   7  24
ENDBRANCH  15   4
ENDBRANCH  10  15
TORSDOF 5
ENDMDL
MODEL 9
REMARK VINA RESULT:       5.4      2.123      6.235
REMARK  Name = 26742458
REMARK  6 active torsions:
REMARK  status: ('A' for Active; 'I' for Inactive)
REMARK    1  A    between atoms: N_4  and  C_15
REMARK    2  A    between atoms: N_7  and  C_24
REMARK    3  A    between atoms: C_9  and  C_16
REMARK    4  A    between atoms: C_10  and  C_15
REMARK    5  A    between atoms: C_18  and  C_21
REMARK    6  A    between atoms: C_19  and  C_22
REMARK                            x       y       z     vdW  Elec       q    Type
REMARK                         _______ _______ _______ _____ _____    ______ ____
ROOT
ATOM      3  N   UNL     1      -3.384  -2.500  25.632  0.00  0.00    -0.297 NA
ATOM      8  C   UNL     1      -0.895  -2.829  24.940  0.00  0.00    +0.002 C 
ATOM      9  C   UNL     1      -1.107  -1.418  25.555  0.00  0.00    +0.055 C 
ATOM     10  C   UNL     1      -3.307  -3.005  24.235  0.00  0.00    +0.074 C 
ATOM     11  C   UNL     1      -1.846  -3.010  23.738  0.00  0.00    +0.024 C 
ATOM     12  C   UNL     1      -1.323  -3.851  26.015  0.00  0.00    +0.019 C 
ATOM     13  C   UNL     1      -2.637  -1.223  25.752  0.00  0.00    +0.094 C 
ATOM     14  C   UNL     1      -2.736  -3.500  26.514  0.00  0.00    +0.085 C 
ENDROOT
BRANCH   9  16
ATOM      5  N   UNL     1       0.538  -0.500  23.994  0.00  0.00    -0.237 NA
ATOM      6  N   UNL     1       0.744   1.867  23.590  0.00  0.00    -0.229 NA
ATOM     16  C   UNL     1      -0.458  -0.228  24.862  0.00  0.00    +0.050 A 
ATOM     17  C   UNL     1      -0.903   1.048  25.143  0.00  0.00    +0.055 A 
ATOM     18  C   UNL     1      -0.259   2.067  24.470  0.00  0.00    +0.110 A 
ATOM     19  C   UNL     1       1.087   0.578  23.403  0.00  0.00    +0.127 A 
ATOM     22  C   UNL     1       2.191   0.319  22.435  0.00  0.00    +0.088 C 
BRANCH  18  21
ATOM      2  O   UNL     1      -1.471   3.680  25.704  0.00  0.00    -0.461 OA
ATOM     21  C   UNL     1      -0.622   3.445  24.670  0.00  0.00    +0.153 A 
ATOM     23  C   UNL     1      -0.296   4.621  24.035  0.00  0.00    +0.051 A 
ATOM     25  C   UNL     1      -0.991   5.644  24.722  0.00  0.00    +0.042 A 
ATOM     26  C   UNL     1      -1.691   5.020  25.729  0.00  0.00    +0.196 A 
ENDBRANCH  18  21
ENDBRANCH   9  16
BRANCH  10  15
ATOM     15  C   UNL     1      -4.230  -2.238  23.286  0.00  0.00    +0.124 C 
BRANCH  15   4
ATOM      1  O   UNL     1      -3.508   0.528  23.109  0.00  0.00    -0.253 OA
ATOM      4  N   UNL     1      -4.860  -1.145  23.961  0.00  0.00    -0.298 N 
ATOM      7  N   UNL     1      -5.248   1.038  24.600  0.00  0.00    -0.269 N 
ATOM     20  C   UNL     1      -4.449   0.193  23.824  0.00  0.00    +0.304 C 
ATOM     32  H   UNL     1      -5.644  -1.347  24.574  0.00  0.00    +0.150 HD
ATOM     33  H   UNL     1      -5.990   0.598  25.138  0.00  0.00    +0.156 HD
BRANCH   7  24
ATOM     24  C   UNL     1      -5.154   2.443  24.731  0.00  0.00    +0.035 A 
ATOM     27  C   UNL     1      -4.349   3.173  23.856  0.00  0.00    +0.023 A 
ATOM     28  C   UNL     1      -5.866   3.100  25.735  0.00  0.00    +0.023 A 
ATOM     29  C   UNL     1      -4.255   4.558  23.986  0.00  0.00    +0.002 A 
ATOM     30  C   UNL     1      -5.773   4.486  25.863  0.00  0.00    +0.002 A 
ATOM     31  C   UNL     1      -4.968   5.215  24.989  0.00  0.00    +0.000 A 
ENDBRANCH   7  24
ENDBRANCH  15   4
ENDBRANCH  10  15
TORSDOF 5
ENDMDL
