MODEL 1
REMARK VINA RESULT:      -4.3      0.000      0.000
REMARK  Name = 11911845
REMARK  5 active torsions:
REMARK  status: ('A' for Active; 'I' for Inactive)
REMARK    1  A    between atoms: S_1  and  C_18
REMARK    2  A    between atoms: S_1  and  C_21
REMARK    3  A    between atoms: O_4  and  C_11
REMARK    4  A    between atoms: N_6  and  C_10
REMARK    5  A    between atoms: N_7  and  C_15
REMARK                            x       y       z     vdW  Elec       q    Type
REMARK                         _______ _______ _______ _____ _____    ______ ____
ROOT
ATOM      5  O   UNL     1      -5.110  -8.713  11.956  0.00  0.00    -0.252 OA
ATOM      6  N   UNL     1      -5.042 -10.240  10.222  0.00  0.00    -0.292 N 
ATOM      7  N   UNL     1      -4.027 -10.779  12.210  0.00  0.00    -0.269 N 
ATOM     14  C   UNL     1      -4.755  -9.805  11.521  0.00  0.00    +0.304 C 
ATOM     22  H   UNL     1      -4.772 -11.184   9.960  0.00  0.00    +0.151 HD
ATOM     24  H   UNL     1      -3.812 -11.632  11.700  0.00  0.00    +0.156 HD
ENDROOT
BRANCH   6  10
ATOM      2  O   UNL     1      -7.638 -10.781   8.598  0.00  0.00    -0.369 OA
ATOM      3  O   UNL     1      -7.524  -7.766   9.152  0.00  0.00    -0.369 OA
ATOM      8  C   UNL     1      -7.040  -8.897   9.906  0.00  0.00    +0.172 C 
ATOM      9  C   UNL     1      -8.056 -10.008   9.734  0.00  0.00    +0.179 C 
ATOM     10  C   UNL     1      -5.786  -9.446   9.267  0.00  0.00    +0.131 C 
ATOM     11  C   UNL     1      -9.329  -9.245   9.453  0.00  0.00    +0.171 C 
ATOM     12  C   UNL     1      -6.345 -10.332   8.167  0.00  0.00    +0.185 C 
ATOM     13  C   UNL     1      -8.827  -8.076   8.636  0.00  0.00    +0.194 C 
BRANCH  11   4
ATOM      4  O   UNL     1     -10.296 -10.001   8.759  0.00  0.00    -0.387 OA
ATOM     23  H   UNL     1     -10.666 -10.656   9.376  0.00  0.00    +0.210 HD
ENDBRANCH  11   4
ENDBRANCH   6  10
BRANCH   7  15
ATOM     15  C   UNL     1      -3.545 -10.725  13.539  0.00  0.00    +0.036 A 
ATOM     16  C   UNL     1      -4.445 -10.771  14.591  0.00  0.00    +0.038 A 
ATOM     17  C   UNL     1      -2.181 -10.625  13.761  0.00  0.00    +0.023 A 
ATOM     18  C   UNL     1      -3.969 -10.717  15.900  0.00  0.00    +0.009 A 
ATOM     19  C   UNL     1      -1.704 -10.570  15.070  0.00  0.00    +0.003 A 
ATOM     20  C   UNL     1      -2.598 -10.616  16.140  0.00  0.00    +0.015 A 
BRANCH  18   1
ATOM      1  S   UNL     1      -5.111 -10.776  17.268  0.00  0.00    -0.129 S 
ATOM     21  C   UNL     1      -6.437  -9.680  16.688  0.00  0.00    +0.090 C 
ENDBRANCH  18   1
ENDBRANCH   7  15
TORSDOF 4
ENDMDL
MODEL 2
REMARK VINA RESULT:      -3.9      1.480      2.456
REMARK  Name = 11911845
REMARK  5 active torsions:
REMARK  status: ('A' for Active; 'I' for Inactive)
REMARK    1  A    between atoms: S_1  and  C_18
REMARK    2  A    between atoms: S_1  and  C_21
REMARK    3  A    between atoms: O_4  and  C_11
REMARK    4  A    between atoms: N_6  and  C_10
REMARK    5  A    between atoms: N_7  and  C_15
REMARK                            x       y       z     vdW  Elec       q    Type
REMARK                         _______ _______ _______ _____ _____    ______ ____
ROOT
ATOM      5  O   UNL     1      -4.807  -9.268  12.444  0.00  0.00    -0.252 OA
ATOM      6  N   UNL     1      -6.590 -10.427  11.538  0.00  0.00    -0.292 N 
ATOM      7  N   UNL     1      -6.048 -10.780  13.741  0.00  0.00    -0.269 N 
ATOM     14  C   UNL     1      -5.720 -10.079  12.577  0.00  0.00    +0.304 C 
ATOM     22  H   UNL     1      -7.361 -11.055  11.746  0.00  0.00    +0.151 HD
ATOM     24  H   UNL     1      -6.837 -11.418  13.681  0.00  0.00    +0.156 HD
ENDROOT
BRANCH   6  10
ATOM      2  O   UNL     1      -8.636 -10.180   9.209  0.00  0.00    -0.369 OA
ATOM      3  O   UNL     1      -6.746  -7.772   9.019  0.00  0.00    -0.369 OA
ATOM      8  C   UNL     1      -7.212  -8.534  10.151  0.00  0.00    +0.172 C 
ATOM      9  C   UNL     1      -8.655  -8.903   9.868  0.00  0.00    +0.179 C 
ATOM     10  C   UNL     1      -6.499  -9.865  10.208  0.00  0.00    +0.131 C 
ATOM     11  C   UNL     1      -9.097  -7.800   8.935  0.00  0.00    +0.171 C 
ATOM     12  C   UNL     1      -7.300 -10.703   9.225  0.00  0.00    +0.185 C 
ATOM     13  C   UNL     1      -7.847  -7.547   8.125  0.00  0.00    +0.194 C 
BRANCH  11   4
ATOM      4  O   UNL     1     -10.193  -8.156   8.124  0.00  0.00    -0.387 OA
ATOM     23  H   UNL     1     -10.261  -9.127   8.117  0.00  0.00    +0.210 HD
ENDBRANCH  11   4
ENDBRANCH   6  10
BRANCH   7  15
ATOM     15  C   UNL     1      -5.414 -10.711  15.004  0.00  0.00    +0.036 A 
ATOM     16  C   UNL     1      -4.032 -10.763  15.075  0.00  0.00    +0.038 A 
ATOM     17  C   UNL     1      -6.190 -10.596  16.146  0.00  0.00    +0.023 A 
ATOM     18  C   UNL     1      -3.409 -10.695  16.321  0.00  0.00    +0.009 A 
ATOM     19  C   UNL     1      -5.568 -10.530  17.392  0.00  0.00    +0.003 A 
ATOM     20  C   UNL     1      -4.177 -10.580  17.479  0.00  0.00    +0.015 A 
BRANCH  18   1
ATOM      1  S   UNL     1      -1.630 -10.759  16.433  0.00  0.00    -0.129 S 
ATOM     21  C   UNL     1      -1.136 -10.193  14.780  0.00  0.00    +0.090 C 
ENDBRANCH  18   1
ENDBRANCH   7  15
TORSDOF 4
ENDMDL
MODEL 3
REMARK VINA RESULT:      -2.9     16.797     18.741
REMARK  Name = 11911845
REMARK  5 active torsions:
REMARK  status: ('A' for Active; 'I' for Inactive)
REMARK    1  A    between atoms: S_1  and  C_18
REMARK    2  A    between atoms: S_1  and  C_21
REMARK    3  A    between atoms: O_4  and  C_11
REMARK    4  A    between atoms: N_6  and  C_10
REMARK    5  A    between atoms: N_7  and  C_15
REMARK                            x       y       z     vdW  Elec       q    Type
REMARK                         _______ _______ _______ _____ _____    ______ ____
ROOT
ATOM      5  O   UNL     1      -0.274   0.138  24.227  0.00  0.00    -0.252 OA
ATOM      6  N   UNL     1       1.512   1.166  23.178  0.00  0.00    -0.292 N 
ATOM      7  N   UNL     1      -0.197   2.471  23.985  0.00  0.00    -0.269 N 
ATOM     14  C   UNL     1       0.279   1.165  23.841  0.00  0.00    +0.304 C 
ATOM     22  H   UNL     1       1.935   2.061  22.952  0.00  0.00    +0.151 HD
ATOM     24  H   UNL     1       0.387   3.212  23.606  0.00  0.00    +0.156 HD
ENDROOT
BRANCH   6  10
ATOM      2  O   UNL     1       4.347   0.667  22.004  0.00  0.00    -0.369 OA
ATOM      3  O   UNL     1       3.735  -1.650  23.918  0.00  0.00    -0.369 OA
ATOM      8  C   UNL     1       3.322  -0.268  23.926  0.00  0.00    +0.172 C 
ATOM      9  C   UNL     1       4.500   0.545  23.428  0.00  0.00    +0.179 C 
ATOM     10  C   UNL     1       2.253  -0.041  22.883  0.00  0.00    +0.131 C 
ATOM     11  C   UNL     1       5.678  -0.328  23.790  0.00  0.00    +0.171 C 
ATOM     12  C   UNL     1       3.071   0.138  21.616  0.00  0.00    +0.185 C 
ATOM     13  C   UNL     1       5.125  -1.717  23.566  0.00  0.00    +0.194 C 
BRANCH  11   4
ATOM      4  O   UNL     1       6.823  -0.080  23.008  0.00  0.00    -0.387 OA
ATOM     23  H   UNL     1       7.172   0.795  23.253  0.00  0.00    +0.210 HD
ENDBRANCH  11   4
ENDBRANCH   6  10
BRANCH   7  15
ATOM     15  C   UNL     1      -1.401   2.894  24.596  0.00  0.00    +0.036 A 
ATOM     16  C   UNL     1      -2.527   2.094  24.506  0.00  0.00    +0.038 A 
ATOM     17  C   UNL     1      -1.428   4.104  25.270  0.00  0.00    +0.023 A 
ATOM     18  C   UNL     1      -3.713   2.513  25.108  0.00  0.00    +0.009 A 
ATOM     19  C   UNL     1      -2.614   4.525  25.872  0.00  0.00    +0.003 A 
ATOM     20  C   UNL     1      -3.756   3.729  25.791  0.00  0.00    +0.015 A 
BRANCH  18   1
ATOM      1  S   UNL     1      -5.174   1.496  25.005  0.00  0.00    -0.129 S 
ATOM     21  C   UNL     1      -4.463  -0.135  24.649  0.00  0.00    +0.090 C 
ENDBRANCH  18   1
ENDBRANCH   7  15
TORSDOF 4
ENDMDL
MODEL 4
REMARK VINA RESULT:      -2.8     25.731     26.845
REMARK  Name = 11911845
REMARK  5 active torsions:
REMARK  status: ('A' for Active; 'I' for Inactive)
REMARK    1  A    between atoms: S_1  and  C_18
REMARK    2  A    between atoms: S_1  and  C_21
REMARK    3  A    between atoms: O_4  and  C_11
REMARK    4  A    between atoms: N_6  and  C_10
REMARK    5  A    between atoms: N_7  and  C_15
REMARK                            x       y       z     vdW  Elec       q    Type
REMARK                         _______ _______ _______ _____ _____    ______ ____
ROOT
ATOM      5  O   UNL     1      17.176  -5.313  27.781  0.00  0.00    -0.252 OA
ATOM      6  N   UNL     1      16.274  -5.281  25.652  0.00  0.00    -0.292 N 
ATOM      7  N   UNL     1      15.401  -6.735  27.201  0.00  0.00    -0.269 N 
ATOM     14  C   UNL     1      16.359  -5.744  26.971  0.00  0.00    +0.304 C 
ATOM     22  H   UNL     1      15.527  -5.639  25.064  0.00  0.00    +0.151 HD
ATOM     24  H   UNL     1      14.799  -6.977  26.418  0.00  0.00    +0.156 HD
ENDROOT
BRANCH   6  10
ATOM      2  O   UNL     1      16.356  -3.809  22.914  0.00  0.00    -0.369 OA
ATOM      3  O   UNL     1      17.387  -1.845  25.033  0.00  0.00    -0.369 OA
ATOM      8  C   UNL     1      16.426  -2.919  25.111  0.00  0.00    +0.172 C 
ATOM      9  C   UNL     1      15.660  -2.919  23.802  0.00  0.00    +0.179 C 
ATOM     10  C   UNL     1      17.138  -4.251  25.117  0.00  0.00    +0.131 C 
ATOM     11  C   UNL     1      15.777  -1.481  23.355  0.00  0.00    +0.171 C 
ATOM     12  C   UNL     1      17.391  -4.490  23.639  0.00  0.00    +0.185 C 
ATOM     13  C   UNL     1      17.170  -1.116  23.817  0.00  0.00    +0.194 C 
BRANCH  11   4
ATOM      4  O   UNL     1      15.616  -1.309  21.966  0.00  0.00    -0.387 OA
ATOM     23  H   UNL     1      15.664  -2.185  21.546  0.00  0.00    +0.210 HD
ENDBRANCH  11   4
ENDBRANCH   6  10
BRANCH   7  15
ATOM     15  C   UNL     1      15.162  -7.451  28.397  0.00  0.00    +0.036 A 
ATOM     16  C   UNL     1      14.472  -6.839  29.430  0.00  0.00    +0.038 A 
ATOM     17  C   UNL     1      15.628  -8.751  28.512  0.00  0.00    +0.023 A 
ATOM     18  C   UNL     1      14.238  -7.547  30.608  0.00  0.00    +0.009 A 
ATOM     19  C   UNL     1      15.395  -9.459  29.691  0.00  0.00    +0.003 A 
ATOM     20  C   UNL     1      14.700  -8.856  30.739  0.00  0.00    +0.015 A 
BRANCH  18   1
ATOM      1  S   UNL     1      13.349  -6.777  31.949  0.00  0.00    -0.129 S 
ATOM     21  C   UNL     1      14.530  -5.510  32.494  0.00  0.00    +0.090 C 
ENDBRANCH  18   1
ENDBRANCH   7  15
TORSDOF 4
ENDMDL
MODEL 5
REMARK VINA RESULT:      -2.6     24.364     28.088
REMARK  Name = 11911845
REMARK  5 active torsions:
REMARK  status: ('A' for Active; 'I' for Inactive)
REMARK    1  A    between atoms: S_1  and  C_18
REMARK    2  A    between atoms: S_1  and  C_21
REMARK    3  A    between atoms: O_4  and  C_11
REMARK    4  A    between atoms: N_6  and  C_10
REMARK    5  A    between atoms: N_7  and  C_15
REMARK                            x       y       z     vdW  Elec       q    Type
REMARK                         _______ _______ _______ _____ _____    ______ ____
ROOT
ATOM      5  O   UNL     1      12.930  -7.662  30.716  0.00  0.00    -0.252 OA
ATOM      6  N   UNL     1      14.021  -6.910  32.611  0.00  0.00    -0.292 N 
ATOM      7  N   UNL     1      11.963  -7.904  32.841  0.00  0.00    -0.269 N 
ATOM     14  C   UNL     1      12.954  -7.515  31.936  0.00  0.00    +0.304 C 
ATOM     22  H   UNL     1      13.996  -6.887  33.626  0.00  0.00    +0.151 HD
ATOM     24  H   UNL     1      12.140  -7.706  33.823  0.00  0.00    +0.156 HD
ENDROOT
BRANCH   6  10
ATOM      2  O   UNL     1      14.584  -4.286  31.042  0.00  0.00    -0.369 OA
ATOM      3  O   UNL     1      17.219  -5.141  32.359  0.00  0.00    -0.369 OA
ATOM      8  C   UNL     1      15.845  -5.316  32.765  0.00  0.00    +0.172 C 
ATOM      9  C   UNL     1      15.104  -4.057  32.362  0.00  0.00    +0.179 C 
ATOM     10  C   UNL     1      15.197  -6.403  31.939  0.00  0.00    +0.131 C 
ATOM     11  C   UNL     1      16.201  -3.019  32.357  0.00  0.00    +0.171 C 
ATOM     12  C   UNL     1      14.802  -5.657  30.676  0.00  0.00    +0.185 C 
ATOM     13  C   UNL     1      17.386  -3.809  31.851  0.00  0.00    +0.194 C 
BRANCH  11   4
ATOM      4  O   UNL     1      15.918  -1.905  31.542  0.00  0.00    -0.387 OA
ATOM     23  H   UNL     1      15.243  -1.367  31.990  0.00  0.00    +0.210 HD
ENDBRANCH  11   4
ENDBRANCH   6  10
BRANCH   7  15
ATOM     15  C   UNL     1      10.733  -8.545  32.561  0.00  0.00    +0.036 A 
ATOM     16  C   UNL     1       9.547  -7.863  32.775  0.00  0.00    +0.038 A 
ATOM     17  C   UNL     1      10.742  -9.844  32.079  0.00  0.00    +0.023 A 
ATOM     18  C   UNL     1       8.336  -8.496  32.498  0.00  0.00    +0.009 A 
ATOM     19  C   UNL     1       9.531 -10.478  31.803  0.00  0.00    +0.003 A 
ATOM     20  C   UNL     1       8.328  -9.804  32.013  0.00  0.00    +0.015 A 
BRANCH  18   1
ATOM      1  S   UNL     1       6.798  -7.635  32.767  0.00  0.00    -0.129 S 
ATOM     21  C   UNL     1       5.830  -8.152  31.320  0.00  0.00    +0.090 C 
ENDBRANCH  18   1
ENDBRANCH   7  15
TORSDOF 4
ENDMDL
MODEL 6
REMARK VINA RESULT:      -2.4     24.633     27.122
REMARK  Name = 11911845
REMARK  5 active torsions:
REMARK  status: ('A' for Active; 'I' for Inactive)
REMARK    1  A    between atoms: S_1  and  C_18
REMARK    2  A    between atoms: S_1  and  C_21
REMARK    3  A    between atoms: O_4  and  C_11
REMARK    4  A    between atoms: N_6  and  C_10
REMARK    5  A    between atoms: N_7  and  C_15
REMARK                            x       y       z     vdW  Elec       q    Type
REMARK                         _______ _______ _______ _____ _____    ______ ____
ROOT
ATOM      5  O   UNL     1      11.595  -6.874  30.923  0.00  0.00    -0.252 OA
ATOM      6  N   UNL     1      13.211  -7.411  32.486  0.00  0.00    -0.292 N 
ATOM      7  N   UNL     1      11.277  -8.648  32.426  0.00  0.00    -0.269 N 
ATOM     14  C   UNL     1      11.975  -7.583  31.851  0.00  0.00    +0.304 C 
ATOM     22  H   UNL     1      13.481  -8.081  33.201  0.00  0.00    +0.151 HD
ATOM     24  H   UNL     1      11.736  -9.133  33.192  0.00  0.00    +0.156 HD
ENDROOT
BRANCH   6  10
ATOM      2  O   UNL     1      16.139  -7.524  31.448  0.00  0.00    -0.369 OA
ATOM      3  O   UNL     1      14.834  -5.036  30.217  0.00  0.00    -0.369 OA
ATOM      8  C   UNL     1      14.284  -6.312  30.606  0.00  0.00    +0.172 C 
ATOM      9  C   UNL     1      15.327  -7.360  30.274  0.00  0.00    +0.179 C 
ATOM     10  C   UNL     1      14.159  -6.385  32.110  0.00  0.00    +0.131 C 
ATOM     11  C   UNL     1      16.097  -6.710  29.149  0.00  0.00    +0.171 C 
ATOM     12  C   UNL     1      15.562  -6.783  32.533  0.00  0.00    +0.185 C 
ATOM     13  C   UNL     1      16.090  -5.255  29.557  0.00  0.00    +0.194 C 
BRANCH  11   4
ATOM      4  O   UNL     1      17.405  -7.213  28.999  0.00  0.00    -0.387 OA
ATOM     23  H   UNL     1      17.345  -8.090  28.584  0.00  0.00    +0.210 HD
ENDBRANCH  11   4
ENDBRANCH   6  10
BRANCH   7  15
ATOM     15  C   UNL     1       9.998  -9.140  32.072  0.00  0.00    +0.036 A 
ATOM     16  C   UNL     1       8.867  -8.475  32.517  0.00  0.00    +0.038 A 
ATOM     17  C   UNL     1       9.904 -10.278  31.289  0.00  0.00    +0.023 A 
ATOM     18  C   UNL     1       7.608  -8.962  32.168  0.00  0.00    +0.009 A 
ATOM     19  C   UNL     1       8.645 -10.766  30.941  0.00  0.00    +0.003 A 
ATOM     20  C   UNL     1       7.496 -10.108  31.380  0.00  0.00    +0.015 A 
BRANCH  18   1
ATOM      1  S   UNL     1       6.139  -8.121  32.731  0.00  0.00    -0.129 S 
ATOM     21  C   UNL     1       6.727  -6.409  32.873  0.00  0.00    +0.090 C 
ENDBRANCH  18   1
ENDBRANCH   7  15
TORSDOF 4
ENDMDL
MODEL 7
REMARK VINA RESULT:      -1.8     16.436     18.291
REMARK  Name = 11911845
REMARK  5 active torsions:
REMARK  status: ('A' for Active; 'I' for Inactive)
REMARK    1  A    between atoms: S_1  and  C_18
REMARK    2  A    between atoms: S_1  and  C_21
REMARK    3  A    between atoms: O_4  and  C_11
REMARK    4  A    between atoms: N_6  and  C_10
REMARK    5  A    between atoms: N_7  and  C_15
REMARK                            x       y       z     vdW  Elec       q    Type
REMARK                         _______ _______ _______ _____ _____    ______ ____
ROOT
ATOM      5  O   UNL     1      -0.230  -1.231  23.778  0.00  0.00    -0.252 OA
ATOM      6  N   UNL     1       1.145   0.360  22.817  0.00  0.00    -0.292 N 
ATOM      7  N   UNL     1      -0.951   0.987  23.515  0.00  0.00    -0.269 N 
ATOM     14  C   UNL     1      -0.046  -0.073  23.412  0.00  0.00    +0.304 C 
ATOM     22  H   UNL     1       1.245   1.348  22.605  0.00  0.00    +0.151 HD
ATOM     24  H   UNL     1      -0.640   1.887  23.160  0.00  0.00    +0.156 HD
ENDROOT
BRANCH   6  10
ATOM      2  O   UNL     1       4.147   0.907  22.224  0.00  0.00    -0.369 OA
ATOM      3  O   UNL     1       3.992  -1.749  23.751  0.00  0.00    -0.369 OA
ATOM      8  C   UNL     1       3.163  -0.569  23.797  0.00  0.00    +0.172 C 
ATOM      9  C   UNL     1       4.085   0.623  23.632  0.00  0.00    +0.179 C 
ATOM     10  C   UNL     1       2.273  -0.514  22.578  0.00  0.00    +0.131 C 
ATOM     11  C   UNL     1       5.400   0.094  24.153  0.00  0.00    +0.171 C 
ATOM     12  C   UNL     1       3.194   0.089  21.531  0.00  0.00    +0.185 C 
ATOM     13  C   UNL     1       5.369  -1.346  23.695  0.00  0.00    +0.194 C 
BRANCH  11   4
ATOM      4  O   UNL     1       6.522   0.786  23.655  0.00  0.00    -0.387 OA
ATOM     23  H   UNL     1       7.078   1.042  24.411  0.00  0.00    +0.210 HD
ENDBRANCH  11   4
ENDBRANCH   6  10
BRANCH   7  15
ATOM     15  C   UNL     1      -2.259   0.963  24.054  0.00  0.00    +0.036 A 
ATOM     16  C   UNL     1      -2.801   2.126  24.576  0.00  0.00    +0.038 A 
ATOM     17  C   UNL     1      -2.971  -0.225  24.050  0.00  0.00    +0.023 A 
ATOM     18  C   UNL     1      -4.090   2.100  25.107  0.00  0.00    +0.009 A 
ATOM     19  C   UNL     1      -4.260  -0.252  24.583  0.00  0.00    +0.003 A 
ATOM     20  C   UNL     1      -4.819   0.911  25.111  0.00  0.00    +0.015 A 
BRANCH  18   1
ATOM      1  S   UNL     1      -4.806   3.587  25.783  0.00  0.00    -0.129 S 
ATOM     21  C   UNL     1      -3.326   4.513  26.284  0.00  0.00    +0.090 C 
ENDBRANCH  18   1
ENDBRANCH   7  15
TORSDOF 4
ENDMDL
MODEL 8
REMARK VINA RESULT:      -1.3     26.162     27.299
REMARK  Name = 11911845
REMARK  5 active torsions:
REMARK  status: ('A' for Active; 'I' for Inactive)
REMARK    1  A    between atoms: S_1  and  C_18
REMARK    2  A    between atoms: S_1  and  C_21
REMARK    3  A    between atoms: O_4  and  C_11
REMARK    4  A    between atoms: N_6  and  C_10
REMARK    5  A    between atoms: N_7  and  C_15
REMARK                            x       y       z     vdW  Elec       q    Type
REMARK                         _______ _______ _______ _____ _____    ______ ____
ROOT
ATOM      5  O   UNL     1      15.276  -6.371  26.006  0.00  0.00    -0.252 OA
ATOM      6  N   UNL     1      17.103  -5.044  25.508  0.00  0.00    -0.292 N 
ATOM      7  N   UNL     1      17.315  -6.653  27.134  0.00  0.00    -0.269 N 
ATOM     14  C   UNL     1      16.449  -6.065  26.207  0.00  0.00    +0.304 C 
ATOM     22  H   UNL     1      18.093  -4.898  25.685  0.00  0.00    +0.151 HD
ATOM     24  H   UNL     1      18.259  -6.278  27.175  0.00  0.00    +0.156 HD
ENDROOT
BRANCH   6  10
ATOM      2  O   UNL     1      15.893  -2.180  25.503  0.00  0.00    -0.369 OA
ATOM      3  O   UNL     1      16.975  -2.716  22.683  0.00  0.00    -0.369 OA
ATOM      8  C   UNL     1      17.405  -3.184  23.978  0.00  0.00    +0.172 C 
ATOM      9  C   UNL     1      17.211  -2.036  24.947  0.00  0.00    +0.179 C 
ATOM     10  C   UNL     1      16.463  -4.252  24.481  0.00  0.00    +0.131 C 
ATOM     11  C   UNL     1      17.308  -0.827  24.047  0.00  0.00    +0.171 C 
ATOM     12  C   UNL     1      15.332  -3.431  25.077  0.00  0.00    +0.185 C 
ATOM     13  C   UNL     1      16.650  -1.321  22.779  0.00  0.00    +0.194 C 
BRANCH  11   4
ATOM      4  O   UNL     1      16.668   0.315  24.568  0.00  0.00    -0.387 OA
ATOM     23  H   UNL     1      17.100   1.101  24.192  0.00  0.00    +0.210 HD
ENDBRANCH  11   4
ENDBRANCH   6  10
BRANCH   7  15
ATOM     15  C   UNL     1      17.039  -7.712  28.030  0.00  0.00    +0.036 A 
ATOM     16  C   UNL     1      16.525  -7.426  29.284  0.00  0.00    +0.038 A 
ATOM     17  C   UNL     1      17.293  -9.015  27.635  0.00  0.00    +0.023 A 
ATOM     18  C   UNL     1      16.255  -8.472  30.166  0.00  0.00    +0.009 A 
ATOM     19  C   UNL     1      17.023 -10.062  28.517  0.00  0.00    +0.003 A 
ATOM     20  C   UNL     1      16.504  -9.790  29.783  0.00  0.00    +0.015 A 
BRANCH  18   1
ATOM      1  S   UNL     1      15.591  -8.124  31.784  0.00  0.00    -0.129 S 
ATOM     21  C   UNL     1      14.454  -6.755  31.430  0.00  0.00    +0.090 C 
ENDBRANCH  18   1
ENDBRANCH   7  15
TORSDOF 4
ENDMDL
MODEL 9
REMARK VINA RESULT:      -1.1     16.378     18.071
REMARK  Name = 11911845
REMARK  5 active torsions:
REMARK  status: ('A' for Active; 'I' for Inactive)
REMARK    1  A    between atoms: S_1  and  C_18
REMARK    2  A    between atoms: S_1  and  C_21
REMARK    3  A    between atoms: O_4  and  C_11
REMARK    4  A    between atoms: N_6  and  C_10
REMARK    5  A    between atoms: N_7  and  C_15
REMARK                            x       y       z     vdW  Elec       q    Type
REMARK                         _______ _______ _______ _____ _____    ______ ____
ROOT
ATOM      5  O   UNL     1      -1.657   2.377  22.777  0.00  0.00    -0.252 OA
ATOM      6  N   UNL     1      -1.799   2.970  25.008  0.00  0.00    -0.292 N 
ATOM      7  N   UNL     1      -0.012   1.706  24.311  0.00  0.00    -0.269 N 
ATOM     14  C   UNL     1      -1.189   2.345  23.913  0.00  0.00    +0.304 C 
ATOM     22  H   UNL     1      -1.314   2.955  25.900  0.00  0.00    +0.151 HD
ATOM     24  H   UNL     1       0.234   1.776  25.295  0.00  0.00    +0.156 HD
ENDROOT
BRANCH   6  10
ATOM      2  O   UNL     1      -4.591   2.267  23.834  0.00  0.00    -0.369 OA
ATOM      3  O   UNL     1      -5.046   4.218  26.157  0.00  0.00    -0.369 OA
ATOM      8  C   UNL     1      -4.029   3.218  25.932  0.00  0.00    +0.172 C 
ATOM      9  C   UNL     1      -4.708   2.048  25.250  0.00  0.00    +0.179 C 
ATOM     10  C   UNL     1      -3.036   3.713  24.907  0.00  0.00    +0.131 C 
ATOM     11  C   UNL     1      -6.138   2.181  25.718  0.00  0.00    +0.171 C 
ATOM     12  C   UNL     1      -3.737   3.396  23.597  0.00  0.00    +0.185 C 
ATOM     13  C   UNL     1      -6.319   3.680  25.770  0.00  0.00    +0.194 C 
BRANCH  11   4
ATOM      4  O   UNL     1      -7.070   1.563  24.861  0.00  0.00    -0.387 OA
ATOM     23  H   UNL     1      -6.626   0.820  24.416  0.00  0.00    +0.210 HD
ENDBRANCH  11   4
ENDBRANCH   6  10
BRANCH   7  15
ATOM     15  C   UNL     1       0.889   0.966  23.509  0.00  0.00    +0.036 A 
ATOM     16  C   UNL     1       2.252   1.166  23.655  0.00  0.00    +0.038 A 
ATOM     17  C   UNL     1       0.388   0.058  22.591  0.00  0.00    +0.023 A 
ATOM     18  C   UNL     1       3.138   0.437  22.863  0.00  0.00    +0.009 A 
ATOM     19  C   UNL     1       1.274  -0.671  21.797  0.00  0.00    +0.003 A 
ATOM     20  C   UNL     1       2.649  -0.481  21.934  0.00  0.00    +0.015 A 
BRANCH  18   1
ATOM      1  S   UNL     1       4.896   0.680  23.037  0.00  0.00    -0.129 S 
ATOM     21  C   UNL     1       5.348  -0.684  24.147  0.00  0.00    +0.090 C 
ENDBRANCH  18   1
ENDBRANCH   7  15
TORSDOF 4
ENDMDL
MODEL 10
REMARK VINA RESULT:      -0.5      2.254      3.119
REMARK  Name = 11911845
REMARK  5 active torsions:
REMARK  status: ('A' for Active; 'I' for Inactive)
REMARK    1  A    between atoms: S_1  and  C_18
REMARK    2  A    between atoms: S_1  and  C_21
REMARK    3  A    between atoms: O_4  and  C_11
REMARK    4  A    between atoms: N_6  and  C_10
REMARK    5  A    between atoms: N_7  and  C_15
REMARK                            x       y       z     vdW  Elec       q    Type
REMARK                         _______ _______ _______ _____ _____    ______ ____
ROOT
ATOM      5  O   UNL     1      -4.842 -10.009  10.666  0.00  0.00    -0.252 OA
ATOM      6  N   UNL     1      -6.891 -10.753  11.436  0.00  0.00    -0.292 N 
ATOM      7  N   UNL     1      -5.115 -10.702  12.892  0.00  0.00    -0.269 N 
ATOM     14  C   UNL     1      -5.533 -10.443  11.583  0.00  0.00    +0.304 C 
ATOM     22  H   UNL     1      -7.410 -11.043  12.260  0.00  0.00    +0.151 HD
ATOM     24  H   UNL     1      -5.818 -11.063  13.531  0.00  0.00    +0.156 HD
ENDROOT
BRANCH   6  10
ATOM      2  O   UNL     1      -9.647  -9.493  10.742  0.00  0.00    -0.369 OA
ATOM      3  O   UNL     1      -7.820  -9.077   8.313  0.00  0.00    -0.369 OA
ATOM      8  C   UNL     1      -7.532  -9.154   9.725  0.00  0.00    +0.172 C 
ATOM      9  C   UNL     1      -8.679  -8.473  10.445  0.00  0.00    +0.179 C 
ATOM     10  C   UNL     1      -7.609 -10.590  10.191  0.00  0.00    +0.131 C 
ATOM     11  C   UNL     1      -9.189  -7.505   9.405  0.00  0.00    +0.171 C 
ATOM     12  C   UNL     1      -9.100 -10.778  10.414  0.00  0.00    +0.185 C 
ATOM     13  C   UNL     1      -9.002  -8.285   8.124  0.00  0.00    +0.194 C 
BRANCH  11   4
ATOM      4  O   UNL     1     -10.531  -7.122   9.602  0.00  0.00    -0.387 OA
ATOM     23  H   UNL     1     -10.537  -6.303  10.127  0.00  0.00    +0.210 HD
ENDBRANCH  11   4
ENDBRANCH   6  10
BRANCH   7  15
ATOM     15  C   UNL     1      -3.824 -10.523  13.442  0.00  0.00    +0.036 A 
ATOM     16  C   UNL     1      -2.773 -10.174  12.611  0.00  0.00    +0.038 A 
ATOM     17  C   UNL     1      -3.638 -10.702  14.803  0.00  0.00    +0.023 A 
ATOM     18  C   UNL     1      -1.501  -9.999  13.155  0.00  0.00    +0.009 A 
ATOM     19  C   UNL     1      -2.366 -10.528  15.348  0.00  0.00    +0.003 A 
ATOM     20  C   UNL     1      -1.298 -10.176  14.524  0.00  0.00    +0.015 A 
BRANCH  18   1
ATOM      1  S   UNL     1      -0.134  -9.549  12.102  0.00  0.00    -0.129 S 
ATOM     21  C   UNL     1       0.015  -7.770  12.431  0.00  0.00    +0.090 C 
ENDBRANCH  18   1
ENDBRANCH   7  15
TORSDOF 4
ENDMDL
