MODEL 1
REMARK VINA RESULT:      -3.4      0.000      0.000
REMARK  Name = 45783343
REMARK  10 active torsions:
REMARK  status: ('A' for Active; 'I' for Inactive)
REMARK    1  A    between atoms: O_2  and  C_25
REMARK    2  A    between atoms: O_2  and  C_28
REMARK    3  A    between atoms: O_3  and  C_29
REMARK    4  A    between atoms: O_3  and  C_30
REMARK    5  A    between atoms: N_4  and  C_13
REMARK    6  A    between atoms: C_9  and  C_14
REMARK    7  A    between atoms: C_13  and  C_15
REMARK    8  A    between atoms: C_18  and  C_21
REMARK    9  A    between atoms: C_22  and  C_26
REMARK   10  A    between atoms: C_28  and  C_29
REMARK                            x       y       z     vdW  Elec       q    Type
REMARK                         _______ _______ _______ _____ _____    ______ ____
ROOT
ATOM      1  O   UNL     1      -6.480  -8.164   9.192  0.00  0.00    -0.336 OA
ATOM      5  N   UNL     1      -6.236 -10.003  10.448  0.00  0.00    -0.190 NA
ATOM      6  N   UNL     1      -5.175  -8.120   9.697  0.00  0.00    -0.056 NA
ATOM     14  C   UNL     1      -7.036  -9.304   9.682  0.00  0.00    +0.245 A 
ATOM     18  C   UNL     1      -5.106  -9.238  10.427  0.00  0.00    +0.202 A 
ENDROOT
BRANCH  18  21
ATOM      7  N   UNL     1      -1.625 -10.360  12.552  0.00  0.00    -0.221 NA
ATOM     21  C   UNL     1      -3.926  -9.618  11.148  0.00  0.00    +0.029 A 
ATOM     23  C   UNL     1      -2.679  -9.167  10.732  0.00  0.00    +0.079 A 
ATOM     24  C   UNL     1      -4.025 -10.441  12.265  0.00  0.00    +0.031 A 
ATOM     25  C   UNL     1      -1.570  -9.562  11.462  0.00  0.00    +0.215 A 
ATOM     27  C   UNL     1      -2.855 -10.780  12.926  0.00  0.00    +0.115 A 
BRANCH  25   2
ATOM      2  O   UNL     1      -0.328  -9.129  11.072  0.00  0.00    -0.474 OA
BRANCH   2  28
ATOM     28  C   UNL     1       0.170  -7.959  11.709  0.00  0.00    +0.258 C 
BRANCH  28  29
ATOM     29  C   UNL     1       1.652  -7.828  11.414  0.00  0.00    +0.200 C 
BRANCH  29   3
ATOM      3  O   UNL     1       2.165  -6.696  12.106  0.00  0.00    -0.380 OA
ATOM     30  C   UNL     1       3.585  -6.671  12.083  0.00  0.00    +0.194 C 
ENDBRANCH  29   3
ENDBRANCH  28  29
ENDBRANCH   2  28
ENDBRANCH  25   2
ENDBRANCH  18  21
BRANCH  14   9
ATOM      4  N   UNL     1      -9.424  -9.363  10.376  0.00  0.00    -0.287 NA
ATOM      9  C   UNL     1      -8.466  -9.586   9.276  0.00  0.00    +0.146 C 
ATOM     10  C   UNL     1      -8.955  -8.669   8.139  0.00  0.00    +0.030 C 
ATOM     11  C   UNL     1     -10.223  -8.018   8.671  0.00  0.00    +0.017 C 
ATOM     12  C   UNL     1     -10.689  -8.974   9.752  0.00  0.00    +0.085 C 
BRANCH   4  13
ATOM     13  C   UNL     1      -9.578 -10.521  11.248  0.00  0.00    +0.120 C 
BRANCH  13  15
ATOM     15  C   UNL     1      -9.190 -10.207  12.669  0.00  0.00    -0.033 A 
ATOM     16  C   UNL     1      -7.879 -10.419  13.097  0.00  0.00    +0.006 A 
ATOM     17  C   UNL     1     -10.141  -9.705  13.557  0.00  0.00    +0.006 A 
ATOM     19  C   UNL     1      -7.520 -10.129  14.413  0.00  0.00    +0.019 A 
ATOM     20  C   UNL     1      -9.781  -9.415  14.874  0.00  0.00    +0.019 A 
ATOM     22  C   UNL     1      -8.471  -9.627  15.301  0.00  0.00    +0.052 A 
BRANCH  22  26
ATOM      8  N   UNL     1      -7.805  -9.088  17.745  0.00  0.00    -0.191 NA
ATOM     26  C   UNL     1      -8.103  -9.329  16.649  0.00  0.00    +0.099 C 
ENDBRANCH  22  26
ENDBRANCH  13  15
ENDBRANCH   4  13
ENDBRANCH  14   9
TORSDOF 9
ENDMDL
MODEL 2
REMARK VINA RESULT:      -2.0     15.145     16.953
REMARK  Name = 45783343
REMARK  10 active torsions:
REMARK  status: ('A' for Active; 'I' for Inactive)
REMARK    1  A    between atoms: O_2  and  C_25
REMARK    2  A    between atoms: O_2  and  C_28
REMARK    3  A    between atoms: O_3  and  C_29
REMARK    4  A    between atoms: O_3  and  C_30
REMARK    5  A    between atoms: N_4  and  C_13
REMARK    6  A    between atoms: C_9  and  C_14
REMARK    7  A    between atoms: C_13  and  C_15
REMARK    8  A    between atoms: C_18  and  C_21
REMARK    9  A    between atoms: C_22  and  C_26
REMARK   10  A    between atoms: C_28  and  C_29
REMARK                            x       y       z     vdW  Elec       q    Type
REMARK                         _______ _______ _______ _____ _____    ______ ____
ROOT
ATOM      1  O   UNL     1      -2.224   2.918  25.586  0.00  0.00    -0.336 OA
ATOM      5  N   UNL     1      -2.223   1.946  23.568  0.00  0.00    -0.190 NA
ATOM      6  N   UNL     1      -0.944   2.379  25.414  0.00  0.00    -0.056 NA
ATOM     14  C   UNL     1      -2.914   2.619  24.454  0.00  0.00    +0.245 A 
ATOM     18  C   UNL     1      -1.021   1.823  24.201  0.00  0.00    +0.202 A 
ENDROOT
BRANCH  18  21
ATOM      7  N   UNL     1       2.234  -0.200  22.412  0.00  0.00    -0.221 NA
ATOM     21  C   UNL     1       0.083   1.137  23.595  0.00  0.00    +0.029 A 
ATOM     23  C   UNL     1       1.369   1.655  23.697  0.00  0.00    +0.079 A 
ATOM     24  C   UNL     1      -0.129  -0.049  22.900  0.00  0.00    +0.031 A 
ATOM     25  C   UNL     1       2.401   0.956  23.094  0.00  0.00    +0.215 A 
ATOM     27  C   UNL     1       0.970  -0.673  22.332  0.00  0.00    +0.115 A 
BRANCH  25   2
ATOM      2  O   UNL     1       3.678   1.446  23.182  0.00  0.00    -0.474 OA
BRANCH   2  28
ATOM     28  C   UNL     1       4.729   0.563  22.810  0.00  0.00    +0.258 C 
BRANCH  28  29
ATOM     29  C   UNL     1       5.730   0.480  23.946  0.00  0.00    +0.200 C 
BRANCH  29   3
ATOM      3  O   UNL     1       5.508  -0.722  24.674  0.00  0.00    -0.380 OA
ATOM     30  C   UNL     1       4.800  -1.678  23.897  0.00  0.00    +0.194 C 
ENDBRANCH  29   3
ENDBRANCH  28  29
ENDBRANCH   2  28
ENDBRANCH  25   2
ENDBRANCH  18  21
BRANCH  14   9
ATOM      4  N   UNL     1      -5.184   2.539  25.469  0.00  0.00    -0.287 NA
ATOM      9  C   UNL     1      -4.348   3.100  24.390  0.00  0.00    +0.146 C 
ATOM     10  C   UNL     1      -4.471   4.627  24.553  0.00  0.00    +0.030 C 
ATOM     11  C   UNL     1      -5.442   4.826  25.707  0.00  0.00    +0.017 C 
ATOM     12  C   UNL     1      -6.226   3.529  25.742  0.00  0.00    +0.085 C 
BRANCH   4  13
ATOM     13  C   UNL     1      -5.743   1.233  25.143  0.00  0.00    +0.120 C 
BRANCH  13  15
ATOM     15  C   UNL     1      -4.673   0.180  25.025  0.00  0.00    -0.033 A 
ATOM     16  C   UNL     1      -3.798  -0.050  26.087  0.00  0.00    +0.006 A 
ATOM     17  C   UNL     1      -4.558  -0.568  23.853  0.00  0.00    +0.006 A 
ATOM     19  C   UNL     1      -2.808  -1.025  25.976  0.00  0.00    +0.019 A 
ATOM     20  C   UNL     1      -3.566  -1.544  23.742  0.00  0.00    +0.019 A 
ATOM     22  C   UNL     1      -2.692  -1.772  24.804  0.00  0.00    +0.052 A 
BRANCH  22  26
ATOM      8  N   UNL     1      -0.853  -3.584  24.599  0.00  0.00    -0.191 NA
ATOM     26  C   UNL     1      -1.678  -2.772  24.691  0.00  0.00    +0.099 C 
ENDBRANCH  22  26
ENDBRANCH  13  15
ENDBRANCH   4  13
ENDBRANCH  14   9
TORSDOF 9
ENDMDL
