MODEL 1
REMARK VINA RESULT:      -4.7      0.000      0.000
REMARK  Name = 26742631
REMARK  6 active torsions:
REMARK  status: ('A' for Active; 'I' for Inactive)
REMARK    1  A    between atoms: N_5  and  C_17
REMARK    2  A    between atoms: N_6  and  C_20
REMARK    3  A    between atoms: N_7  and  C_19
REMARK    4  A    between atoms: C_17  and  C_19
REMARK    5  A    between atoms: C_20  and  C_22
REMARK    6  A    between atoms: C_21  and  C_23
REMARK                            x       y       z     vdW  Elec       q    Type
REMARK                         _______ _______ _______ _____ _____    ______ ____
ROOT
ATOM      1  O   UNL     1      -8.519 -10.481   8.125  0.00  0.00    -0.276 OA
ATOM      2  O   UNL     1      -1.408 -10.747  12.059  0.00  0.00    -0.253 OA
ATOM      4  N   UNL     1      -3.685 -10.407  11.745  0.00  0.00    -0.285 N 
ATOM      5  N   UNL     1      -8.801 -10.171  10.409  0.00  0.00    -0.300 N 
ATOM      6  N   UNL     1      -2.705 -10.299  13.897  0.00  0.00    -0.296 N 
ATOM      8  C   UNL     1      -5.867  -9.218  11.454  0.00  0.00    +0.011 C 
ATOM      9  C   UNL     1      -5.817  -9.485   9.933  0.00  0.00    +0.004 C 
ATOM     10  C   UNL     1      -4.340  -9.564   9.507  0.00  0.00    +0.023 C 
ATOM     11  C   UNL     1      -5.058 -10.258  12.257  0.00  0.00    +0.113 C 
ATOM     12  C   UNL     1      -7.289  -9.041  12.015  0.00  0.00    +0.024 C 
ATOM     13  C   UNL     1      -6.582 -10.741   9.484  0.00  0.00    +0.100 C 
ATOM     14  C   UNL     1      -3.570 -10.615  10.299  0.00  0.00    +0.109 C 
ATOM     15  C   UNL     1      -8.244 -10.203  11.762  0.00  0.00    +0.108 C 
ATOM     16  C   UNL     1      -8.057 -10.457   9.268  0.00  0.00    +0.216 C 
ATOM     18  C   UNL     1      -2.522 -10.498  12.533  0.00  0.00    +0.302 C 
ATOM     25  H   UNL     1      -3.601 -10.042  14.284  0.00  0.00    +0.151 HD
ENDROOT
BRANCH   5  17
ATOM     17  C   UNL     1     -10.207  -9.809  10.290  0.00  0.00    +0.126 C 
BRANCH  17  19
ATOM     19  C   UNL     1     -10.403  -8.514   9.519  0.00  0.00    +0.123 C 
BRANCH  19   7
ATOM      3  O   UNL     1      -9.989  -5.948   8.226  0.00  0.00    -0.276 OA
ATOM      7  N   UNL     1      -9.151  -7.927   9.124  0.00  0.00    -0.314 N 
ATOM     21  C   UNL     1      -9.050  -6.688   8.508  0.00  0.00    +0.210 C 
ATOM     23  C   UNL     1      -7.622  -6.302   8.224  0.00  0.00    +0.109 C 
ATOM     26  H   UNL     1      -8.304  -8.458   9.307  0.00  0.00    +0.149 HD
ENDBRANCH  19   7
ENDBRANCH  17  19
ENDBRANCH   5  17
BRANCH   6  20
ATOM     20  C   UNL     1      -1.611 -10.370  14.839  0.00  0.00    +0.132 C 
BRANCH  20  22
ATOM     22  C   UNL     1      -2.163 -10.573  16.211  0.00  0.00    -0.016 C 
ATOM     24  C   UNL     1      -3.460 -10.774  16.472  0.00  0.00    +0.005 C 
ENDBRANCH  20  22
ENDBRANCH   6  20
TORSDOF 5
ENDMDL
MODEL 2
REMARK VINA RESULT:      -4.3      4.072      7.593
REMARK  Name = 26742631
REMARK  6 active torsions:
REMARK  status: ('A' for Active; 'I' for Inactive)
REMARK    1  A    between atoms: N_5  and  C_17
REMARK    2  A    between atoms: N_6  and  C_20
REMARK    3  A    between atoms: N_7  and  C_19
REMARK    4  A    between atoms: C_17  and  C_19
REMARK    5  A    between atoms: C_20  and  C_22
REMARK    6  A    between atoms: C_21  and  C_23
REMARK                            x       y       z     vdW  Elec       q    Type
REMARK                         _______ _______ _______ _____ _____    ______ ____
ROOT
ATOM      1  O   UNL     1      -4.301 -10.405  16.262  0.00  0.00    -0.276 OA
ATOM      2  O   UNL     1      -6.203  -8.412   8.612  0.00  0.00    -0.253 OA
ATOM      4  N   UNL     1      -6.540  -9.086  10.810  0.00  0.00    -0.285 N 
ATOM      5  N   UNL     1      -6.599 -10.229  15.977  0.00  0.00    -0.300 N 
ATOM      6  N   UNL     1      -8.358  -8.593   9.377  0.00  0.00    -0.296 N 
ATOM      8  C   UNL     1      -7.034 -10.564  12.767  0.00  0.00    +0.011 C 
ATOM      9  C   UNL     1      -5.527 -10.639  13.099  0.00  0.00    +0.004 C 
ATOM     10  C   UNL     1      -4.738 -10.480  11.788  0.00  0.00    +0.023 C 
ATOM     11  C   UNL     1      -7.399  -9.281  11.990  0.00  0.00    +0.113 C 
ATOM     12  C   UNL     1      -7.958 -10.781  13.980  0.00  0.00    +0.024 C 
ATOM     13  C   UNL     1      -5.058  -9.616  14.147  0.00  0.00    +0.100 C 
ATOM     14  C   UNL     1      -5.099  -9.194  11.053  0.00  0.00    +0.109 C 
ATOM     15  C   UNL     1      -7.738  -9.829  15.150  0.00  0.00    +0.108 C 
ATOM     16  C   UNL     1      -5.276 -10.117  15.563  0.00  0.00    +0.216 C 
ATOM     18  C   UNL     1      -6.980  -8.682   9.535  0.00  0.00    +0.302 C 
ATOM     25  H   UNL     1      -8.999  -8.862  10.108  0.00  0.00    +0.151 HD
ENDROOT
BRANCH   5  17
ATOM     17  C   UNL     1      -6.908 -10.775  17.293  0.00  0.00    +0.126 C 
BRANCH  17  19
ATOM     19  C   UNL     1      -7.371  -9.703  18.264  0.00  0.00    +0.123 C 
BRANCH  19   7
ATOM      3  O   UNL     1     -10.232  -9.509  17.807  0.00  0.00    -0.276 OA
ATOM      7  N   UNL     1      -8.426 -10.171  19.121  0.00  0.00    -0.314 N 
ATOM     21  C   UNL     1      -9.774 -10.034  18.819  0.00  0.00    +0.210 C 
ATOM     23  C   UNL     1     -10.665 -10.633  19.875  0.00  0.00    +0.109 C 
ATOM     26  H   UNL     1      -8.160 -10.621  19.992  0.00  0.00    +0.149 HD
ENDBRANCH  19   7
ENDBRANCH  17  19
ENDBRANCH   5  17
BRANCH   6  20
ATOM     20  C   UNL     1      -8.966  -8.181   8.131  0.00  0.00    +0.132 C 
BRANCH  20  22
ATOM     22  C   UNL     1      -9.808  -6.975   8.375  0.00  0.00    -0.016 C 
ATOM     24  C   UNL     1      -9.317  -5.740   8.530  0.00  0.00    +0.005 C 
ENDBRANCH  20  22
ENDBRANCH   6  20
TORSDOF 5
ENDMDL
MODEL 3
REMARK VINA RESULT:      -4.2      2.363      3.123
REMARK  Name = 26742631
REMARK  6 active torsions:
REMARK  status: ('A' for Active; 'I' for Inactive)
REMARK    1  A    between atoms: N_5  and  C_17
REMARK    2  A    between atoms: N_6  and  C_20
REMARK    3  A    between atoms: N_7  and  C_19
REMARK    4  A    between atoms: C_17  and  C_19
REMARK    5  A    between atoms: C_20  and  C_22
REMARK    6  A    between atoms: C_21  and  C_23
REMARK                            x       y       z     vdW  Elec       q    Type
REMARK                         _______ _______ _______ _____ _____    ______ ____
ROOT
ATOM      1  O   UNL     1      -9.061  -9.369   9.034  0.00  0.00    -0.276 OA
ATOM      2  O   UNL     1      -1.314  -9.771  11.467  0.00  0.00    -0.253 OA
ATOM      4  N   UNL     1      -3.630  -9.859  11.629  0.00  0.00    -0.285 N 
ATOM      5  N   UNL     1      -8.891 -10.219  11.188  0.00  0.00    -0.300 N 
ATOM      6  N   UNL     1      -2.240 -10.531  13.423  0.00  0.00    -0.296 N 
ATOM      8  C   UNL     1      -5.972  -9.208  12.218  0.00  0.00    +0.011 C 
ATOM      9  C   UNL     1      -6.209  -8.725  10.770  0.00  0.00    +0.004 C 
ATOM     10  C   UNL     1      -4.862  -8.257  10.192  0.00  0.00    +0.023 C 
ATOM     11  C   UNL     1      -4.868 -10.283  12.303  0.00  0.00    +0.113 C 
ATOM     12  C   UNL     1      -7.252  -9.642  12.955  0.00  0.00    +0.024 C 
ATOM     13  C   UNL     1      -6.862  -9.772   9.852  0.00  0.00    +0.100 C 
ATOM     14  C   UNL     1      -3.797  -9.345  10.266  0.00  0.00    +0.109 C 
ATOM     15  C   UNL     1      -8.061 -10.741  12.273  0.00  0.00    +0.108 C 
ATOM     16  C   UNL     1      -8.375  -9.768   9.977  0.00  0.00    +0.216 C 
ATOM     18  C   UNL     1      -2.325 -10.032  12.128  0.00  0.00    +0.302 C 
ATOM     25  H   UNL     1      -3.060 -10.696  13.987  0.00  0.00    +0.151 HD
ENDROOT
BRANCH   5  17
ATOM     17  C   UNL     1     -10.328 -10.178  11.428  0.00  0.00    +0.126 C 
BRANCH  17  19
ATOM     19  C   UNL     1     -10.669 -10.356  12.898  0.00  0.00    +0.123 C 
BRANCH  19   7
ATOM      3  O   UNL     1      -9.574  -9.749  15.518  0.00  0.00    -0.276 OA
ATOM      7  N   UNL     1     -10.720  -9.100  13.596  0.00  0.00    -0.314 N 
ATOM     21  C   UNL     1     -10.165  -8.902  14.853  0.00  0.00    +0.210 C 
ATOM     23  C   UNL     1     -10.338  -7.489  15.342  0.00  0.00    +0.109 C 
ATOM     26  H   UNL     1     -11.190  -8.325  13.138  0.00  0.00    +0.149 HD
ENDBRANCH  19   7
ENDBRANCH  17  19
ENDBRANCH   5  17
BRANCH   6  20
ATOM     20  C   UNL     1      -0.972 -10.774  14.073  0.00  0.00    +0.132 C 
BRANCH  20  22
ATOM     22  C   UNL     1      -1.094 -10.437  15.522  0.00  0.00    -0.016 C 
ATOM     24  C   UNL     1      -2.247 -10.468  16.200  0.00  0.00    +0.005 C 
ENDBRANCH  20  22
ENDBRANCH   6  20
TORSDOF 5
ENDMDL
MODEL 4
REMARK VINA RESULT:      -3.0      3.450      4.726
REMARK  Name = 26742631
REMARK  6 active torsions:
REMARK  status: ('A' for Active; 'I' for Inactive)
REMARK    1  A    between atoms: N_5  and  C_17
REMARK    2  A    between atoms: N_6  and  C_20
REMARK    3  A    between atoms: N_7  and  C_19
REMARK    4  A    between atoms: C_17  and  C_19
REMARK    5  A    between atoms: C_20  and  C_22
REMARK    6  A    between atoms: C_21  and  C_23
REMARK                            x       y       z     vdW  Elec       q    Type
REMARK                         _______ _______ _______ _____ _____    ______ ____
ROOT
ATOM      1  O   UNL     1     -10.719  -9.926  10.918  0.00  0.00    -0.276 OA
ATOM      2  O   UNL     1      -2.707  -9.564   9.582  0.00  0.00    -0.253 OA
ATOM      4  N   UNL     1      -4.683  -9.754  10.788  0.00  0.00    -0.285 N 
ATOM      5  N   UNL     1      -9.515 -10.460  12.830  0.00  0.00    -0.300 N 
ATOM      6  N   UNL     1      -2.575 -10.095  11.809  0.00  0.00    -0.296 N 
ATOM      8  C   UNL     1      -6.575  -9.158  12.312  0.00  0.00    +0.011 C 
ATOM      9  C   UNL     1      -7.484  -8.893  11.091  0.00  0.00    +0.004 C 
ATOM     10  C   UNL     1      -6.596  -8.436   9.921  0.00  0.00    +0.023 C 
ATOM     11  C   UNL     1      -5.436 -10.149  11.991  0.00  0.00    +0.113 C 
ATOM     12  C   UNL     1      -7.336  -9.556  13.590  0.00  0.00    +0.024 C 
ATOM     13  C   UNL     1      -8.356 -10.091  10.680  0.00  0.00    +0.100 C 
ATOM     14  C   UNL     1      -5.495  -9.444   9.608  0.00  0.00    +0.109 C 
ATOM     15  C   UNL     1      -8.235 -10.780  13.463  0.00  0.00    +0.108 C 
ATOM     16  C   UNL     1      -9.645 -10.153  11.479  0.00  0.00    +0.216 C 
ATOM     18  C   UNL     1      -3.282  -9.786  10.653  0.00  0.00    +0.302 C 
ATOM     25  H   UNL     1      -3.034 -10.225  12.698  0.00  0.00    +0.151 HD
ENDROOT
BRANCH   5  17
ATOM     17  C   UNL     1     -10.689 -10.465  13.693  0.00  0.00    +0.126 C 
BRANCH  17  19
ATOM     19  C   UNL     1     -10.323 -10.627  15.158  0.00  0.00    +0.123 C 
BRANCH  19   7
ATOM      3  O   UNL     1      -8.763  -9.702  17.425  0.00  0.00    -0.276 OA
ATOM      7  N   UNL     1     -10.495  -9.406  15.896  0.00  0.00    -0.314 N 
ATOM     21  C   UNL     1      -9.697  -9.044  16.973  0.00  0.00    +0.210 C 
ATOM     23  C   UNL     1     -10.077  -7.706  17.548  0.00  0.00    +0.109 C 
ATOM     26  H   UNL     1     -11.245  -8.783  15.609  0.00  0.00    +0.149 HD
ENDBRANCH  19   7
ENDBRANCH  17  19
ENDBRANCH   5  17
BRANCH   6  20
ATOM     20  C   UNL     1      -1.131 -10.177  11.830  0.00  0.00    +0.132 C 
BRANCH  20  22
ATOM     22  C   UNL     1      -0.564  -8.822  11.569  0.00  0.00    -0.016 C 
ATOM     24  C   UNL     1       0.587  -8.607  10.922  0.00  0.00    +0.005 C 
ENDBRANCH  20  22
ENDBRANCH   6  20
TORSDOF 5
ENDMDL
MODEL 5
REMARK VINA RESULT:      -1.7     16.646     18.125
REMARK  Name = 26742631
REMARK  6 active torsions:
REMARK  status: ('A' for Active; 'I' for Inactive)
REMARK    1  A    between atoms: N_5  and  C_17
REMARK    2  A    between atoms: N_6  and  C_20
REMARK    3  A    between atoms: N_7  and  C_19
REMARK    4  A    between atoms: C_17  and  C_19
REMARK    5  A    between atoms: C_20  and  C_22
REMARK    6  A    between atoms: C_21  and  C_23
REMARK                            x       y       z     vdW  Elec       q    Type
REMARK                         _______ _______ _______ _____ _____    ______ ____
ROOT
ATOM      1  O   UNL     1      -4.930  -0.027  26.050  0.00  0.00    -0.276 OA
ATOM      2  O   UNL     1       2.698  -1.530  23.671  0.00  0.00    -0.253 OA
ATOM      4  N   UNL     1       0.652  -0.434  23.782  0.00  0.00    -0.285 N 
ATOM      5  N   UNL     1      -4.077   1.721  24.782  0.00  0.00    -0.300 N 
ATOM      6  N   UNL     1       2.485   0.488  22.601  0.00  0.00    -0.296 N 
ATOM      8  C   UNL     1      -1.620   0.377  23.120  0.00  0.00    +0.011 C 
ATOM      9  C   UNL     1      -2.272  -0.685  24.034  0.00  0.00    +0.004 C 
ATOM     10  C   UNL     1      -1.323  -1.893  24.120  0.00  0.00    +0.023 C 
ATOM     11  C   UNL     1      -0.196   0.753  23.583  0.00  0.00    +0.113 C 
ATOM     12  C   UNL     1      -2.492   1.622  22.880  0.00  0.00    +0.024 C 
ATOM     13  C   UNL     1      -2.634  -0.173  25.439  0.00  0.00    +0.100 C 
ATOM     14  C   UNL     1       0.068  -1.498  24.603  0.00  0.00    +0.109 C 
ATOM     15  C   UNL     1      -2.934   2.366  24.135  0.00  0.00    +0.108 C 
ATOM     16  C   UNL     1      -3.989   0.509  25.460  0.00  0.00    +0.216 C 
ATOM     18  C   UNL     1       1.993  -0.561  23.370  0.00  0.00    +0.302 C 
ATOM     25  H   UNL     1       1.901   1.256  22.307  0.00  0.00    +0.151 HD
ENDROOT
BRANCH   5  17
ATOM     17  C   UNL     1      -5.357   2.409  24.682  0.00  0.00    +0.126 C 
BRANCH  17  19
ATOM     19  C   UNL     1      -5.345   3.749  25.399  0.00  0.00    +0.123 C 
BRANCH  19   7
ATOM      3  O   UNL     1      -2.927   4.017  26.983  0.00  0.00    -0.276 OA
ATOM      7  N   UNL     1      -4.175   4.520  25.082  0.00  0.00    -0.314 N 
ATOM     21  C   UNL     1      -3.059   4.590  25.904  0.00  0.00    +0.210 C 
ATOM     23  C   UNL     1      -1.967   5.447  25.322  0.00  0.00    +0.109 C 
ATOM     26  H   UNL     1      -4.177   5.041  24.209  0.00  0.00    +0.149 HD
ENDBRANCH  19   7
ENDBRANCH  17  19
ENDBRANCH   5  17
BRANCH   6  20
ATOM     20  C   UNL     1       3.845   0.511  22.110  0.00  0.00    +0.132 C 
BRANCH  20  22
ATOM     22  C   UNL     1       4.771   0.768  23.252  0.00  0.00    -0.016 C 
ATOM     24  C   UNL     1       5.748  -0.067  23.623  0.00  0.00    +0.005 C 
ENDBRANCH  20  22
ENDBRANCH   6  20
TORSDOF 5
ENDMDL
MODEL 6
REMARK VINA RESULT:      -0.8     16.768     18.070
REMARK  Name = 26742631
REMARK  6 active torsions:
REMARK  status: ('A' for Active; 'I' for Inactive)
REMARK    1  A    between atoms: N_5  and  C_17
REMARK    2  A    between atoms: N_6  and  C_20
REMARK    3  A    between atoms: N_7  and  C_19
REMARK    4  A    between atoms: C_17  and  C_19
REMARK    5  A    between atoms: C_20  and  C_22
REMARK    6  A    between atoms: C_21  and  C_23
REMARK                            x       y       z     vdW  Elec       q    Type
REMARK                         _______ _______ _______ _____ _____    ______ ____
ROOT
ATOM      1  O   UNL     1      -4.205   2.773  23.456  0.00  0.00    -0.276 OA
ATOM      2  O   UNL     1       3.733   1.094  22.931  0.00  0.00    -0.253 OA
ATOM      4  N   UNL     1       1.491   0.765  23.442  0.00  0.00    -0.285 N 
ATOM      5  N   UNL     1      -3.768   0.560  24.005  0.00  0.00    -0.300 N 
ATOM      6  N   UNL     1       3.077  -0.977  23.665  0.00  0.00    -0.296 N 
ATOM      8  C   UNL     1      -0.607   0.540  24.787  0.00  0.00    +0.011 C 
ATOM      9  C   UNL     1      -1.032   1.967  24.374  0.00  0.00    +0.004 C 
ATOM     10  C   UNL     1       0.241   2.795  24.124  0.00  0.00    +0.023 C 
ATOM     11  C   UNL     1       0.347  -0.107  23.760  0.00  0.00    +0.113 C 
ATOM     12  C   UNL     1      -1.781  -0.389  25.142  0.00  0.00    +0.024 C 
ATOM     13  C   UNL     1      -1.967   2.021  23.154  0.00  0.00    +0.100 C 
ATOM     14  C   UNL     1       1.153   2.146  23.088  0.00  0.00    +0.109 C 
ATOM     15  C   UNL     1      -2.832  -0.565  24.052  0.00  0.00    +0.108 C 
ATOM     16  C   UNL     1      -3.420   1.827  23.547  0.00  0.00    +0.216 C 
ATOM     18  C   UNL     1       2.830   0.347  23.322  0.00  0.00    +0.302 C 
ATOM     25  H   UNL     1       2.356  -1.578  24.036  0.00  0.00    +0.151 HD
ENDROOT
BRANCH   5  17
ATOM     17  C   UNL     1      -5.122   0.302  24.478  0.00  0.00    +0.126 C 
BRANCH  17  19
ATOM     19  C   UNL     1      -5.411   1.000  25.796  0.00  0.00    +0.123 C 
BRANCH  19   7
ATOM      3  O   UNL     1      -4.200   3.570  26.394  0.00  0.00    -0.276 OA
ATOM      7  N   UNL     1      -5.987   2.302  25.602  0.00  0.00    -0.314 N 
ATOM     21  C   UNL     1      -5.330   3.483  25.919  0.00  0.00    +0.210 C 
ATOM     23  C   UNL     1      -6.149   4.703  25.593  0.00  0.00    +0.109 C 
ATOM     26  H   UNL     1      -6.925   2.349  25.215  0.00  0.00    +0.149 HD
ENDBRANCH  19   7
ENDBRANCH  17  19
ENDBRANCH   5  17
BRANCH   6  20
ATOM     20  C   UNL     1       4.399  -1.559  23.586  0.00  0.00    +0.132 C 
BRANCH  20  22
ATOM     22  C   UNL     1       5.378  -0.631  24.223  0.00  0.00    -0.016 C 
ATOM     24  C   UNL     1       6.452  -0.135  23.596  0.00  0.00    +0.005 C 
ENDBRANCH  20  22
ENDBRANCH   6  20
TORSDOF 5
ENDMDL
