MODEL 1
REMARK VINA RESULT:      -0.2      0.000      0.000
REMARK  Name = 25338959
REMARK  7 active torsions:
REMARK  status: ('A' for Active; 'I' for Inactive)
REMARK    1  A    between atoms: O_1  and  C_14
REMARK    2  A    between atoms: O_1  and  C_23
REMARK    3  A    between atoms: N_5  and  C_13
REMARK    4  A    between atoms: C_8  and  C_14
REMARK    5  A    between atoms: C_13  and  C_17
REMARK    6  A    between atoms: C_16  and  C_18
REMARK    7  A    between atoms: C_28  and  C_30
REMARK                            x       y       z     vdW  Elec       q    Type
REMARK                         _______ _______ _______ _____ _____    ______ ____
ROOT
ATOM      3  O   UNL     1      -4.362  -1.077  23.751  0.00  0.00    -0.270 OA
ATOM      4  N   UNL     1      -2.194  -0.231  24.049  0.00  0.00    -0.278 N 
ATOM      5  N   UNL     1       1.028   1.655  23.762  0.00  0.00    -0.328 N 
ATOM      6  N   UNL     1       1.759  -0.167  22.696  0.00  0.00    -0.240 NA
ATOM      8  C   UNL     1      -1.563  -1.564  23.862  0.00  0.00    +0.191 C 
ATOM      9  C   UNL     1      -0.337  -1.566  22.926  0.00  0.00    +0.091 C 
ATOM     10  C   UNL     1       0.002   0.759  23.785  0.00  0.00    +0.059 A 
ATOM     11  C   UNL     1      -1.327   0.931  24.401  0.00  0.00    +0.164 C 
ATOM     12  C   UNL     1       0.476  -0.349  23.130  0.00  0.00    +0.066 A 
ATOM     15  C   UNL     1       2.064   1.053  23.094  0.00  0.00    +0.200 A 
ATOM     16  C   UNL     1      -3.598  -0.155  24.032  0.00  0.00    +0.248 C 
ENDROOT
BRANCH  16  18
ATOM     18  C   UNL     1      -4.228   1.126  24.379  0.00  0.00    +0.037 A 
ATOM     21  C   UNL     1      -3.983   2.257  23.600  0.00  0.00    +0.014 A 
ATOM     22  C   UNL     1      -5.070   1.211  25.488  0.00  0.00    +0.014 A 
ATOM     26  C   UNL     1      -4.582   3.473  23.931  0.00  0.00    +0.019 A 
ATOM     27  C   UNL     1      -5.668   2.427  25.818  0.00  0.00    +0.019 A 
ATOM     28  C   UNL     1      -5.425   3.558  25.040  0.00  0.00    +0.052 A 
BRANCH  28  30
ATOM      7  N   UNL     1      -6.536   5.815  25.652  0.00  0.00    -0.191 NA
ATOM     30  C   UNL     1      -6.038   4.804  25.378  0.00  0.00    +0.099 C 
ENDBRANCH  28  30
ENDBRANCH  16  18
BRANCH   8  14
ATOM      2  O   UNL     1      -0.104  -2.015  25.726  0.00  0.00    -0.249 OA
ATOM     14  C   UNL     1      -1.225  -2.058  25.239  0.00  0.00    +0.328 C 
BRANCH  14   1
ATOM      1  O   UNL     1      -2.348  -2.550  25.836  0.00  0.00    -0.467 OA
ATOM     23  C   UNL     1      -3.182  -3.361  25.002  0.00  0.00    +0.280 C 
ENDBRANCH  14   1
ENDBRANCH   8  14
BRANCH   5  13
ATOM     13  C   UNL     1       1.043   2.983  24.328  0.00  0.00    +0.158 C 
BRANCH  13  17
ATOM     17  C   UNL     1      -0.199   3.308  25.119  0.00  0.00    -0.028 A 
ATOM     19  C   UNL     1      -1.002   4.386  24.746  0.00  0.00    +0.005 A 
ATOM     20  C   UNL     1      -0.545   2.532  26.225  0.00  0.00    +0.005 A 
ATOM     24  C   UNL     1      -2.150   4.689  25.479  0.00  0.00    +0.000 A 
ATOM     25  C   UNL     1      -1.693   2.834  26.957  0.00  0.00    +0.000 A 
ATOM     29  C   UNL     1      -2.495   3.912  26.584  0.00  0.00    +0.000 A 
ENDBRANCH  13  17
ENDBRANCH   5  13
TORSDOF 6
ENDMDL
MODEL 2
REMARK VINA RESULT:       1.5      1.823      5.539
REMARK  Name = 25338959
REMARK  7 active torsions:
REMARK  status: ('A' for Active; 'I' for Inactive)
REMARK    1  A    between atoms: O_1  and  C_14
REMARK    2  A    between atoms: O_1  and  C_23
REMARK    3  A    between atoms: N_5  and  C_13
REMARK    4  A    between atoms: C_8  and  C_14
REMARK    5  A    between atoms: C_13  and  C_17
REMARK    6  A    between atoms: C_16  and  C_18
REMARK    7  A    between atoms: C_28  and  C_30
REMARK                            x       y       z     vdW  Elec       q    Type
REMARK                         _______ _______ _______ _____ _____    ______ ____
ROOT
ATOM      3  O   UNL     1      -0.773  -2.353  25.765  0.00  0.00    -0.270 OA
ATOM      4  N   UNL     1      -2.358  -0.822  24.960  0.00  0.00    -0.278 N 
ATOM      5  N   UNL     1      -4.419   2.225  24.262  0.00  0.00    -0.328 N 
ATOM      6  N   UNL     1      -5.846   1.344  25.738  0.00  0.00    -0.240 NA
ATOM      8  C   UNL     1      -3.504  -1.620  25.469  0.00  0.00    +0.191 C 
ATOM      9  C   UNL     1      -4.581  -0.797  26.204  0.00  0.00    +0.091 C 
ATOM     10  C   UNL     1      -3.891   1.027  24.639  0.00  0.00    +0.059 A 
ATOM     11  C   UNL     1      -2.637   0.410  24.166  0.00  0.00    +0.164 C 
ATOM     12  C   UNL     1      -4.784   0.506  25.540  0.00  0.00    +0.066 A 
ATOM     15  C   UNL     1      -5.597   2.372  24.951  0.00  0.00    +0.200 A 
ATOM     16  C   UNL     1      -1.063  -1.344  25.124  0.00  0.00    +0.248 C 
ENDROOT
BRANCH  16  18
ATOM     18  C   UNL     1       0.055  -0.641  24.480  0.00  0.00    +0.037 A 
ATOM     21  C   UNL     1       0.220   0.730  24.672  0.00  0.00    +0.014 A 
ATOM     22  C   UNL     1       0.951  -1.346  23.676  0.00  0.00    +0.014 A 
ATOM     26  C   UNL     1       1.282   1.397  24.061  0.00  0.00    +0.019 A 
ATOM     27  C   UNL     1       2.013  -0.679  23.064  0.00  0.00    +0.019 A 
ATOM     28  C   UNL     1       2.178   0.692  23.257  0.00  0.00    +0.052 A 
BRANCH  28  30
ATOM      7  N   UNL     1       4.149   1.930  22.121  0.00  0.00    -0.191 NA
ATOM     30  C   UNL     1       3.266   1.375  22.630  0.00  0.00    +0.099 C 
ENDBRANCH  28  30
ENDBRANCH  16  18
BRANCH   8  14
ATOM      2  O   UNL     1      -4.850  -1.858  23.484  0.00  0.00    -0.249 OA
ATOM     14  C   UNL     1      -4.061  -2.348  24.279  0.00  0.00    +0.328 C 
BRANCH  14   1
ATOM      1  O   UNL     1      -3.552  -3.613  24.239  0.00  0.00    -0.467 OA
ATOM     23  C   UNL     1      -2.487  -3.818  23.305  0.00  0.00    +0.280 C 
ENDBRANCH  14   1
ENDBRANCH   8  14
BRANCH   5  13
ATOM     13  C   UNL     1      -3.866   3.167  23.319  0.00  0.00    +0.158 C 
BRANCH  13  17
ATOM     17  C   UNL     1      -2.677   3.922  23.856  0.00  0.00    -0.028 A 
ATOM     19  C   UNL     1      -1.393   3.616  23.405  0.00  0.00    +0.005 A 
ATOM     20  C   UNL     1      -2.859   4.927  24.806  0.00  0.00    +0.005 A 
ATOM     24  C   UNL     1      -0.292   4.313  23.903  0.00  0.00    +0.000 A 
ATOM     25  C   UNL     1      -1.759   5.625  25.303  0.00  0.00    +0.000 A 
ATOM     29  C   UNL     1      -0.476   5.318  24.852  0.00  0.00    +0.000 A 
ENDBRANCH  13  17
ENDBRANCH   5  13
TORSDOF 6
ENDMDL
MODEL 3
REMARK VINA RESULT:       2.0      2.045      4.394
REMARK  Name = 25338959
REMARK  7 active torsions:
REMARK  status: ('A' for Active; 'I' for Inactive)
REMARK    1  A    between atoms: O_1  and  C_14
REMARK    2  A    between atoms: O_1  and  C_23
REMARK    3  A    between atoms: N_5  and  C_13
REMARK    4  A    between atoms: C_8  and  C_14
REMARK    5  A    between atoms: C_13  and  C_17
REMARK    6  A    between atoms: C_16  and  C_18
REMARK    7  A    between atoms: C_28  and  C_30
REMARK                            x       y       z     vdW  Elec       q    Type
REMARK                         _______ _______ _______ _____ _____    ______ ____
ROOT
ATOM      3  O   UNL     1       0.435   2.769  25.284  0.00  0.00    -0.270 OA
ATOM      4  N   UNL     1      -0.674   0.839  24.545  0.00  0.00    -0.278 N 
ATOM      5  N   UNL     1      -2.824  -2.212  24.249  0.00  0.00    -0.328 N 
ATOM      6  N   UNL     1      -0.944  -3.328  24.710  0.00  0.00    -0.240 NA
ATOM      8  C   UNL     1       0.596   0.108  24.298  0.00  0.00    +0.191 C 
ATOM      9  C   UNL     1       0.616  -1.339  24.831  0.00  0.00    +0.091 C 
ATOM     10  C   UNL     1      -1.838  -1.277  24.353  0.00  0.00    +0.059 A 
ATOM     11  C   UNL     1      -1.964   0.182  24.182  0.00  0.00    +0.164 C 
ATOM     12  C   UNL     1      -0.697  -1.985  24.632  0.00  0.00    +0.066 A 
ATOM     15  C   UNL     1      -2.237  -3.432  24.473  0.00  0.00    +0.200 A 
ATOM     16  C   UNL     1      -0.596   2.176  24.973  0.00  0.00    +0.248 C 
ENDROOT
BRANCH  16  18
ATOM     18  C   UNL     1      -1.842   2.951  25.060  0.00  0.00    +0.037 A 
ATOM     21  C   UNL     1      -2.182   3.592  26.251  0.00  0.00    +0.014 A 
ATOM     22  C   UNL     1      -2.684   3.043  23.952  0.00  0.00    +0.014 A 
ATOM     26  C   UNL     1      -3.365   4.327  26.332  0.00  0.00    +0.019 A 
ATOM     27  C   UNL     1      -3.866   3.778  24.034  0.00  0.00    +0.019 A 
ATOM     28  C   UNL     1      -4.207   4.421  25.224  0.00  0.00    +0.052 A 
BRANCH  28  30
ATOM      7  N   UNL     1      -6.403   5.785  25.376  0.00  0.00    -0.191 NA
ATOM     30  C   UNL     1      -5.419   5.174  25.308  0.00  0.00    +0.099 C 
ENDBRANCH  28  30
ENDBRANCH  16  18
BRANCH   8  14
ATOM      2  O   UNL     1      -0.038   0.463  21.999  0.00  0.00    -0.249 OA
ATOM     14  C   UNL     1       0.825   0.168  22.815  0.00  0.00    +0.328 C 
BRANCH  14   1
ATOM      1  O   UNL     1       2.122  -0.153  22.540  0.00  0.00    -0.467 OA
ATOM     23  C   UNL     1       3.084   0.864  22.838  0.00  0.00    +0.280 C 
ENDBRANCH  14   1
ENDBRANCH   8  14
BRANCH   5  13
ATOM     13  C   UNL     1      -4.219  -1.984  23.956  0.00  0.00    +0.158 C 
BRANCH  13  17
ATOM     17  C   UNL     1      -4.765  -0.730  24.591  0.00  0.00    -0.028 A 
ATOM     19  C   UNL     1      -5.736   0.021  23.928  0.00  0.00    +0.005 A 
ATOM     20  C   UNL     1      -4.300  -0.320  25.840  0.00  0.00    +0.005 A 
ATOM     24  C   UNL     1      -6.241   1.182  24.514  0.00  0.00    +0.000 A 
ATOM     25  C   UNL     1      -4.805   0.840  26.427  0.00  0.00    +0.000 A 
ATOM     29  C   UNL     1      -5.775   1.591  25.763  0.00  0.00    +0.000 A 
ENDBRANCH  13  17
ENDBRANCH   5  13
TORSDOF 6
ENDMDL
MODEL 4
REMARK VINA RESULT:       2.3      1.932      4.675
REMARK  Name = 25338959
REMARK  7 active torsions:
REMARK  status: ('A' for Active; 'I' for Inactive)
REMARK    1  A    between atoms: O_1  and  C_14
REMARK    2  A    between atoms: O_1  and  C_23
REMARK    3  A    between atoms: N_5  and  C_13
REMARK    4  A    between atoms: C_8  and  C_14
REMARK    5  A    between atoms: C_13  and  C_17
REMARK    6  A    between atoms: C_16  and  C_18
REMARK    7  A    between atoms: C_28  and  C_30
REMARK                            x       y       z     vdW  Elec       q    Type
REMARK                         _______ _______ _______ _____ _____    ______ ____
ROOT
ATOM      3  O   UNL     1       1.260   1.627  25.881  0.00  0.00    -0.270 OA
ATOM      4  N   UNL     1      -0.582   0.561  24.892  0.00  0.00    -0.278 N 
ATOM      5  N   UNL     1      -3.970  -0.824  24.104  0.00  0.00    -0.328 N 
ATOM      6  N   UNL     1      -3.148  -2.737  24.914  0.00  0.00    -0.240 NA
ATOM      8  C   UNL     1       0.087  -0.767  24.893  0.00  0.00    +0.191 C 
ATOM      9  C   UNL     1      -0.798  -1.929  25.389  0.00  0.00    +0.091 C 
ATOM     10  C   UNL     1      -2.669  -0.578  24.425  0.00  0.00    +0.059 A 
ATOM     11  C   UNL     1      -1.928   0.687  24.262  0.00  0.00    +0.164 C 
ATOM     12  C   UNL     1      -2.187  -1.765  24.915  0.00  0.00    +0.066 A 
ATOM     15  C   UNL     1      -4.213  -2.137  24.418  0.00  0.00    +0.200 A 
ATOM     16  C   UNL     1       0.149   1.669  25.355  0.00  0.00    +0.248 C 
ENDROOT
BRANCH  16  18
ATOM     18  C   UNL     1      -0.447   3.004  25.203  0.00  0.00    +0.037 A 
ATOM     21  C   UNL     1      -1.453   3.422  26.074  0.00  0.00    +0.014 A 
ATOM     22  C   UNL     1      -0.005   3.853  24.188  0.00  0.00    +0.014 A 
ATOM     26  C   UNL     1      -2.017   4.690  25.929  0.00  0.00    +0.019 A 
ATOM     27  C   UNL     1      -0.569   5.121  24.043  0.00  0.00    +0.019 A 
ATOM     28  C   UNL     1      -1.575   5.539  24.914  0.00  0.00    +0.052 A 
BRANCH  28  30
ATOM      7  N   UNL     1      -2.623   7.892  24.646  0.00  0.00    -0.191 NA
ATOM     30  C   UNL     1      -2.154   6.838  24.766  0.00  0.00    +0.099 C 
ENDBRANCH  28  30
ENDBRANCH  16  18
BRANCH   8  14
ATOM      2  O   UNL     1      -0.140  -1.357  22.567  0.00  0.00    -0.249 OA
ATOM     14  C   UNL     1       0.573  -0.985  23.489  0.00  0.00    +0.328 C 
BRANCH  14   1
ATOM      1  O   UNL     1       1.906  -0.707  23.419  0.00  0.00    -0.467 OA
ATOM     23  C   UNL     1       2.300   0.151  22.344  0.00  0.00    +0.280 C 
ENDBRANCH  14   1
ENDBRANCH   8  14
BRANCH   5  13
ATOM     13  C   UNL     1      -4.922   0.102  23.539  0.00  0.00    +0.158 C 
BRANCH  13  17
ATOM     17  C   UNL     1      -5.065   1.373  24.337  0.00  0.00    -0.028 A 
ATOM     19  C   UNL     1      -5.733   1.357  25.562  0.00  0.00    +0.005 A 
ATOM     20  C   UNL     1      -4.529   2.566  23.852  0.00  0.00    +0.005 A 
ATOM     24  C   UNL     1      -5.867   2.534  26.300  0.00  0.00    +0.000 A 
ATOM     25  C   UNL     1      -4.662   3.742  24.590  0.00  0.00    +0.000 A 
ATOM     29  C   UNL     1      -5.330   3.725  25.814  0.00  0.00    +0.000 A 
ENDBRANCH  13  17
ENDBRANCH   5  13
TORSDOF 6
ENDMDL
MODEL 5
REMARK VINA RESULT:       2.5      2.724      7.213
REMARK  Name = 25338959
REMARK  7 active torsions:
REMARK  status: ('A' for Active; 'I' for Inactive)
REMARK    1  A    between atoms: O_1  and  C_14
REMARK    2  A    between atoms: O_1  and  C_23
REMARK    3  A    between atoms: N_5  and  C_13
REMARK    4  A    between atoms: C_8  and  C_14
REMARK    5  A    between atoms: C_13  and  C_17
REMARK    6  A    between atoms: C_16  and  C_18
REMARK    7  A    between atoms: C_28  and  C_30
REMARK                            x       y       z     vdW  Elec       q    Type
REMARK                         _______ _______ _______ _____ _____    ______ ____
ROOT
ATOM      3  O   UNL     1      -0.388   3.921  22.850  0.00  0.00    -0.270 OA
ATOM      4  N   UNL     1      -1.855   2.707  24.220  0.00  0.00    -0.278 N 
ATOM      5  N   UNL     1      -4.227   0.183  25.643  0.00  0.00    -0.328 N 
ATOM      6  N   UNL     1      -5.811   1.634  25.032  0.00  0.00    -0.240 NA
ATOM      8  C   UNL     1      -2.811   3.838  24.333  0.00  0.00    +0.191 C 
ATOM      9  C   UNL     1      -4.291   3.448  24.138  0.00  0.00    +0.091 C 
ATOM     10  C   UNL     1      -3.578   1.262  25.123  0.00  0.00    +0.059 A 
ATOM     11  C   UNL     1      -2.122   1.459  24.995  0.00  0.00    +0.164 C 
ATOM     12  C   UNL     1      -4.570   2.138  24.759  0.00  0.00    +0.066 A 
ATOM     15  C   UNL     1      -5.570   0.453  25.567  0.00  0.00    +0.200 A 
ATOM     16  C   UNL     1      -0.663   2.916  23.504  0.00  0.00    +0.248 C 
ENDROOT
BRANCH  16  18
ATOM     18  C   UNL     1       0.356   1.858  23.528  0.00  0.00    +0.037 A 
ATOM     21  C   UNL     1      -0.028   0.523  23.649  0.00  0.00    +0.014 A 
ATOM     22  C   UNL     1       1.707   2.190  23.432  0.00  0.00    +0.014 A 
ATOM     26  C   UNL     1       0.941  -0.481  23.671  0.00  0.00    +0.019 A 
ATOM     27  C   UNL     1       2.676   1.186  23.454  0.00  0.00    +0.019 A 
ATOM     28  C   UNL     1       2.293  -0.149  23.574  0.00  0.00    +0.052 A 
BRANCH  28  30
ATOM      7  N   UNL     1       4.090  -2.013  23.617  0.00  0.00    -0.191 NA
ATOM     30  C   UNL     1       3.285  -1.178  23.597  0.00  0.00    +0.099 C 
ENDBRANCH  28  30
ENDBRANCH  16  18
BRANCH   8  14
ATOM      2  O   UNL     1      -3.294   4.309  26.648  0.00  0.00    -0.249 OA
ATOM     14  C   UNL     1      -2.562   4.457  25.679  0.00  0.00    +0.328 C 
BRANCH  14   1
ATOM      1  O   UNL     1      -1.414   5.193  25.637  0.00  0.00    -0.467 OA
ATOM     23  C   UNL     1      -1.402   6.261  24.685  0.00  0.00    +0.280 C 
ENDBRANCH  14   1
ENDBRANCH   8  14
BRANCH   5  13
ATOM     13  C   UNL     1      -3.633  -1.018  26.181  0.00  0.00    +0.158 C 
BRANCH  13  17
ATOM     17  C   UNL     1      -3.169  -1.982  25.119  0.00  0.00    -0.028 A 
ATOM     19  C   UNL     1      -1.808  -2.251  24.968  0.00  0.00    +0.005 A 
ATOM     20  C   UNL     1      -4.098  -2.606  24.287  0.00  0.00    +0.005 A 
ATOM     24  C   UNL     1      -1.378  -3.142  23.984  0.00  0.00    +0.000 A 
ATOM     25  C   UNL     1      -3.668  -3.497  23.305  0.00  0.00    +0.000 A 
ATOM     29  C   UNL     1      -2.308  -3.765  23.153  0.00  0.00    +0.000 A 
ENDBRANCH  13  17
ENDBRANCH   5  13
TORSDOF 6
ENDMDL
MODEL 6
REMARK VINA RESULT:       3.3      2.456      5.782
REMARK  Name = 25338959
REMARK  7 active torsions:
REMARK  status: ('A' for Active; 'I' for Inactive)
REMARK    1  A    between atoms: O_1  and  C_14
REMARK    2  A    between atoms: O_1  and  C_23
REMARK    3  A    between atoms: N_5  and  C_13
REMARK    4  A    between atoms: C_8  and  C_14
REMARK    5  A    between atoms: C_13  and  C_17
REMARK    6  A    between atoms: C_16  and  C_18
REMARK    7  A    between atoms: C_28  and  C_30
REMARK                            x       y       z     vdW  Elec       q    Type
REMARK                         _______ _______ _______ _____ _____    ______ ____
ROOT
ATOM      3  O   UNL     1      -5.750   1.562  26.251  0.00  0.00    -0.270 OA
ATOM      4  N   UNL     1      -3.839   2.474  25.240  0.00  0.00    -0.278 N 
ATOM      5  N   UNL     1      -0.337   3.403  24.294  0.00  0.00    -0.328 N 
ATOM      6  N   UNL     1      -0.722   5.245  25.499  0.00  0.00    -0.240 NA
ATOM      8  C   UNL     1      -4.251   3.870  25.538  0.00  0.00    +0.191 C 
ATOM      9  C   UNL     1      -3.129   4.761  26.111  0.00  0.00    +0.091 C 
ATOM     10  C   UNL     1      -1.628   3.320  24.722  0.00  0.00    +0.059 A 
ATOM     11  C   UNL     1      -2.599   2.245  24.442  0.00  0.00    +0.164 C 
ATOM     12  C   UNL     1      -1.841   4.460  25.454  0.00  0.00    +0.066 A 
ATOM     15  C   UNL     1       0.168   4.580  24.788  0.00  0.00    +0.200 A 
ATOM     16  C   UNL     1      -4.716   1.435  25.597  0.00  0.00    +0.248 C 
ENDROOT
BRANCH  16  18
ATOM     18  C   UNL     1      -4.390   0.071  25.158  0.00  0.00    +0.037 A 
ATOM     21  C   UNL     1      -3.858  -0.845  26.065  0.00  0.00    +0.014 A 
ATOM     22  C   UNL     1      -4.613  -0.307  23.834  0.00  0.00    +0.014 A 
ATOM     26  C   UNL     1      -3.549  -2.140  25.648  0.00  0.00    +0.019 A 
ATOM     27  C   UNL     1      -4.304  -1.602  23.417  0.00  0.00    +0.019 A 
ATOM     28  C   UNL     1      -3.772  -2.518  24.323  0.00  0.00    +0.052 A 
BRANCH  28  30
ATOM      7  N   UNL     1      -3.198  -4.922  23.549  0.00  0.00    -0.191 NA
ATOM     30  C   UNL     1      -3.455  -3.845  23.896  0.00  0.00    +0.099 C 
ENDBRANCH  28  30
ENDBRANCH  16  18
BRANCH   8  14
ATOM      2  O   UNL     1      -4.432   4.082  23.143  0.00  0.00    -0.249 OA
ATOM     14  C   UNL     1      -4.811   4.419  24.257  0.00  0.00    +0.328 C 
BRANCH  14   1
ATOM      1  O   UNL     1      -5.785   5.332  24.538  0.00  0.00    -0.467 OA
ATOM     23  C   UNL     1      -6.503   5.109  25.755  0.00  0.00    +0.280 C 
ENDBRANCH  14   1
ENDBRANCH   8  14
BRANCH   5  13
ATOM     13  C   UNL     1       0.376   2.453  23.476  0.00  0.00    +0.158 C 
BRANCH  13  17
ATOM     17  C   UNL     1       0.157   1.021  23.895  0.00  0.00    -0.028 A 
ATOM     19  C   UNL     1      -0.355   0.735  25.160  0.00  0.00    +0.005 A 
ATOM     20  C   UNL     1       0.468  -0.018  23.018  0.00  0.00    +0.005 A 
ATOM     24  C   UNL     1      -0.556  -0.590  25.549  0.00  0.00    +0.000 A 
ATOM     25  C   UNL     1       0.265  -1.343  23.406  0.00  0.00    +0.000 A 
ATOM     29  C   UNL     1      -0.246  -1.628  24.671  0.00  0.00    +0.000 A 
ENDBRANCH  13  17
ENDBRANCH   5  13
TORSDOF 6
ENDMDL
