MODEL 1
REMARK VINA RESULT:      -3.1      0.000      0.000
REMARK  Name = 71693033
REMARK  10 active torsions:
REMARK  status: ('A' for Active; 'I' for Inactive)
REMARK    1  A    between atoms: N_2  and  C_12
REMARK    2  A    between atoms: C_5  and  C_9
REMARK    3  A    between atoms: C_6  and  C_12
REMARK    4  A    between atoms: C_8  and  C_13
REMARK    5  A    between atoms: C_9  and  C_14
REMARK    6  A    between atoms: C_9  and  C_15
REMARK    7  A    between atoms: C_10  and  C_16
REMARK    8  A    between atoms: C_13  and  C_17
REMARK    9  A    between atoms: C_18  and  C_22
REMARK   10  A    between atoms: C_24  and  C_28
REMARK                            x       y       z     vdW  Elec       q    Type
REMARK                         _______ _______ _______ _____ _____    ______ ____
ROOT
ATOM      5  C   UNL     1      -4.167   3.292  25.395  0.00  0.00    +0.000 C 
ATOM      6  C   UNL     1      -3.819   3.799  23.973  0.00  0.00    +0.032 C 
ATOM      7  C   UNL     1      -3.561   4.221  26.459  0.00  0.00    +0.012 C 
ATOM      8  C   UNL     1      -2.030   4.322  26.338  0.00  0.00    +0.022 C 
ATOM     10  C   UNL     1      -1.591   4.556  24.907  0.00  0.00    -0.073 C 
ATOM     11  C   UNL     1      -2.410   4.330  23.864  0.00  0.00    -0.022 C 
ATOM     16  C   UNL     1      -0.205   5.100  24.704  0.00  0.00    +0.039 C 
ENDROOT
BRANCH   5   9
ATOM      9  C   UNL     1      -5.681   3.182  25.605  0.00  0.00    -0.013 C 
ATOM     14  C   UNL     1      -5.988   2.305  26.815  0.00  0.00    +0.007 C 
ATOM     15  C   UNL     1      -6.298   4.567  25.769  0.00  0.00    +0.007 C 
ENDBRANCH   5   9
BRANCH   6  12
ATOM     12  C   UNL     1      -4.034   2.700  22.927  0.00  0.00    +0.112 C 
BRANCH  12   2
ATOM      1  O   UNL     1      -5.814   0.745  24.048  0.00  0.00    -0.270 OA
ATOM      2  N   UNL     1      -3.675   1.420  23.453  0.00  0.00    -0.311 N 
ATOM     18  C   UNL     1      -4.606   0.528  23.981  0.00  0.00    +0.244 C 
ATOM     32  H   UNL     1      -2.690   1.176  23.437  0.00  0.00    +0.149 HD
BRANCH  18  22
ATOM     22  C   UNL     1      -4.069  -0.751  24.512  0.00  0.00    +0.037 A 
ATOM     26  C   UNL     1      -3.536  -0.804  25.800  0.00  0.00    +0.013 A 
ATOM     27  C   UNL     1      -4.101  -1.902  23.723  0.00  0.00    +0.013 A 
ATOM     29  C   UNL     1      -3.033  -2.005  26.298  0.00  0.00    +0.001 A 
ATOM     30  C   UNL     1      -3.598  -3.104  24.221  0.00  0.00    +0.001 A 
ATOM     31  C   UNL     1      -3.065  -3.155  25.509  0.00  0.00    +0.000 A 
ENDBRANCH  18  22
ENDBRANCH  12   2
ENDBRANCH   6  12
BRANCH   8  13
ATOM     13  C   UNL     1      -1.346   3.082  26.926  0.00  0.00    +0.082 C 
BRANCH  13  17
ATOM      3  N   UNL     1       0.516   2.465  25.373  0.00  0.00    -0.342 N 
ATOM      4  N   UNL     1      -1.306   1.197  25.257  0.00  0.00    -0.232 NA
ATOM     17  C   UNL     1      -0.743   2.227  25.850  0.00  0.00    +0.109 A 
ATOM     19  C   UNL     1       0.784   1.528  24.409  0.00  0.00    +0.066 A 
ATOM     20  C   UNL     1      -0.368   0.749  24.355  0.00  0.00    +0.089 A 
ATOM     21  C   UNL     1       1.900   1.302  23.604  0.00  0.00    +0.031 A 
ATOM     23  C   UNL     1      -0.428  -0.325  23.449  0.00  0.00    +0.030 A 
ATOM     24  C   UNL     1       1.825   0.230  22.709  0.00  0.00    -0.048 A 
ATOM     25  C   UNL     1       0.682  -0.570  22.631  0.00  0.00    +0.005 A 
ATOM     28  C   UNL     1       2.988  -0.064  21.820  0.00  0.00    +0.044 C 
ATOM     33  H   UNL     1       1.140   3.201  25.678  0.00  0.00    +0.167 HD
ENDBRANCH  13  17
ENDBRANCH   8  13
TORSDOF 6
ENDMDL
MODEL 2
REMARK VINA RESULT:      -1.1      2.306      6.603
REMARK  Name = 71693033
REMARK  10 active torsions:
REMARK  status: ('A' for Active; 'I' for Inactive)
REMARK    1  A    between atoms: N_2  and  C_12
REMARK    2  A    between atoms: C_5  and  C_9
REMARK    3  A    between atoms: C_6  and  C_12
REMARK    4  A    between atoms: C_8  and  C_13
REMARK    5  A    between atoms: C_9  and  C_14
REMARK    6  A    between atoms: C_9  and  C_15
REMARK    7  A    between atoms: C_10  and  C_16
REMARK    8  A    between atoms: C_13  and  C_17
REMARK    9  A    between atoms: C_18  and  C_22
REMARK   10  A    between atoms: C_24  and  C_28
REMARK                            x       y       z     vdW  Elec       q    Type
REMARK                         _______ _______ _______ _____ _____    ______ ____
ROOT
ATOM      5  C   UNL     1      -1.754  -0.327  25.101  0.00  0.00    +0.000 C 
ATOM      6  C   UNL     1      -1.246  -1.455  24.168  0.00  0.00    +0.032 C 
ATOM      7  C   UNL     1      -2.901  -0.839  25.986  0.00  0.00    +0.012 C 
ATOM      8  C   UNL     1      -4.090  -1.358  25.156  0.00  0.00    +0.022 C 
ATOM     10  C   UNL     1      -3.639  -2.273  24.036  0.00  0.00    -0.073 C 
ATOM     11  C   UNL     1      -2.361  -2.313  23.618  0.00  0.00    -0.022 C 
ATOM     16  C   UNL     1      -4.681  -3.177  23.439  0.00  0.00    +0.039 C 
ENDROOT
BRANCH   5   9
ATOM      9  C   UNL     1      -0.631   0.232  25.981  0.00  0.00    -0.013 C 
ATOM     14  C   UNL     1      -0.691   1.756  26.014  0.00  0.00    +0.007 C 
ATOM     15  C   UNL     1      -0.721  -0.344  27.390  0.00  0.00    +0.007 C 
ENDBRANCH   5   9
BRANCH   6  12
ATOM     12  C   UNL     1      -0.421  -0.884  23.009  0.00  0.00    +0.112 C 
BRANCH  12   2
ATOM      1  O   UNL     1       1.783  -0.265  21.276  0.00  0.00    -0.270 OA
ATOM      2  N   UNL     1       0.946  -0.719  23.393  0.00  0.00    -0.311 N 
ATOM     18  C   UNL     1       1.958  -0.417  22.483  0.00  0.00    +0.244 C 
ATOM     32  H   UNL     1       1.166  -0.839  24.376  0.00  0.00    +0.149 HD
BRANCH  18  22
ATOM     22  C   UNL     1       3.332  -0.304  23.036  0.00  0.00    +0.037 A 
ATOM     26  C   UNL     1       4.034   0.896  22.923  0.00  0.00    +0.013 A 
ATOM     27  C   UNL     1       3.920  -1.399  23.671  0.00  0.00    +0.013 A 
ATOM     29  C   UNL     1       5.323   1.002  23.444  0.00  0.00    +0.001 A 
ATOM     30  C   UNL     1       5.210  -1.293  24.192  0.00  0.00    +0.001 A 
ATOM     31  C   UNL     1       5.911  -0.093  24.079  0.00  0.00    +0.000 A 
ENDBRANCH  18  22
ENDBRANCH  12   2
ENDBRANCH   6  12
BRANCH   8  13
ATOM     13  C   UNL     1      -4.930  -0.197  24.610  0.00  0.00    +0.082 C 
BRANCH  13  17
ATOM      3  N   UNL     1      -3.276   1.589  24.035  0.00  0.00    -0.342 N 
ATOM      4  N   UNL     1      -4.524   1.966  25.835  0.00  0.00    -0.232 NA
ATOM     17  C   UNL     1      -4.265   1.125  24.857  0.00  0.00    +0.109 A 
ATOM     19  C   UNL     1      -2.871   2.809  24.512  0.00  0.00    +0.066 A 
ATOM     20  C   UNL     1      -3.664   3.021  25.636  0.00  0.00    +0.089 A 
ATOM     21  C   UNL     1      -1.908   3.716  24.072  0.00  0.00    +0.031 A 
ATOM     23  C   UNL     1      -3.501   4.204  26.377  0.00  0.00    +0.030 A 
ATOM     24  C   UNL     1      -1.758   4.889  24.819  0.00  0.00    -0.048 A 
ATOM     25  C   UNL     1      -2.539   5.130  25.952  0.00  0.00    +0.005 A 
ATOM     28  C   UNL     1      -0.743   5.900  24.399  0.00  0.00    +0.044 C 
ATOM     33  H   UNL     1      -2.909   1.118  23.218  0.00  0.00    +0.167 HD
ENDBRANCH  13  17
ENDBRANCH   8  13
TORSDOF 6
ENDMDL
MODEL 3
REMARK VINA RESULT:      -0.9      1.920      4.915
REMARK  Name = 71693033
REMARK  10 active torsions:
REMARK  status: ('A' for Active; 'I' for Inactive)
REMARK    1  A    between atoms: N_2  and  C_12
REMARK    2  A    between atoms: C_5  and  C_9
REMARK    3  A    between atoms: C_6  and  C_12
REMARK    4  A    between atoms: C_8  and  C_13
REMARK    5  A    between atoms: C_9  and  C_14
REMARK    6  A    between atoms: C_9  and  C_15
REMARK    7  A    between atoms: C_10  and  C_16
REMARK    8  A    between atoms: C_13  and  C_17
REMARK    9  A    between atoms: C_18  and  C_22
REMARK   10  A    between atoms: C_24  and  C_28
REMARK                            x       y       z     vdW  Elec       q    Type
REMARK                         _______ _______ _______ _____ _____    ______ ____
ROOT
ATOM      5  C   UNL     1      -3.283   2.334  23.691  0.00  0.00    +0.000 C 
ATOM      6  C   UNL     1      -2.845   3.770  24.073  0.00  0.00    +0.032 C 
ATOM      7  C   UNL     1      -4.797   2.286  23.433  0.00  0.00    +0.012 C 
ATOM      8  C   UNL     1      -5.612   2.735  24.660  0.00  0.00    +0.022 C 
ATOM     10  C   UNL     1      -5.068   4.016  25.260  0.00  0.00    -0.073 C 
ATOM     11  C   UNL     1      -3.835   4.470  24.975  0.00  0.00    -0.022 C 
ATOM     16  C   UNL     1      -5.992   4.788  26.159  0.00  0.00    +0.039 C 
ENDROOT
BRANCH   5   9
ATOM      9  C   UNL     1      -2.530   1.819  22.461  0.00  0.00    -0.013 C 
ATOM     14  C   UNL     1      -2.866   0.352  22.208  0.00  0.00    +0.007 C 
ATOM     15  C   UNL     1      -2.862   2.669  21.239  0.00  0.00    +0.007 C 
ENDBRANCH   5   9
BRANCH   6  12
ATOM     12  C   UNL     1      -1.463   3.769  24.735  0.00  0.00    +0.112 C 
BRANCH  12   2
ATOM      1  O   UNL     1       0.509   1.996  25.837  0.00  0.00    -0.270 OA
ATOM      2  N   UNL     1      -0.550   2.946  24.004  0.00  0.00    -0.311 N 
ATOM     18  C   UNL     1       0.378   2.110  24.621  0.00  0.00    +0.244 C 
ATOM     32  H   UNL     1      -0.596   2.995  22.992  0.00  0.00    +0.149 HD
BRANCH  18  22
ATOM     22  C   UNL     1       1.273   1.338  23.721  0.00  0.00    +0.037 A 
ATOM     26  C   UNL     1       2.617   1.691  23.600  0.00  0.00    +0.013 A 
ATOM     27  C   UNL     1       0.769   0.256  22.997  0.00  0.00    +0.013 A 
ATOM     29  C   UNL     1       3.456   0.965  22.756  0.00  0.00    +0.001 A 
ATOM     30  C   UNL     1       1.608  -0.470  22.152  0.00  0.00    +0.001 A 
ATOM     31  C   UNL     1       2.952  -0.116  22.033  0.00  0.00    +0.000 A 
ENDBRANCH  18  22
ENDBRANCH  12   2
ENDBRANCH   6  12
BRANCH   8  13
ATOM     13  C   UNL     1      -5.682   1.622  25.713  0.00  0.00    +0.082 C 
BRANCH  13  17
ATOM      3  N   UNL     1      -3.376   0.669  25.895  0.00  0.00    -0.342 N 
ATOM      4  N   UNL     1      -4.855  -0.572  24.793  0.00  0.00    -0.232 NA
ATOM     17  C   UNL     1      -4.663   0.553  25.448  0.00  0.00    +0.109 A 
ATOM     19  C   UNL     1      -2.693  -0.454  25.503  0.00  0.00    +0.066 A 
ATOM     20  C   UNL     1      -3.637  -1.212  24.818  0.00  0.00    +0.089 A 
ATOM     21  C   UNL     1      -1.370  -0.858  25.684  0.00  0.00    +0.031 A 
ATOM     23  C   UNL     1      -3.258  -2.450  24.273  0.00  0.00    +0.030 A 
ATOM     24  C   UNL     1      -1.009  -2.093  25.137  0.00  0.00    -0.048 A 
ATOM     25  C   UNL     1      -1.934  -2.876  24.442  0.00  0.00    +0.005 A 
ATOM     28  C   UNL     1       0.393  -2.582  25.296  0.00  0.00    +0.044 C 
ATOM     33  H   UNL     1      -2.995   1.444  26.422  0.00  0.00    +0.167 HD
ENDBRANCH  13  17
ENDBRANCH   8  13
TORSDOF 6
ENDMDL
MODEL 4
REMARK VINA RESULT:      -0.5      2.368      6.989
REMARK  Name = 71693033
REMARK  10 active torsions:
REMARK  status: ('A' for Active; 'I' for Inactive)
REMARK    1  A    between atoms: N_2  and  C_12
REMARK    2  A    between atoms: C_5  and  C_9
REMARK    3  A    between atoms: C_6  and  C_12
REMARK    4  A    between atoms: C_8  and  C_13
REMARK    5  A    between atoms: C_9  and  C_14
REMARK    6  A    between atoms: C_9  and  C_15
REMARK    7  A    between atoms: C_10  and  C_16
REMARK    8  A    between atoms: C_13  and  C_17
REMARK    9  A    between atoms: C_18  and  C_22
REMARK   10  A    between atoms: C_24  and  C_28
REMARK                            x       y       z     vdW  Elec       q    Type
REMARK                         _______ _______ _______ _____ _____    ______ ____
ROOT
ATOM      5  C   UNL     1      -1.735   0.016  25.016  0.00  0.00    +0.000 C 
ATOM      6  C   UNL     1      -0.841  -1.162  24.555  0.00  0.00    +0.032 C 
ATOM      7  C   UNL     1      -2.823  -0.482  25.980  0.00  0.00    +0.012 C 
ATOM      8  C   UNL     1      -3.722  -1.556  25.340  0.00  0.00    +0.022 C 
ATOM     10  C   UNL     1      -2.911  -2.619  24.629  0.00  0.00    -0.073 C 
ATOM     11  C   UNL     1      -1.620  -2.431  24.299  0.00  0.00    -0.022 C 
ATOM     16  C   UNL     1      -3.603  -3.923  24.347  0.00  0.00    +0.039 C 
ENDROOT
BRANCH   5   9
ATOM      9  C   UNL     1      -0.916   1.124  25.685  0.00  0.00    -0.013 C 
ATOM     14  C   UNL     1       0.000   1.796  24.667  0.00  0.00    +0.007 C 
ATOM     15  C   UNL     1      -1.838   2.145  26.341  0.00  0.00    +0.007 C 
ENDBRANCH   5   9
BRANCH   6  12
ATOM     12  C   UNL     1      -0.041  -0.792  23.301  0.00  0.00    +0.112 C 
BRANCH  12   2
ATOM      1  O   UNL     1       2.059  -0.092  21.472  0.00  0.00    -0.270 OA
ATOM      2  N   UNL     1       1.352  -0.675  23.604  0.00  0.00    -0.311 N 
ATOM     18  C   UNL     1       2.308  -0.328  22.651  0.00  0.00    +0.244 C 
ATOM     32  H   UNL     1       1.632  -0.864  24.560  0.00  0.00    +0.149 HD
BRANCH  18  22
ATOM     22  C   UNL     1       3.717  -0.274  23.119  0.00  0.00    +0.037 A 
ATOM     26  C   UNL     1       4.294  -1.387  23.729  0.00  0.00    +0.013 A 
ATOM     27  C   UNL     1       4.465   0.892  22.946  0.00  0.00    +0.013 A 
ATOM     29  C   UNL     1       5.617  -1.336  24.167  0.00  0.00    +0.001 A 
ATOM     30  C   UNL     1       5.788   0.944  23.383  0.00  0.00    +0.001 A 
ATOM     31  C   UNL     1       6.364  -0.171  23.993  0.00  0.00    +0.000 A 
ENDBRANCH  18  22
ENDBRANCH  12   2
ENDBRANCH   6  12
BRANCH   8  13
ATOM     13  C   UNL     1      -4.748  -0.923  24.393  0.00  0.00    +0.082 C 
BRANCH  13  17
ATOM      3  N   UNL     1      -3.935   1.318  23.636  0.00  0.00    -0.342 N 
ATOM      4  N   UNL     1      -5.399   1.331  25.307  0.00  0.00    -0.232 NA
ATOM     17  C   UNL     1      -4.719   0.575  24.474  0.00  0.00    +0.109 A 
ATOM     19  C   UNL     1      -4.121   2.640  23.949  0.00  0.00    +0.066 A 
ATOM     20  C   UNL     1      -5.039   2.622  24.995  0.00  0.00    +0.089 A 
ATOM     21  C   UNL     1      -3.582   3.814  23.423  0.00  0.00    +0.031 A 
ATOM     23  C   UNL     1      -5.456   3.838  25.563  0.00  0.00    +0.030 A 
ATOM     24  C   UNL     1      -4.007   5.016  23.999  0.00  0.00    -0.048 A 
ATOM     25  C   UNL     1      -4.927   5.029  25.050  0.00  0.00    +0.005 A 
ATOM     28  C   UNL     1      -3.466   6.307  23.480  0.00  0.00    +0.044 C 
ATOM     33  H   UNL     1      -3.326   0.958  22.912  0.00  0.00    +0.167 HD
ENDBRANCH  13  17
ENDBRANCH   8  13
TORSDOF 6
ENDMDL
MODEL 5
REMARK VINA RESULT:       0.1      2.119      5.781
REMARK  Name = 71693033
REMARK  10 active torsions:
REMARK  status: ('A' for Active; 'I' for Inactive)
REMARK    1  A    between atoms: N_2  and  C_12
REMARK    2  A    between atoms: C_5  and  C_9
REMARK    3  A    between atoms: C_6  and  C_12
REMARK    4  A    between atoms: C_8  and  C_13
REMARK    5  A    between atoms: C_9  and  C_14
REMARK    6  A    between atoms: C_9  and  C_15
REMARK    7  A    between atoms: C_10  and  C_16
REMARK    8  A    between atoms: C_13  and  C_17
REMARK    9  A    between atoms: C_18  and  C_22
REMARK   10  A    between atoms: C_24  and  C_28
REMARK                            x       y       z     vdW  Elec       q    Type
REMARK                         _______ _______ _______ _____ _____    ______ ____
ROOT
ATOM      5  C   UNL     1      -2.586   2.480  23.084  0.00  0.00    +0.000 C 
ATOM      6  C   UNL     1      -1.218   2.288  23.786  0.00  0.00    +0.032 C 
ATOM      7  C   UNL     1      -3.237   3.798  23.529  0.00  0.00    +0.012 C 
ATOM      8  C   UNL     1      -3.457   3.855  25.052  0.00  0.00    +0.022 C 
ATOM     10  C   UNL     1      -2.224   3.417  25.817  0.00  0.00    -0.073 C 
ATOM     11  C   UNL     1      -1.227   2.730  25.230  0.00  0.00    -0.022 C 
ATOM     16  C   UNL     1      -2.141   3.827  27.260  0.00  0.00    +0.039 C 
ENDROOT
BRANCH   5   9
ATOM      9  C   UNL     1      -2.450   2.457  21.558  0.00  0.00    -0.013 C 
ATOM     14  C   UNL     1      -2.424   1.019  21.049  0.00  0.00    +0.007 C 
ATOM     15  C   UNL     1      -3.587   3.240  20.911  0.00  0.00    +0.007 C 
ENDBRANCH   5   9
BRANCH   6  12
ATOM     12  C   UNL     1      -0.751   0.831  23.700  0.00  0.00    +0.112 C 
BRANCH  12   2
ATOM      1  O   UNL     1       1.005  -0.534  21.884  0.00  0.00    -0.270 OA
ATOM      2  N   UNL     1       0.673   0.747  23.790  0.00  0.00    -0.311 N 
ATOM     18  C   UNL     1       1.453   0.061  22.861  0.00  0.00    +0.244 C 
ATOM     32  H   UNL     1       1.112   1.210  24.579  0.00  0.00    +0.149 HD
BRANCH  18  22
ATOM     22  C   UNL     1       2.917   0.046  23.110  0.00  0.00    +0.037 A 
ATOM     26  C   UNL     1       3.685   1.177  22.833  0.00  0.00    +0.013 A 
ATOM     27  C   UNL     1       3.525  -1.101  23.623  0.00  0.00    +0.013 A 
ATOM     29  C   UNL     1       5.060   1.162  23.068  0.00  0.00    +0.001 A 
ATOM     30  C   UNL     1       4.900  -1.116  23.859  0.00  0.00    +0.001 A 
ATOM     31  C   UNL     1       5.667   0.015  23.582  0.00  0.00    +0.000 A 
ENDBRANCH  18  22
ENDBRANCH  12   2
ENDBRANCH   6  12
BRANCH   8  13
ATOM     13  C   UNL     1      -4.680   3.027  25.463  0.00  0.00    +0.082 C 
BRANCH  13  17
ATOM      3  N   UNL     1      -4.814   0.857  24.224  0.00  0.00    -0.342 N 
ATOM      4  N   UNL     1      -3.804   0.784  26.203  0.00  0.00    -0.232 NA
ATOM     17  C   UNL     1      -4.416   1.555  25.331  0.00  0.00    +0.109 A 
ATOM     19  C   UNL     1      -4.435  -0.450  24.394  0.00  0.00    +0.066 A 
ATOM     20  C   UNL     1      -3.807  -0.469  25.635  0.00  0.00    +0.089 A 
ATOM     21  C   UNL     1      -4.583  -1.581  23.591  0.00  0.00    +0.031 A 
ATOM     23  C   UNL     1      -3.290  -1.681  26.123  0.00  0.00    +0.030 A 
ATOM     24  C   UNL     1      -4.062  -2.779  24.090  0.00  0.00    -0.048 A 
ATOM     25  C   UNL     1      -3.427  -2.830  25.334  0.00  0.00    +0.005 A 
ATOM     28  C   UNL     1      -4.188  -4.026  23.279  0.00  0.00    +0.044 C 
ATOM     33  H   UNL     1      -5.301   1.237  23.423  0.00  0.00    +0.167 HD
ENDBRANCH  13  17
ENDBRANCH   8  13
TORSDOF 6
ENDMDL
