MODEL 1
REMARK VINA RESULT:      -0.5      0.000      0.000
REMARK  Name = 45783633
REMARK  10 active torsions:
REMARK  status: ('A' for Active; 'I' for Inactive)
REMARK    1  A    between atoms: O_2  and  C_25
REMARK    2  A    between atoms: O_2  and  C_26
REMARK    3  A    between atoms: N_4  and  C_13
REMARK    4  A    between atoms: N_8  and  C_23
REMARK    5  A    between atoms: C_9  and  C_15
REMARK    6  A    between atoms: C_13  and  C_14
REMARK    7  A    between atoms: C_14  and  C_16
REMARK    8  A    between atoms: C_14  and  C_17
REMARK    9  A    between atoms: C_18  and  C_19
REMARK   10  A    between atoms: C_24  and  C_25
REMARK                            x       y       z     vdW  Elec       q    Type
REMARK                         _______ _______ _______ _____ _____    ______ ____
ROOT
ATOM      1  O   UNL     1      -2.426   3.399  24.567  0.00  0.00    -0.336 OA
ATOM      5  N   UNL     1      -2.060   1.311  23.843  0.00  0.00    -0.190 NA
ATOM      6  N   UNL     1      -1.041   3.284  24.394  0.00  0.00    -0.056 NA
ATOM     15  C   UNL     1      -2.949   2.194  24.221  0.00  0.00    +0.245 A 
ATOM     18  C   UNL     1      -0.904   2.026  23.965  0.00  0.00    +0.204 A 
ENDROOT
BRANCH  18  19
ATOM      7  N   UNL     1       2.762   1.738  23.409  0.00  0.00    -0.239 NA
ATOM     19  C   UNL     1       0.373   1.452  23.652  0.00  0.00    +0.041 A 
ATOM     20  C   UNL     1       0.490   0.113  23.299  0.00  0.00    +0.016 A 
ATOM     21  C   UNL     1       1.529   2.215  23.693  0.00  0.00    +0.124 A 
ATOM     22  C   UNL     1       1.741  -0.415  23.001  0.00  0.00    +0.044 A 
ATOM     23  C   UNL     1       2.836   0.432  23.070  0.00  0.00    +0.125 A 
BRANCH  23   8
ATOM      3  O   UNL     1       5.434   0.555  24.584  0.00  0.00    -0.273 OA
ATOM      8  N   UNL     1       4.091  -0.110  22.768  0.00  0.00    -0.268 N 
ATOM     24  C   UNL     1       5.270  -0.021  23.513  0.00  0.00    +0.244 C 
ATOM     27  H   UNL     1       4.124  -0.629  21.893  0.00  0.00    +0.156 HD
BRANCH  24  25
ATOM     25  C   UNL     1       6.422  -0.737  22.843  0.00  0.00    +0.255 C 
BRANCH  25   2
ATOM      2  O   UNL     1       7.575   0.075  22.929  0.00  0.00    -0.374 OA
ATOM     26  C   UNL     1       8.768  -0.674  22.725  0.00  0.00    +0.194 C 
ENDBRANCH  25   2
ENDBRANCH  24  25
ENDBRANCH  23   8
ENDBRANCH  18  19
BRANCH  15   9
ATOM      4  N   UNL     1      -4.867   0.872  25.100  0.00  0.00    -0.291 NA
ATOM      9  C   UNL     1      -4.455   2.057  24.322  0.00  0.00    +0.146 C 
ATOM     10  C   UNL     1      -5.113   3.247  25.044  0.00  0.00    +0.030 C 
ATOM     11  C   UNL     1      -6.154   1.205  25.711  0.00  0.00    +0.085 C 
ATOM     12  C   UNL     1      -5.921   2.628  26.175  0.00  0.00    +0.017 C 
BRANCH   4  13
ATOM     13  C   UNL     1      -4.937  -0.344  24.300  0.00  0.00    +0.088 C 
BRANCH  13  14
ATOM     14  C   UNL     1      -3.733  -1.272  24.535  0.00  0.00    -0.003 C 
ATOM     16  C   UNL     1      -3.354  -1.263  26.018  0.00  0.00    +0.008 C 
ATOM     17  C   UNL     1      -4.003  -2.710  24.080  0.00  0.00    +0.008 C 
ENDBRANCH  13  14
ENDBRANCH   4  13
ENDBRANCH  15   9
TORSDOF 7
ENDMDL
MODEL 2
REMARK VINA RESULT:       0.4      1.508      2.813
REMARK  Name = 45783633
REMARK  10 active torsions:
REMARK  status: ('A' for Active; 'I' for Inactive)
REMARK    1  A    between atoms: O_2  and  C_25
REMARK    2  A    between atoms: O_2  and  C_26
REMARK    3  A    between atoms: N_4  and  C_13
REMARK    4  A    between atoms: N_8  and  C_23
REMARK    5  A    between atoms: C_9  and  C_15
REMARK    6  A    between atoms: C_13  and  C_14
REMARK    7  A    between atoms: C_14  and  C_16
REMARK    8  A    between atoms: C_14  and  C_17
REMARK    9  A    between atoms: C_18  and  C_19
REMARK   10  A    between atoms: C_24  and  C_25
REMARK                            x       y       z     vdW  Elec       q    Type
REMARK                         _______ _______ _______ _____ _____    ______ ____
ROOT
ATOM      1  O   UNL     1      -3.016   1.402  23.164  0.00  0.00    -0.336 OA
ATOM      5  N   UNL     1      -1.410   1.181  24.711  0.00  0.00    -0.190 NA
ATOM      6  N   UNL     1      -1.828   1.163  22.461  0.00  0.00    -0.056 NA
ATOM     15  C   UNL     1      -2.681   1.396  24.481  0.00  0.00    +0.245 A 
ATOM     18  C   UNL     1      -0.927   1.044  23.442  0.00  0.00    +0.204 A 
ENDROOT
BRANCH  18  19
ATOM      7  N   UNL     1       2.769   1.445  23.486  0.00  0.00    -0.239 NA
ATOM     19  C   UNL     1       0.461   0.789  23.188  0.00  0.00    +0.041 A 
ATOM     20  C   UNL     1       0.863  -0.306  22.432  0.00  0.00    +0.016 A 
ATOM     21  C   UNL     1       1.445   1.627  23.688  0.00  0.00    +0.124 A 
ATOM     22  C   UNL     1       2.215  -0.527  22.202  0.00  0.00    +0.044 A 
ATOM     23  C   UNL     1       3.121   0.370  22.747  0.00  0.00    +0.125 A 
BRANCH  23   8
ATOM      3  O   UNL     1       5.318  -0.465  24.626  0.00  0.00    -0.273 OA
ATOM      8  N   UNL     1       4.481   0.138  22.509  0.00  0.00    -0.268 N 
ATOM     24  C   UNL     1       5.462  -0.252  23.426  0.00  0.00    +0.244 C 
ATOM     27  H   UNL     1       4.768   0.275  21.542  0.00  0.00    +0.156 HD
BRANCH  24  25
ATOM     25  C   UNL     1       6.822  -0.391  22.779  0.00  0.00    +0.255 C 
BRANCH  25   2
ATOM      2  O   UNL     1       7.803   0.099  23.670  0.00  0.00    -0.374 OA
ATOM     26  C   UNL     1       9.110   0.032  23.109  0.00  0.00    +0.194 C 
ENDBRANCH  25   2
ENDBRANCH  24  25
ENDBRANCH  23   8
ENDBRANCH  18  19
BRANCH  15   9
ATOM      4  N   UNL     1      -4.312   3.020  25.428  0.00  0.00    -0.291 NA
ATOM      9  C   UNL     1      -3.808   1.633  25.465  0.00  0.00    +0.146 C 
ATOM     10  C   UNL     1      -5.043   0.760  25.177  0.00  0.00    +0.030 C 
ATOM     11  C   UNL     1      -5.722   2.958  25.814  0.00  0.00    +0.085 C 
ATOM     12  C   UNL     1      -6.201   1.739  25.052  0.00  0.00    +0.017 C 
BRANCH   4  13
ATOM     13  C   UNL     1      -3.551   3.930  26.275  0.00  0.00    +0.088 C 
BRANCH  13  14
ATOM     14  C   UNL     1      -2.690   4.910  25.460  0.00  0.00    -0.003 C 
ATOM     16  C   UNL     1      -1.227   4.460  25.488  0.00  0.00    +0.008 C 
ATOM     17  C   UNL     1      -3.161   5.039  24.009  0.00  0.00    +0.008 C 
ENDBRANCH  13  14
ENDBRANCH   4  13
ENDBRANCH  15   9
TORSDOF 7
ENDMDL
MODEL 3
REMARK VINA RESULT:       1.1      1.996      3.275
REMARK  Name = 45783633
REMARK  10 active torsions:
REMARK  status: ('A' for Active; 'I' for Inactive)
REMARK    1  A    between atoms: O_2  and  C_25
REMARK    2  A    between atoms: O_2  and  C_26
REMARK    3  A    between atoms: N_4  and  C_13
REMARK    4  A    between atoms: N_8  and  C_23
REMARK    5  A    between atoms: C_9  and  C_15
REMARK    6  A    between atoms: C_13  and  C_14
REMARK    7  A    between atoms: C_14  and  C_16
REMARK    8  A    between atoms: C_14  and  C_17
REMARK    9  A    between atoms: C_18  and  C_19
REMARK   10  A    between atoms: C_24  and  C_25
REMARK                            x       y       z     vdW  Elec       q    Type
REMARK                         _______ _______ _______ _____ _____    ______ ____
ROOT
ATOM      1  O   UNL     1      -4.231  -0.539  25.129  0.00  0.00    -0.336 OA
ATOM      5  N   UNL     1      -2.750   1.138  25.010  0.00  0.00    -0.190 NA
ATOM      6  N   UNL     1      -3.041  -1.102  24.650  0.00  0.00    -0.056 NA
ATOM     15  C   UNL     1      -3.973   0.782  25.315  0.00  0.00    +0.245 A 
ATOM     18  C   UNL     1      -2.216  -0.051  24.607  0.00  0.00    +0.204 A 
ENDROOT
BRANCH  18  19
ATOM      7  N   UNL     1       1.176  -1.459  24.028  0.00  0.00    -0.239 NA
ATOM     19  C   UNL     1      -0.856  -0.155  24.167  0.00  0.00    +0.041 A 
ATOM     20  C   UNL     1      -0.243   0.885  23.478  0.00  0.00    +0.016 A 
ATOM     21  C   UNL     1      -0.109  -1.296  24.414  0.00  0.00    +0.124 A 
ATOM     22  C   UNL     1       1.077   0.756  23.063  0.00  0.00    +0.044 A 
ATOM     23  C   UNL     1       1.737  -0.427  23.360  0.00  0.00    +0.125 A 
BRANCH  23   8
ATOM      3  O   UNL     1       3.876   1.663  23.026  0.00  0.00    -0.273 OA
ATOM      8  N   UNL     1       3.067  -0.546  22.938  0.00  0.00    -0.268 N 
ATOM     24  C   UNL     1       4.021   0.466  22.802  0.00  0.00    +0.244 C 
ATOM     27  H   UNL     1       3.350  -1.496  22.708  0.00  0.00    +0.156 HD
BRANCH  24  25
ATOM     25  C   UNL     1       5.348  -0.067  22.308  0.00  0.00    +0.255 C 
BRANCH  25   2
ATOM      2  O   UNL     1       6.254  -0.109  23.392  0.00  0.00    -0.374 OA
ATOM     26  C   UNL     1       5.690  -0.747  24.532  0.00  0.00    +0.194 C 
ENDBRANCH  25   2
ENDBRANCH  24  25
ENDBRANCH  23   8
ENDBRANCH  18  19
BRANCH  15   9
ATOM      4  N   UNL     1      -4.969   3.056  25.499  0.00  0.00    -0.291 NA
ATOM      9  C   UNL     1      -5.117   1.626  25.838  0.00  0.00    +0.146 C 
ATOM     10  C   UNL     1      -6.476   1.221  25.240  0.00  0.00    +0.030 C 
ATOM     11  C   UNL     1      -6.324   3.598  25.395  0.00  0.00    +0.085 C 
ATOM     12  C   UNL     1      -7.044   2.500  24.640  0.00  0.00    +0.017 C 
BRANCH   4  13
ATOM     13  C   UNL     1      -4.155   3.792  26.457  0.00  0.00    +0.088 C 
BRANCH  13  14
ATOM     14  C   UNL     1      -2.903   4.411  25.813  0.00  0.00    -0.003 C 
ATOM     16  C   UNL     1      -1.661   3.618  26.228  0.00  0.00    +0.008 C 
ATOM     17  C   UNL     1      -2.994   4.464  24.285  0.00  0.00    +0.008 C 
ENDBRANCH  13  14
ENDBRANCH   4  13
ENDBRANCH  15   9
TORSDOF 7
ENDMDL
