MODEL 1
REMARK VINA RESULT:      -3.3      0.000      0.000
REMARK  Name = 75536951
REMARK  6 active torsions:
REMARK  status: ('A' for Active; 'I' for Inactive)
REMARK    1  A    between atoms: O_2  and  C_6
REMARK    2  A    between atoms: N_3  and  C_8
REMARK    3  A    between atoms: N_4  and  C_14
REMARK    4  A    between atoms: N_4  and  C_17
REMARK    5  A    between atoms: N_4  and  C_18
REMARK    6  A    between atoms: C_8  and  C_11
REMARK                            x       y       z     vdW  Elec       q    Type
REMARK                         _______ _______ _______ _____ _____    ______ ____
ROOT
ATOM      8  C   UNL     1      -2.453   0.050  25.478  0.00  0.00    +0.119 C 
ENDROOT
BRANCH   8   3
ATOM      1  O   UNL     1      -4.285   4.066  24.438  0.00  0.00    -0.376 OA
ATOM      3  N   UNL     1      -3.227   1.288  25.382  0.00  0.00    -0.293 NA
ATOM      5  C   UNL     1      -4.662   0.983  25.339  0.00  0.00    +0.118 C 
ATOM      6  C   UNL     1      -5.615   2.086  24.852  0.00  0.00    +0.154 C 
ATOM      7  C   UNL     1      -2.755   2.131  24.281  0.00  0.00    +0.113 C 
ATOM      9  C   UNL     1      -5.243   3.488  25.317  0.00  0.00    +0.192 C 
ATOM     10  C   UNL     1      -2.954   3.606  24.632  0.00  0.00    +0.175 C 
BRANCH   6   2
ATOM      2  O   UNL     1      -6.923   1.792  25.343  0.00  0.00    -0.388 OA
ATOM     19  H   UNL     1      -7.413   1.354  24.626  0.00  0.00    +0.210 HD
ENDBRANCH   6   2
ENDBRANCH   8   3
BRANCH   8  11
ATOM     11  C   UNL     1      -1.153   0.142  24.724  0.00  0.00    -0.033 A 
ATOM     12  C   UNL     1      -0.774  -0.882  23.856  0.00  0.00    +0.007 A 
ATOM     13  C   UNL     1      -0.327   1.253  24.892  0.00  0.00    +0.007 A 
ATOM     14  C   UNL     1       1.256   0.315  23.327  0.00  0.00    +0.029 A 
ATOM     15  C   UNL     1       0.429  -0.796  23.158  0.00  0.00    +0.023 A 
ATOM     16  C   UNL     1       0.878   1.340  24.193  0.00  0.00    +0.023 A 
BRANCH  14   4
ATOM      4  N   UNL     1       2.473   0.403  22.619  0.00  0.00    -0.336 N 
ATOM     17  C   UNL     1       3.592   1.140  23.173  0.00  0.00    +0.129 C 
ATOM     18  C   UNL     1       2.619  -0.237  21.328  0.00  0.00    +0.129 C 
ENDBRANCH  14   4
ENDBRANCH   8  11
TORSDOF 4
ENDMDL
MODEL 2
REMARK VINA RESULT:      -3.0      1.259      2.126
REMARK  Name = 75536951
REMARK  6 active torsions:
REMARK  status: ('A' for Active; 'I' for Inactive)
REMARK    1  A    between atoms: O_2  and  C_6
REMARK    2  A    between atoms: N_3  and  C_8
REMARK    3  A    between atoms: N_4  and  C_14
REMARK    4  A    between atoms: N_4  and  C_17
REMARK    5  A    between atoms: N_4  and  C_18
REMARK    6  A    between atoms: C_8  and  C_11
REMARK                            x       y       z     vdW  Elec       q    Type
REMARK                         _______ _______ _______ _____ _____    ______ ____
ROOT
ATOM      8  C   UNL     1      -3.450  -0.034  25.055  0.00  0.00    +0.119 C 
ENDROOT
BRANCH   8   3
ATOM      1  O   UNL     1      -6.063   3.623  25.661  0.00  0.00    -0.376 OA
ATOM      3  N   UNL     1      -4.079   1.287  25.081  0.00  0.00    -0.293 NA
ATOM      5  C   UNL     1      -3.117   2.294  25.545  0.00  0.00    +0.118 C 
ATOM      6  C   UNL     1      -3.668   3.649  26.015  0.00  0.00    +0.154 C 
ATOM      7  C   UNL     1      -5.338   1.266  25.828  0.00  0.00    +0.113 C 
ATOM      9  C   UNL     1      -4.837   4.172  25.190  0.00  0.00    +0.192 C 
ATOM     10  C   UNL     1      -6.311   2.289  25.239  0.00  0.00    +0.175 C 
BRANCH   6   2
ATOM      2  O   UNL     1      -2.613   4.608  25.939  0.00  0.00    -0.388 OA
ATOM     19  H   UNL     1      -2.521   5.011  26.820  0.00  0.00    +0.210 HD
ENDBRANCH   6   2
ENDBRANCH   8   3
BRANCH   8  11
ATOM     11  C   UNL     1      -2.084   0.009  24.424  0.00  0.00    -0.033 A 
ATOM     12  C   UNL     1      -1.180  -1.032  24.642  0.00  0.00    +0.007 A 
ATOM     13  C   UNL     1      -1.720   1.090  23.621  0.00  0.00    +0.007 A 
ATOM     14  C   UNL     1       0.448   0.090  23.254  0.00  0.00    +0.029 A 
ATOM     15  C   UNL     1       0.085  -0.991  24.058  0.00  0.00    +0.023 A 
ATOM     16  C   UNL     1      -0.454   1.130  23.035  0.00  0.00    +0.023 A 
BRANCH  14   4
ATOM      4  N   UNL     1       1.728   0.130  22.662  0.00  0.00    -0.336 N 
ATOM     17  C   UNL     1       2.811   0.849  23.304  0.00  0.00    +0.129 C 
ATOM     18  C   UNL     1       1.975  -0.541  21.402  0.00  0.00    +0.129 C 
ENDBRANCH  14   4
ENDBRANCH   8  11
TORSDOF 4
ENDMDL
MODEL 3
REMARK VINA RESULT:      -2.7      3.754      5.556
REMARK  Name = 75536951
REMARK  6 active torsions:
REMARK  status: ('A' for Active; 'I' for Inactive)
REMARK    1  A    between atoms: O_2  and  C_6
REMARK    2  A    between atoms: N_3  and  C_8
REMARK    3  A    between atoms: N_4  and  C_14
REMARK    4  A    between atoms: N_4  and  C_17
REMARK    5  A    between atoms: N_4  and  C_18
REMARK    6  A    between atoms: C_8  and  C_11
REMARK                            x       y       z     vdW  Elec       q    Type
REMARK                         _______ _______ _______ _____ _____    ______ ____
ROOT
ATOM      8  C   UNL     1      -4.797   0.516  25.019  0.00  0.00    +0.119 C 
ENDROOT
BRANCH   8   3
ATOM      1  O   UNL     1      -2.708  -3.384  24.020  0.00  0.00    -0.376 OA
ATOM      3  N   UNL     1      -3.999  -0.709  24.975  0.00  0.00    -0.293 NA
ATOM      5  C   UNL     1      -2.595  -0.408  25.282  0.00  0.00    +0.118 C 
ATOM      6  C   UNL     1      -1.539  -1.461  24.912  0.00  0.00    +0.154 C 
ATOM      7  C   UNL     1      -4.200  -1.436  23.720  0.00  0.00    +0.113 C 
ATOM      9  C   UNL     1      -1.979  -2.901  25.143  0.00  0.00    +0.192 C 
ATOM     10  C   UNL     1      -4.057  -2.940  23.959  0.00  0.00    +0.175 C 
BRANCH   6   2
ATOM      2  O   UNL     1      -0.377  -1.223  25.707  0.00  0.00    -0.388 OA
ATOM     19  H   UNL     1       0.301  -1.864  25.434  0.00  0.00    +0.210 HD
ENDBRANCH   6   2
ENDBRANCH   8   3
BRANCH   8  11
ATOM     11  C   UNL     1      -3.933   1.749  24.971  0.00  0.00    -0.033 A 
ATOM     12  C   UNL     1      -4.121   2.770  25.902  0.00  0.00    +0.007 A 
ATOM     13  C   UNL     1      -2.945   1.870  23.994  0.00  0.00    +0.007 A 
ATOM     14  C   UNL     1      -2.332   4.032  24.881  0.00  0.00    +0.029 A 
ATOM     15  C   UNL     1      -3.321   3.911  25.857  0.00  0.00    +0.023 A 
ATOM     16  C   UNL     1      -2.144   3.011  23.949  0.00  0.00    +0.023 A 
BRANCH  14   4
ATOM      4  N   UNL     1      -1.522   5.186  24.836  0.00  0.00    -0.336 N 
ATOM     17  C   UNL     1      -0.104   5.076  24.555  0.00  0.00    +0.129 C 
ATOM     18  C   UNL     1      -2.095   6.494  25.077  0.00  0.00    +0.129 C 
ENDBRANCH  14   4
ENDBRANCH   8  11
TORSDOF 4
ENDMDL
MODEL 4
REMARK VINA RESULT:      -2.7      1.229      2.207
REMARK  Name = 75536951
REMARK  6 active torsions:
REMARK  status: ('A' for Active; 'I' for Inactive)
REMARK    1  A    between atoms: O_2  and  C_6
REMARK    2  A    between atoms: N_3  and  C_8
REMARK    3  A    between atoms: N_4  and  C_14
REMARK    4  A    between atoms: N_4  and  C_17
REMARK    5  A    between atoms: N_4  and  C_18
REMARK    6  A    between atoms: C_8  and  C_11
REMARK                            x       y       z     vdW  Elec       q    Type
REMARK                         _______ _______ _______ _____ _____    ______ ____
ROOT
ATOM      8  C   UNL     1      -1.860   2.609  25.798  0.00  0.00    +0.119 C 
ENDROOT
BRANCH   8   3
ATOM      1  O   UNL     1      -5.906   0.850  24.750  0.00  0.00    -0.376 OA
ATOM      3  N   UNL     1      -3.218   2.318  25.338  0.00  0.00    -0.293 NA
ATOM      5  C   UNL     1      -4.149   3.335  25.841  0.00  0.00    +0.118 C 
ATOM      6  C   UNL     1      -5.651   3.012  25.808  0.00  0.00    +0.154 C 
ATOM      7  C   UNL     1      -3.605   0.940  25.647  0.00  0.00    +0.113 C 
ATOM      9  C   UNL     1      -6.101   2.248  24.570  0.00  0.00    +0.192 C 
ATOM     10  C   UNL     1      -4.564   0.415  24.577  0.00  0.00    +0.175 C 
BRANCH   6   2
ATOM      2  O   UNL     1      -6.371   4.244  25.852  0.00  0.00    -0.388 OA
ATOM     19  H   UNL     1      -6.417   4.523  26.782  0.00  0.00    +0.210 HD
ENDBRANCH   6   2
ENDBRANCH   8   3
BRANCH   8  11
ATOM     11  C   UNL     1      -0.822   1.945  24.932  0.00  0.00    -0.033 A 
ATOM     12  C   UNL     1       0.220   2.697  24.390  0.00  0.00    +0.007 A 
ATOM     13  C   UNL     1      -0.902   0.577  24.673  0.00  0.00    +0.007 A 
ATOM     14  C   UNL     1       1.101   0.714  23.329  0.00  0.00    +0.029 A 
ATOM     15  C   UNL     1       1.181   2.082  23.588  0.00  0.00    +0.023 A 
ATOM     16  C   UNL     1       0.060  -0.039  23.871  0.00  0.00    +0.023 A 
BRANCH  14   4
ATOM      4  N   UNL     1       2.073   0.091  22.519  0.00  0.00    -0.336 N 
ATOM     17  C   UNL     1       3.483   0.215  22.838  0.00  0.00    +0.129 C 
ATOM     18  C   UNL     1       1.678  -0.675  21.354  0.00  0.00    +0.129 C 
ENDBRANCH  14   4
ENDBRANCH   8  11
TORSDOF 4
ENDMDL
MODEL 5
REMARK VINA RESULT:      -2.6      1.410      2.200
REMARK  Name = 75536951
REMARK  6 active torsions:
REMARK  status: ('A' for Active; 'I' for Inactive)
REMARK    1  A    between atoms: O_2  and  C_6
REMARK    2  A    between atoms: N_3  and  C_8
REMARK    3  A    between atoms: N_4  and  C_14
REMARK    4  A    between atoms: N_4  and  C_17
REMARK    5  A    between atoms: N_4  and  C_18
REMARK    6  A    between atoms: C_8  and  C_11
REMARK                            x       y       z     vdW  Elec       q    Type
REMARK                         _______ _______ _______ _____ _____    ______ ____
ROOT
ATOM      8  C   UNL     1      -1.776   2.986  26.090  0.00  0.00    +0.119 C 
ENDROOT
BRANCH   8   3
ATOM      1  O   UNL     1      -6.135   2.613  24.898  0.00  0.00    -0.376 OA
ATOM      3  N   UNL     1      -3.162   2.591  25.841  0.00  0.00    -0.293 NA
ATOM      5  C   UNL     1      -3.202   1.281  25.181  0.00  0.00    +0.118 C 
ATOM      6  C   UNL     1      -4.510   0.867  24.487  0.00  0.00    +0.154 C 
ATOM      7  C   UNL     1      -3.902   3.643  25.141  0.00  0.00    +0.113 C 
ATOM      9  C   UNL     1      -5.773   1.278  25.232  0.00  0.00    +0.192 C 
ATOM     10  C   UNL     1      -5.373   3.614  25.559  0.00  0.00    +0.175 C 
BRANCH   6   2
ATOM      2  O   UNL     1      -4.516  -0.556  24.363  0.00  0.00    -0.388 OA
ATOM     19  H   UNL     1      -3.783  -0.800  23.772  0.00  0.00    +0.210 HD
ENDBRANCH   6   2
ENDBRANCH   8   3
BRANCH   8  11
ATOM     11  C   UNL     1      -0.815   2.259  25.187  0.00  0.00    -0.033 A 
ATOM     12  C   UNL     1       0.044   2.978  24.356  0.00  0.00    +0.007 A 
ATOM     13  C   UNL     1      -0.784   0.864  25.181  0.00  0.00    +0.007 A 
ATOM     14  C   UNL     1       0.964   0.909  23.515  0.00  0.00    +0.029 A 
ATOM     15  C   UNL     1       0.933   2.304  23.521  0.00  0.00    +0.023 A 
ATOM     16  C   UNL     1       0.106   0.189  24.346  0.00  0.00    +0.023 A 
BRANCH  14   4
ATOM      4  N   UNL     1       1.865   0.228  22.671  0.00  0.00    -0.336 N 
ATOM     17  C   UNL     1       3.296   0.409  22.824  0.00  0.00    +0.129 C 
ATOM     18  C   UNL     1       1.373  -0.658  21.635  0.00  0.00    +0.129 C 
ENDBRANCH  14   4
ENDBRANCH   8  11
TORSDOF 4
ENDMDL
MODEL 6
REMARK VINA RESULT:      -2.6      2.855      6.535
REMARK  Name = 75536951
REMARK  6 active torsions:
REMARK  status: ('A' for Active; 'I' for Inactive)
REMARK    1  A    between atoms: O_2  and  C_6
REMARK    2  A    between atoms: N_3  and  C_8
REMARK    3  A    between atoms: N_4  and  C_14
REMARK    4  A    between atoms: N_4  and  C_17
REMARK    5  A    between atoms: N_4  and  C_18
REMARK    6  A    between atoms: C_8  and  C_11
REMARK                            x       y       z     vdW  Elec       q    Type
REMARK                         _______ _______ _______ _____ _____    ______ ____
ROOT
ATOM      8  C   UNL     1      -0.069   3.095  24.258  0.00  0.00    +0.119 C 
ENDROOT
BRANCH   8   3
ATOM      1  O   UNL     1       1.871  -0.796  22.971  0.00  0.00    -0.376 OA
ATOM      3  N   UNL     1       0.268   1.754  23.782  0.00  0.00    -0.293 NA
ATOM      5  C   UNL     1      -0.520   0.749  24.505  0.00  0.00    +0.118 C 
ATOM      6  C   UNL     1      -0.048  -0.713  24.443  0.00  0.00    +0.154 C 
ATOM      7  C   UNL     1       1.714   1.523  23.811  0.00  0.00    +0.113 C 
ATOM      9  C   UNL     1       0.495  -1.140  23.087  0.00  0.00    +0.192 C 
ATOM     10  C   UNL     1       2.113   0.573  22.680  0.00  0.00    +0.175 C 
BRANCH   6   2
ATOM      2  O   UNL     1      -1.161  -1.552  24.757  0.00  0.00    -0.388 OA
ATOM     19  H   UNL     1      -1.888  -1.307  24.159  0.00  0.00    +0.210 HD
ENDBRANCH   6   2
ENDBRANCH   8   3
BRANCH   8  11
ATOM     11  C   UNL     1      -1.525   3.210  24.624  0.00  0.00    -0.033 A 
ATOM     12  C   UNL     1      -2.502   2.687  23.776  0.00  0.00    +0.007 A 
ATOM     13  C   UNL     1      -1.898   3.839  25.812  0.00  0.00    +0.007 A 
ATOM     14  C   UNL     1      -4.223   3.422  25.304  0.00  0.00    +0.029 A 
ATOM     15  C   UNL     1      -3.850   2.793  24.116  0.00  0.00    +0.023 A 
ATOM     16  C   UNL     1      -3.247   3.945  26.152  0.00  0.00    +0.023 A 
BRANCH  14   4
ATOM      4  N   UNL     1      -5.586   3.529  25.648  0.00  0.00    -0.336 N 
ATOM     17  C   UNL     1      -6.335   2.354  26.052  0.00  0.00    +0.129 C 
ATOM     18  C   UNL     1      -6.259   4.811  25.596  0.00  0.00    +0.129 C 
ENDBRANCH  14   4
ENDBRANCH   8  11
TORSDOF 4
ENDMDL
MODEL 7
REMARK VINA RESULT:      -2.3      3.034      6.845
REMARK  Name = 75536951
REMARK  6 active torsions:
REMARK  status: ('A' for Active; 'I' for Inactive)
REMARK    1  A    between atoms: O_2  and  C_6
REMARK    2  A    between atoms: N_3  and  C_8
REMARK    3  A    between atoms: N_4  and  C_14
REMARK    4  A    between atoms: N_4  and  C_17
REMARK    5  A    between atoms: N_4  and  C_18
REMARK    6  A    between atoms: C_8  and  C_11
REMARK                            x       y       z     vdW  Elec       q    Type
REMARK                         _______ _______ _______ _____ _____    ______ ____
ROOT
ATOM      8  C   UNL     1      -0.045   3.080  24.688  0.00  0.00    +0.119 C 
ENDROOT
BRANCH   8   3
ATOM      1  O   UNL     1       0.157  -1.400  24.018  0.00  0.00    -0.376 OA
ATOM      3  N   UNL     1       0.324   1.680  24.478  0.00  0.00    -0.293 NA
ATOM      5  C   UNL     1       1.251   1.568  23.346  0.00  0.00    +0.118 C 
ATOM      6  C   UNL     1       1.451   0.179  22.718  0.00  0.00    +0.154 C 
ATOM      7  C   UNL     1      -0.860   0.824  24.376  0.00  0.00    +0.113 C 
ATOM      9  C   UNL     1       1.479  -0.966  23.721  0.00  0.00    +0.192 C 
ATOM     10  C   UNL     1      -0.546  -0.567  24.930  0.00  0.00    +0.175 C 
BRANCH   6   2
ATOM      2  O   UNL     1       2.696   0.183  22.018  0.00  0.00    -0.388 OA
ATOM     19  H   UNL     1       3.378   0.493  22.637  0.00  0.00    +0.210 HD
ENDBRANCH   6   2
ENDBRANCH   8   3
BRANCH   8  11
ATOM     11  C   UNL     1      -1.524   3.241  24.918  0.00  0.00    -0.033 A 
ATOM     12  C   UNL     1      -2.430   2.892  23.916  0.00  0.00    +0.007 A 
ATOM     13  C   UNL     1      -1.990   3.739  26.135  0.00  0.00    +0.007 A 
ATOM     14  C   UNL     1      -4.265   3.539  25.347  0.00  0.00    +0.029 A 
ATOM     15  C   UNL     1      -3.799   3.041  24.131  0.00  0.00    +0.023 A 
ATOM     16  C   UNL     1      -3.360   3.888  26.350  0.00  0.00    +0.023 A 
BRANCH  14   4
ATOM      4  N   UNL     1      -5.650   3.689  25.564  0.00  0.00    -0.336 N 
ATOM     17  C   UNL     1      -6.479   2.531  25.840  0.00  0.00    +0.129 C 
ATOM     18  C   UNL     1      -6.264   5.000  25.509  0.00  0.00    +0.129 C 
ENDBRANCH  14   4
ENDBRANCH   8  11
TORSDOF 4
ENDMDL
MODEL 8
REMARK VINA RESULT:      -1.9      3.654      5.054
REMARK  Name = 75536951
REMARK  6 active torsions:
REMARK  status: ('A' for Active; 'I' for Inactive)
REMARK    1  A    between atoms: O_2  and  C_6
REMARK    2  A    between atoms: N_3  and  C_8
REMARK    3  A    between atoms: N_4  and  C_14
REMARK    4  A    between atoms: N_4  and  C_17
REMARK    5  A    between atoms: N_4  and  C_18
REMARK    6  A    between atoms: C_8  and  C_11
REMARK                            x       y       z     vdW  Elec       q    Type
REMARK                         _______ _______ _______ _____ _____    ______ ____
ROOT
ATOM      8  C   UNL     1      -4.224   2.820  24.897  0.00  0.00    +0.119 C 
ENDROOT
BRANCH   8   3
ATOM      1  O   UNL     1      -0.647   5.600  25.107  0.00  0.00    -0.376 OA
ATOM      3  N   UNL     1      -2.979   3.566  24.714  0.00  0.00    -0.293 NA
ATOM      5  C   UNL     1      -1.847   2.639  24.607  0.00  0.00    +0.118 C 
ATOM      6  C   UNL     1      -0.433   3.208  24.803  0.00  0.00    +0.154 C 
ATOM      7  C   UNL     1      -2.818   4.601  25.737  0.00  0.00    +0.113 C 
ATOM      9  C   UNL     1      -0.223   4.590  24.199  0.00  0.00    +0.192 C 
ATOM     10  C   UNL     1      -2.054   5.793  25.159  0.00  0.00    +0.175 C 
BRANCH   6   2
ATOM      2  O   UNL     1       0.495   2.313  24.188  0.00  0.00    -0.388 OA
ATOM     19  H   UNL     1       1.096   1.993  24.883  0.00  0.00    +0.210 HD
ENDBRANCH   6   2
ENDBRANCH   8   3
BRANCH   8  11
ATOM     11  C   UNL     1      -4.025   1.341  24.699  0.00  0.00    -0.033 A 
ATOM     12  C   UNL     1      -4.180   0.465  25.773  0.00  0.00    +0.007 A 
ATOM     13  C   UNL     1      -3.687   0.846  23.439  0.00  0.00    +0.007 A 
ATOM     14  C   UNL     1      -3.657  -1.400  24.329  0.00  0.00    +0.029 A 
ATOM     15  C   UNL     1      -3.995  -0.904  25.589  0.00  0.00    +0.023 A 
ATOM     16  C   UNL     1      -3.504  -0.525  23.254  0.00  0.00    +0.023 A 
BRANCH  14   4
ATOM      4  N   UNL     1      -3.472  -2.785  24.142  0.00  0.00    -0.336 N 
ATOM     17  C   UNL     1      -2.193  -3.401  24.436  0.00  0.00    +0.129 C 
ATOM     18  C   UNL     1      -4.556  -3.611  23.648  0.00  0.00    +0.129 C 
ENDBRANCH  14   4
ENDBRANCH   8  11
TORSDOF 4
ENDMDL
MODEL 9
REMARK VINA RESULT:      -1.8      2.833      5.028
REMARK  Name = 75536951
REMARK  6 active torsions:
REMARK  status: ('A' for Active; 'I' for Inactive)
REMARK    1  A    between atoms: O_2  and  C_6
REMARK    2  A    between atoms: N_3  and  C_8
REMARK    3  A    between atoms: N_4  and  C_14
REMARK    4  A    between atoms: N_4  and  C_17
REMARK    5  A    between atoms: N_4  and  C_18
REMARK    6  A    between atoms: C_8  and  C_11
REMARK                            x       y       z     vdW  Elec       q    Type
REMARK                         _______ _______ _______ _____ _____    ______ ____
ROOT
ATOM      8  C   UNL     1      -0.378  -0.459  24.407  0.00  0.00    +0.119 C 
ENDROOT
BRANCH   8   3
ATOM      1  O   UNL     1      -3.726  -3.515  24.316  0.00  0.00    -0.376 OA
ATOM      3  N   UNL     1      -1.592  -1.245  24.187  0.00  0.00    -0.293 NA
ATOM      5  C   UNL     1      -2.779  -0.427  24.461  0.00  0.00    +0.118 C 
ATOM      6  C   UNL     1      -4.117  -1.153  24.671  0.00  0.00    +0.154 C 
ATOM      7  C   UNL     1      -1.549  -2.513  24.918  0.00  0.00    +0.113 C 
ATOM      9  C   UNL     1      -4.330  -2.354  23.759  0.00  0.00    +0.192 C 
ATOM     10  C   UNL     1      -2.317  -3.587  24.146  0.00  0.00    +0.175 C 
BRANCH   6   2
ATOM      2  O   UNL     1      -5.171  -0.221  24.426  0.00  0.00    -0.388 OA
ATOM     19  H   UNL     1      -5.967  -0.557  24.873  0.00  0.00    +0.210 HD
ENDBRANCH   6   2
ENDBRANCH   8   3
BRANCH   8  11
ATOM     11  C   UNL     1      -0.686   0.999  24.622  0.00  0.00    -0.033 A 
ATOM     12  C   UNL     1      -0.405   1.599  25.849  0.00  0.00    +0.007 A 
ATOM     13  C   UNL     1      -1.253   1.751  23.592  0.00  0.00    +0.007 A 
ATOM     14  C   UNL     1      -1.257   3.701  25.018  0.00  0.00    +0.029 A 
ATOM     15  C   UNL     1      -0.690   2.949  26.047  0.00  0.00    +0.023 A 
ATOM     16  C   UNL     1      -1.539   3.102  23.791  0.00  0.00    +0.023 A 
BRANCH  14   4
ATOM      4  N   UNL     1      -1.545   5.067  25.219  0.00  0.00    -0.336 N 
ATOM     17  C   UNL     1      -2.769   5.469  25.884  0.00  0.00    +0.129 C 
ATOM     18  C   UNL     1      -0.625   6.086  24.757  0.00  0.00    +0.129 C 
ENDBRANCH  14   4
ENDBRANCH   8  11
TORSDOF 4
ENDMDL
MODEL 10
REMARK VINA RESULT:      -1.7      2.872      4.316
REMARK  Name = 75536951
REMARK  6 active torsions:
REMARK  status: ('A' for Active; 'I' for Inactive)
REMARK    1  A    between atoms: O_2  and  C_6
REMARK    2  A    between atoms: N_3  and  C_8
REMARK    3  A    between atoms: N_4  and  C_14
REMARK    4  A    between atoms: N_4  and  C_17
REMARK    5  A    between atoms: N_4  and  C_18
REMARK    6  A    between atoms: C_8  and  C_11
REMARK                            x       y       z     vdW  Elec       q    Type
REMARK                         _______ _______ _______ _____ _____    ______ ____
ROOT
ATOM      8  C   UNL     1      -0.084   1.822  25.406  0.00  0.00    +0.119 C 
ENDROOT
BRANCH   8   3
ATOM      1  O   UNL     1      -1.875   5.950  24.846  0.00  0.00    -0.376 OA
ATOM      3  N   UNL     1      -0.803   3.093  25.491  0.00  0.00    -0.293 NA
ATOM      5  C   UNL     1      -2.237   2.849  25.687  0.00  0.00    +0.118 C 
ATOM      6  C   UNL     1      -3.206   4.010  25.412  0.00  0.00    +0.154 C 
ATOM      7  C   UNL     1      -0.488   3.964  24.357  0.00  0.00    +0.113 C 
ATOM      9  C   UNL     1      -2.695   5.374  25.856  0.00  0.00    +0.192 C 
ATOM     10  C   UNL     1      -0.554   5.430  24.790  0.00  0.00    +0.175 C 
BRANCH   6   2
ATOM      2  O   UNL     1      -4.424   3.747  26.111  0.00  0.00    -0.388 OA
ATOM     19  H   UNL     1      -5.078   3.450  25.456  0.00  0.00    +0.210 HD
ENDBRANCH   6   2
ENDBRANCH   8   3
BRANCH   8  11
ATOM     11  C   UNL     1      -1.012   0.671  25.124  0.00  0.00    -0.033 A 
ATOM     12  C   UNL     1      -0.995  -0.458  25.944  0.00  0.00    +0.007 A 
ATOM     13  C   UNL     1      -1.891   0.733  24.043  0.00  0.00    +0.007 A 
ATOM     14  C   UNL     1      -2.733  -1.462  24.600  0.00  0.00    +0.029 A 
ATOM     15  C   UNL     1      -1.854  -1.523  25.682  0.00  0.00    +0.023 A 
ATOM     16  C   UNL     1      -2.752  -0.333  23.781  0.00  0.00    +0.023 A 
BRANCH  14   4
ATOM      4  N   UNL     1      -3.604  -2.539  24.337  0.00  0.00    -0.336 N 
ATOM     17  C   UNL     1      -4.698  -2.386  23.397  0.00  0.00    +0.129 C 
ATOM     18  C   UNL     1      -3.421  -3.812  25.006  0.00  0.00    +0.129 C 
ENDBRANCH  14   4
ENDBRANCH   8  11
TORSDOF 4
ENDMDL
