MODEL 1
REMARK VINA RESULT:      13.4      0.000      0.000
REMARK  Name = 51136875
REMARK  7 active torsions:
REMARK  status: ('A' for Active; 'I' for Inactive)
REMARK    1  A    between atoms: O_3  and  C_32
REMARK    2  A    between atoms: O_3  and  C_33
REMARK    3  A    between atoms: N_4  and  C_9
REMARK    4  A    between atoms: N_8  and  C_25
REMARK    5  A    between atoms: C_10  and  C_19
REMARK    6  A    between atoms: C_20  and  C_21
REMARK    7  A    between atoms: C_26  and  C_27
REMARK                            x       y       z     vdW  Elec       q    Type
REMARK                         _______ _______ _______ _____ _____    ______ ____
ROOT
ATOM      7  N   UNL     1       2.170   2.242  23.766  0.00  0.00    -0.239 NA
ATOM     21  C   UNL     1      -0.089   1.545  23.262  0.00  0.00    +0.041 A 
ATOM     22  C   UNL     1       0.393   0.375  22.687  0.00  0.00    +0.016 A 
ATOM     23  C   UNL     1       0.832   2.439  23.784  0.00  0.00    +0.124 A 
ATOM     24  C   UNL     1       1.763   0.137  22.650  0.00  0.00    +0.044 A 
ATOM     25  C   UNL     1       2.601   1.094  23.199  0.00  0.00    +0.125 A 
ENDROOT
BRANCH  21  20
ATOM      1  O   UNL     1      -3.415   2.691  22.963  0.00  0.00    -0.336 OA
ATOM      5  N   UNL     1      -2.339   1.092  24.104  0.00  0.00    -0.190 NA
ATOM      6  N   UNL     1      -2.066   2.794  22.600  0.00  0.00    -0.056 NA
ATOM     19  C   UNL     1      -3.489   1.665  23.851  0.00  0.00    +0.245 A 
ATOM     20  C   UNL     1      -1.497   1.818  23.314  0.00  0.00    +0.204 A 
BRANCH  19  10
ATOM      4  N   UNL     1      -4.806   0.600  25.674  0.00  0.00    -0.288 NA
ATOM     10  C   UNL     1      -4.863   1.346  24.401  0.00  0.00    +0.146 C 
ATOM     13  C   UNL     1      -6.012   0.960  26.419  0.00  0.00    +0.085 C 
ATOM     14  C   UNL     1      -5.682   2.609  24.723  0.00  0.00    +0.030 C 
ATOM     15  C   UNL     1      -6.093   2.454  26.181  0.00  0.00    +0.017 C 
BRANCH   4   9
ATOM      9  C   UNL     1      -4.683  -0.845  25.490  0.00  0.00    +0.057 C 
ATOM     11  C   UNL     1      -4.751  -1.188  23.998  0.00  0.00    +0.019 C 
ATOM     12  C   UNL     1      -3.374  -1.340  26.114  0.00  0.00    +0.019 C 
ATOM     16  C   UNL     1      -4.549  -2.685  23.762  0.00  0.00    +0.002 C 
ATOM     17  C   UNL     1      -3.175  -2.836  25.874  0.00  0.00    +0.002 C 
ATOM     18  C   UNL     1      -3.252  -3.184  24.391  0.00  0.00    +0.000 C 
ENDBRANCH   4   9
ENDBRANCH  19  10
ENDBRANCH  21  20
BRANCH  25   8
ATOM      2  O   UNL     1       4.144  -1.384  23.882  0.00  0.00    -0.270 OA
ATOM      8  N   UNL     1       3.978   0.846  23.157  0.00  0.00    -0.266 N 
ATOM     26  C   UNL     1       4.646  -0.337  23.490  0.00  0.00    +0.249 C 
ATOM     34  H   UNL     1       4.510   1.634  22.801  0.00  0.00    +0.157 HD
BRANCH  26  27
ATOM     27  C   UNL     1       6.123  -0.301  23.313  0.00  0.00    +0.037 A 
ATOM     28  C   UNL     1       6.870   0.720  23.899  0.00  0.00    +0.016 A 
ATOM     29  C   UNL     1       6.759  -1.287  22.559  0.00  0.00    +0.016 A 
ATOM     30  C   UNL     1       8.255   0.756  23.732  0.00  0.00    +0.046 A 
ATOM     31  C   UNL     1       8.143  -1.251  22.392  0.00  0.00    +0.046 A 
ATOM     32  C   UNL     1       8.891  -0.230  22.978  0.00  0.00    +0.120 A 
BRANCH  32   3
ATOM      3  O   UNL     1      10.242  -0.196  22.815  0.00  0.00    -0.495 OA
ATOM     33  C   UNL     1      10.773   0.856  22.011  0.00  0.00    +0.277 C 
ENDBRANCH  32   3
ENDBRANCH  26  27
ENDBRANCH  25   8
TORSDOF 6
ENDMDL
MODEL 2
REMARK VINA RESULT:      13.7      1.034      1.441
REMARK  Name = 51136875
REMARK  7 active torsions:
REMARK  status: ('A' for Active; 'I' for Inactive)
REMARK    1  A    between atoms: O_3  and  C_32
REMARK    2  A    between atoms: O_3  and  C_33
REMARK    3  A    between atoms: N_4  and  C_9
REMARK    4  A    between atoms: N_8  and  C_25
REMARK    5  A    between atoms: C_10  and  C_19
REMARK    6  A    between atoms: C_20  and  C_21
REMARK    7  A    between atoms: C_26  and  C_27
REMARK                            x       y       z     vdW  Elec       q    Type
REMARK                         _______ _______ _______ _____ _____    ______ ____
ROOT
ATOM      7  N   UNL     1       2.807   1.916  23.459  0.00  0.00    -0.239 NA
ATOM     21  C   UNL     1       0.438   1.442  23.533  0.00  0.00    +0.041 A 
ATOM     22  C   UNL     1       0.684   0.120  23.177  0.00  0.00    +0.016 A 
ATOM     23  C   UNL     1       1.523   2.292  23.660  0.00  0.00    +0.124 A 
ATOM     24  C   UNL     1       1.990  -0.304  22.962  0.00  0.00    +0.044 A 
ATOM     25  C   UNL     1       3.007   0.624  23.115  0.00  0.00    +0.125 A 
ENDROOT
BRANCH  21  20
ATOM      1  O   UNL     1      -2.582   3.186  24.082  0.00  0.00    -0.336 OA
ATOM      5  N   UNL     1      -1.949   1.047  23.883  0.00  0.00    -0.190 NA
ATOM      6  N   UNL     1      -1.198   3.208  23.868  0.00  0.00    -0.056 NA
ATOM     19  C   UNL     1      -2.944   1.876  24.077  0.00  0.00    +0.245 A 
ATOM     20  C   UNL     1      -0.900   1.910  23.760  0.00  0.00    +0.204 A 
BRANCH  19  10
ATOM      4  N   UNL     1      -4.666   0.827  25.534  0.00  0.00    -0.288 NA
ATOM     10  C   UNL     1      -4.413   1.580  24.290  0.00  0.00    +0.146 C 
ATOM     13  C   UNL     1      -6.005   1.206  25.983  0.00  0.00    +0.085 C 
ATOM     14  C   UNL     1      -5.263   2.857  24.426  0.00  0.00    +0.030 C 
ATOM     15  C   UNL     1      -6.002   2.703  25.748  0.00  0.00    +0.017 C 
BRANCH   4   9
ATOM      9  C   UNL     1      -4.529  -0.619  25.370  0.00  0.00    +0.057 C 
ATOM     11  C   UNL     1      -4.520  -0.976  23.880  0.00  0.00    +0.019 C 
ATOM     12  C   UNL     1      -3.251  -1.104  26.063  0.00  0.00    +0.019 C 
ATOM     16  C   UNL     1      -4.302  -2.473  23.667  0.00  0.00    +0.002 C 
ATOM     17  C   UNL     1      -3.035  -2.601  25.847  0.00  0.00    +0.002 C 
ATOM     18  C   UNL     1      -3.037  -2.962  24.365  0.00  0.00    +0.000 C 
ENDBRANCH   4   9
ENDBRANCH  19  10
ENDBRANCH  21  20
BRANCH  25   8
ATOM      2  O   UNL     1       5.445   0.872  24.842  0.00  0.00    -0.270 OA
ATOM      8  N   UNL     1       4.319   0.187  22.896  0.00  0.00    -0.266 N 
ATOM     26  C   UNL     1       5.423   0.331  23.742  0.00  0.00    +0.249 C 
ATOM     34  H   UNL     1       4.424  -0.323  22.025  0.00  0.00    +0.157 HD
BRANCH  26  27
ATOM     27  C   UNL     1       6.688  -0.269  23.241  0.00  0.00    +0.037 A 
ATOM     28  C   UNL     1       6.650  -1.434  22.475  0.00  0.00    +0.016 A 
ATOM     29  C   UNL     1       7.911   0.331  23.539  0.00  0.00    +0.016 A 
ATOM     30  C   UNL     1       7.836  -2.000  22.006  0.00  0.00    +0.046 A 
ATOM     31  C   UNL     1       9.096  -0.234  23.070  0.00  0.00    +0.046 A 
ATOM     32  C   UNL     1       9.059  -1.399  22.304  0.00  0.00    +0.120 A 
BRANCH  32   3
ATOM      3  O   UNL     1      10.218  -1.950  21.846  0.00  0.00    -0.495 OA
ATOM     33  C   UNL     1      10.136  -3.255  21.277  0.00  0.00    +0.277 C 
ENDBRANCH  32   3
ENDBRANCH  26  27
ENDBRANCH  25   8
TORSDOF 6
ENDMDL
MODEL 3
REMARK VINA RESULT:      16.1      1.833      3.489
REMARK  Name = 51136875
REMARK  7 active torsions:
REMARK  status: ('A' for Active; 'I' for Inactive)
REMARK    1  A    between atoms: O_3  and  C_32
REMARK    2  A    between atoms: O_3  and  C_33
REMARK    3  A    between atoms: N_4  and  C_9
REMARK    4  A    between atoms: N_8  and  C_25
REMARK    5  A    between atoms: C_10  and  C_19
REMARK    6  A    between atoms: C_20  and  C_21
REMARK    7  A    between atoms: C_26  and  C_27
REMARK                            x       y       z     vdW  Elec       q    Type
REMARK                         _______ _______ _______ _____ _____    ______ ____
ROOT
ATOM      7  N   UNL     1       2.056   1.475  23.892  0.00  0.00    -0.239 NA
ATOM     21  C   UNL     1      -0.060   0.306  23.838  0.00  0.00    +0.041 A 
ATOM     22  C   UNL     1       0.590  -0.866  23.466  0.00  0.00    +0.016 A 
ATOM     23  C   UNL     1       0.711   1.439  24.037  0.00  0.00    +0.124 A 
ATOM     24  C   UNL     1       1.971  -0.869  23.307  0.00  0.00    +0.044 A 
ATOM     25  C   UNL     1       2.651   0.317  23.530  0.00  0.00    +0.125 A 
ENDROOT
BRANCH  21  20
ATOM      1  O   UNL     1      -3.563  -0.127  23.862  0.00  0.00    -0.336 OA
ATOM      5  N   UNL     1      -2.090   1.284  24.787  0.00  0.00    -0.190 NA
ATOM      6  N   UNL     1      -2.300  -0.540  23.421  0.00  0.00    -0.056 NA
ATOM     19  C   UNL     1      -3.350   0.952  24.660  0.00  0.00    +0.245 A 
ATOM     20  C   UNL     1      -1.484   0.340  24.009  0.00  0.00    +0.204 A 
BRANCH  19  10
ATOM      4  N   UNL     1      -5.055   2.757  24.499  0.00  0.00    -0.288 NA
ATOM     10  C   UNL     1      -4.578   1.592  25.272  0.00  0.00    +0.146 C 
ATOM     13  C   UNL     1      -6.500   2.830  24.712  0.00  0.00    +0.085 C 
ATOM     14  C   UNL     1      -5.784   0.636  25.324  0.00  0.00    +0.030 C 
ATOM     15  C   UNL     1      -6.907   1.374  24.608  0.00  0.00    +0.017 C 
BRANCH   4   9
ATOM      9  C   UNL     1      -4.382   4.003  24.860  0.00  0.00    +0.057 C 
ATOM     11  C   UNL     1      -3.573   3.805  26.147  0.00  0.00    +0.019 C 
ATOM     12  C   UNL     1      -3.483   4.462  23.706  0.00  0.00    +0.019 C 
ATOM     16  C   UNL     1      -2.793   5.067  26.513  0.00  0.00    +0.002 C 
ATOM     17  C   UNL     1      -2.704   5.723  24.077  0.00  0.00    +0.002 C 
ATOM     18  C   UNL     1      -1.906   5.534  25.363  0.00  0.00    +0.000 C 
ENDBRANCH   4   9
ENDBRANCH  19  10
ENDBRANCH  21  20
BRANCH  25   8
ATOM      2  O   UNL     1       4.662  -1.801  24.209  0.00  0.00    -0.270 OA
ATOM      8  N   UNL     1       4.041   0.304  23.367  0.00  0.00    -0.266 N 
ATOM     26  C   UNL     1       4.935  -0.718  23.704  0.00  0.00    +0.249 C 
ATOM     34  H   UNL     1       4.392   1.140  22.910  0.00  0.00    +0.157 HD
BRANCH  26  27
ATOM     27  C   UNL     1       6.360  -0.446  23.379  0.00  0.00    +0.037 A 
ATOM     28  C   UNL     1       7.064  -1.316  22.547  0.00  0.00    +0.016 A 
ATOM     29  C   UNL     1       6.994   0.678  23.908  0.00  0.00    +0.016 A 
ATOM     30  C   UNL     1       8.402  -1.063  22.243  0.00  0.00    +0.046 A 
ATOM     31  C   UNL     1       8.331   0.932  23.605  0.00  0.00    +0.046 A 
ATOM     32  C   UNL     1       9.035   0.062  22.773  0.00  0.00    +0.120 A 
BRANCH  32   3
ATOM      3  O   UNL     1      10.341   0.310  22.477  0.00  0.00    -0.495 OA
ATOM     33  C   UNL     1      10.622   1.478  21.708  0.00  0.00    +0.277 C 
ENDBRANCH  32   3
ENDBRANCH  26  27
ENDBRANCH  25   8
TORSDOF 6
ENDMDL
