MODEL 1
REMARK VINA RESULT:      -5.3      0.000      0.000
REMARK  Name = 51137886
REMARK  7 active torsions:
REMARK  status: ('A' for Active; 'I' for Inactive)
REMARK    1  A    between atoms: N_1  and  C_10
REMARK    2  A    between atoms: N_2  and  C_14
REMARK    3  A    between atoms: N_4  and  C_23
REMARK    4  A    between atoms: N_4  and  C_24
REMARK    5  A    between atoms: N_4  and  C_25
REMARK    6  A    between atoms: C_5  and  C_9
REMARK    7  A    between atoms: C_10  and  C_12
REMARK                            x       y       z     vdW  Elec       q    Type
REMARK                         _______ _______ _______ _____ _____    ______ ____
ROOT
ATOM      1  N   UNL     1      -3.377 -10.709  15.293  0.00  0.00    -0.297 NA
ATOM      5  C   UNL     1      -4.109 -10.780  13.066  0.00  0.00    +0.070 C 
ATOM      6  C   UNL     1      -2.606 -10.455  13.103  0.00  0.00    +0.028 C 
ATOM      7  C   UNL     1      -4.596 -10.533  14.499  0.00  0.00    +0.096 C 
ATOM      8  C   UNL     1      -2.333 -10.017  14.536  0.00  0.00    +0.085 C 
ENDROOT
BRANCH   5   9
ATOM      2  N   UNL     1      -6.266 -10.042  11.991  0.00  0.00    -0.330 N 
ATOM      3  N   UNL     1      -4.397  -9.246  11.090  0.00  0.00    -0.232 NA
ATOM      9  C   UNL     1      -4.900 -10.010  12.034  0.00  0.00    +0.115 A 
ATOM     11  C   UNL     1      -6.671  -9.245  10.949  0.00  0.00    +0.069 A 
ATOM     13  C   UNL     1      -5.486  -8.761  10.404  0.00  0.00    +0.089 A 
ATOM     14  C   UNL     1      -7.132 -10.781  12.881  0.00  0.00    +0.150 C 
ATOM     15  C   UNL     1      -7.934  -8.919  10.454  0.00  0.00    +0.028 A 
ATOM     18  C   UNL     1      -5.545  -7.897   9.297  0.00  0.00    +0.030 A 
ATOM     19  C   UNL     1      -7.974  -8.057   9.353  0.00  0.00    +0.002 A 
ATOM     22  C   UNL     1      -6.802  -7.554   8.783  0.00  0.00    +0.002 A 
ENDBRANCH   5   9
BRANCH   1  10
ATOM     10  C   UNL     1      -3.516 -10.192  16.646  0.00  0.00    +0.119 C 
BRANCH  10  12
ATOM     12  C   UNL     1      -4.954 -10.167  17.091  0.00  0.00    -0.033 A 
ATOM     16  C   UNL     1      -5.919  -9.542  16.300  0.00  0.00    +0.007 A 
ATOM     17  C   UNL     1      -5.323 -10.769  18.294  0.00  0.00    +0.007 A 
ATOM     20  C   UNL     1      -7.251  -9.518  16.712  0.00  0.00    +0.023 A 
ATOM     21  C   UNL     1      -6.655 -10.746  18.706  0.00  0.00    +0.023 A 
ATOM     23  C   UNL     1      -7.619 -10.121  17.916  0.00  0.00    +0.029 A 
BRANCH  23   4
ATOM      4  N   UNL     1      -8.967 -10.098  18.333  0.00  0.00    -0.336 N 
ATOM     24  C   UNL     1      -9.966  -9.403  17.547  0.00  0.00    +0.129 C 
ATOM     25  C   UNL     1      -9.369 -10.776  19.548  0.00  0.00    +0.129 C 
ENDBRANCH  23   4
ENDBRANCH  10  12
ENDBRANCH   1  10
TORSDOF 4
ENDMDL
MODEL 2
REMARK VINA RESULT:      -4.7      1.048      2.075
REMARK  Name = 51137886
REMARK  7 active torsions:
REMARK  status: ('A' for Active; 'I' for Inactive)
REMARK    1  A    between atoms: N_1  and  C_10
REMARK    2  A    between atoms: N_2  and  C_14
REMARK    3  A    between atoms: N_4  and  C_23
REMARK    4  A    between atoms: N_4  and  C_24
REMARK    5  A    between atoms: N_4  and  C_25
REMARK    6  A    between atoms: C_5  and  C_9
REMARK    7  A    between atoms: C_10  and  C_12
REMARK                            x       y       z     vdW  Elec       q    Type
REMARK                         _______ _______ _______ _____ _____    ______ ____
ROOT
ATOM      1  N   UNL     1      -3.239 -10.754  16.175  0.00  0.00    -0.297 NA
ATOM      5  C   UNL     1      -3.465 -10.781  13.841  0.00  0.00    +0.070 C 
ATOM      6  C   UNL     1      -2.122 -10.134  14.220  0.00  0.00    +0.028 C 
ATOM      7  C   UNL     1      -4.278 -10.781  15.142  0.00  0.00    +0.096 C 
ATOM      8  C   UNL     1      -2.257  -9.780  15.695  0.00  0.00    +0.085 C 
ENDROOT
BRANCH   5   9
ATOM      2  N   UNL     1      -3.572  -9.835  11.507  0.00  0.00    -0.330 N 
ATOM      3  N   UNL     1      -5.449  -9.739  12.694  0.00  0.00    -0.232 NA
ATOM      9  C   UNL     1      -4.190 -10.115  12.694  0.00  0.00    +0.115 A 
ATOM     11  C   UNL     1      -4.495  -9.237  10.686  0.00  0.00    +0.069 A 
ATOM     13  C   UNL     1      -5.658  -9.189  11.450  0.00  0.00    +0.089 A 
ATOM     14  C   UNL     1      -2.195 -10.115  11.173  0.00  0.00    +0.150 C 
ATOM     15  C   UNL     1      -4.414  -8.749   9.382  0.00  0.00    +0.028 A 
ATOM     18  C   UNL     1      -6.819  -8.624  10.895  0.00  0.00    +0.030 A 
ATOM     19  C   UNL     1      -5.579  -8.191   8.845  0.00  0.00    +0.002 A 
ATOM     22  C   UNL     1      -6.761  -8.128   9.586  0.00  0.00    +0.002 A 
ENDBRANCH   5   9
BRANCH   1  10
ATOM     10  C   UNL     1      -3.768 -10.406  17.485  0.00  0.00    +0.119 C 
BRANCH  10  12
ATOM     12  C   UNL     1      -5.262 -10.217  17.454  0.00  0.00    -0.033 A 
ATOM     16  C   UNL     1      -6.052 -10.734  18.480  0.00  0.00    +0.007 A 
ATOM     17  C   UNL     1      -5.855  -9.524  16.399  0.00  0.00    +0.007 A 
ATOM     20  C   UNL     1      -7.436 -10.559  18.451  0.00  0.00    +0.023 A 
ATOM     21  C   UNL     1      -7.238  -9.348  16.370  0.00  0.00    +0.023 A 
ATOM     23  C   UNL     1      -8.028  -9.865  17.395  0.00  0.00    +0.029 A 
BRANCH  23   4
ATOM      4  N   UNL     1      -9.428  -9.687  17.366  0.00  0.00    -0.336 N 
ATOM     24  C   UNL     1     -10.087  -9.244  16.154  0.00  0.00    +0.129 C 
ATOM     25  C   UNL     1     -10.225  -9.952  18.547  0.00  0.00    +0.129 C 
ENDBRANCH  23   4
ENDBRANCH  10  12
ENDBRANCH   1  10
TORSDOF 4
ENDMDL
