MODEL 1
REMARK VINA RESULT:      -1.7      0.000      0.000
REMARK  Name = 71693354
REMARK  8 active torsions:
REMARK  status: ('A' for Active; 'I' for Inactive)
REMARK    1  A    between atoms: O_3  and  C_15
REMARK    2  A    between atoms: N_5  and  C_13
REMARK    3  A    between atoms: N_6  and  C_20
REMARK    4  A    between atoms: C_7  and  C_12
REMARK    5  A    between atoms: C_10  and  C_15
REMARK    6  A    between atoms: C_11  and  C_14
REMARK    7  A    between atoms: C_13  and  C_18
REMARK    8  A    between atoms: C_13  and  C_19
REMARK                            x       y       z     vdW  Elec       q    Type
REMARK                         _______ _______ _______ _____ _____    ______ ____
ROOT
ATOM      1  O   UNL     1      -3.580   1.841  23.252  0.00  0.00    -0.361 OA
ATOM      4  O   UNL     1      -4.195  -1.719  22.937  0.00  0.00    -0.273 OA
ATOM      5  N   UNL     1      -3.755  -0.471  24.848  0.00  0.00    -0.289 N 
ATOM     10  C   UNL     1      -3.616   0.864  25.443  0.00  0.00    +0.135 C 
ATOM     11  C   UNL     1      -2.866   1.817  24.494  0.00  0.00    +0.171 C 
ATOM     16  C   UNL     1      -3.916  -0.648  23.479  0.00  0.00    +0.242 C 
ATOM     17  C   UNL     1      -3.649   0.582  22.622  0.00  0.00    +0.256 C 
ENDROOT
BRANCH  11  14
ATOM     14  C   UNL     1      -1.373   1.625  24.275  0.00  0.00    -0.017 A 
ATOM     20  C   UNL     1       1.365   1.271  23.873  0.00  0.00    +0.033 A 
ATOM     21  C   UNL     1      -0.524   2.731  24.247  0.00  0.00    +0.008 A 
ATOM     22  C   UNL     1      -0.854   0.341  24.102  0.00  0.00    +0.008 A 
ATOM     23  C   UNL     1       0.845   2.554  24.047  0.00  0.00    +0.023 A 
ATOM     24  C   UNL     1       0.516   0.164  23.901  0.00  0.00    +0.023 A 
BRANCH  20   6
ATOM      2  O   UNL     1       2.860   0.033  21.572  0.00  0.00    -0.275 OA
ATOM      6  N   UNL     1       2.734   1.093  23.671  0.00  0.00    -0.285 N 
ATOM     12  C   UNL     1       3.374   0.507  22.576  0.00  0.00    +0.220 C 
ATOM     25  H   UNL     1       3.331   1.442  24.418  0.00  0.00    +0.155 HD
BRANCH  12   7
ATOM      7  C   UNL     1       4.866   0.480  22.691  0.00  0.00    +0.075 C 
ATOM      8  C   UNL     1       5.496  -0.600  23.501  0.00  0.00    +0.013 C 
ATOM      9  C   UNL     1       5.481   0.811  24.008  0.00  0.00    +0.013 C 
ENDBRANCH  12   7
ENDBRANCH  20   6
ENDBRANCH  11  14
BRANCH   5  13
ATOM     13  C   UNL     1      -3.902  -1.601  25.758  0.00  0.00    +0.070 C 
ATOM     18  C   UNL     1      -3.036  -1.398  26.996  0.00  0.00    +0.028 C 
ATOM     19  C   UNL     1      -3.559  -2.905  25.051  0.00  0.00    +0.028 C 
ENDBRANCH   5  13
BRANCH  10  15
ATOM     15  C   UNL     1      -5.003   1.426  25.786  0.00  0.00    +0.181 C 
BRANCH  15   3
ATOM      3  O   UNL     1      -4.989   2.818  25.542  0.00  0.00    -0.393 OA
ATOM     26  H   UNL     1      -4.893   3.261  26.402  0.00  0.00    +0.209 HD
ENDBRANCH  15   3
ENDBRANCH  10  15
TORSDOF 6
ENDMDL
MODEL 2
REMARK VINA RESULT:      -0.7      1.959      2.550
REMARK  Name = 71693354
REMARK  8 active torsions:
REMARK  status: ('A' for Active; 'I' for Inactive)
REMARK    1  A    between atoms: O_3  and  C_15
REMARK    2  A    between atoms: N_5  and  C_13
REMARK    3  A    between atoms: N_6  and  C_20
REMARK    4  A    between atoms: C_7  and  C_12
REMARK    5  A    between atoms: C_10  and  C_15
REMARK    6  A    between atoms: C_11  and  C_14
REMARK    7  A    between atoms: C_13  and  C_18
REMARK    8  A    between atoms: C_13  and  C_19
REMARK                            x       y       z     vdW  Elec       q    Type
REMARK                         _______ _______ _______ _____ _____    ______ ____
ROOT
ATOM      1  O   UNL     1      -2.980   4.742  24.963  0.00  0.00    -0.361 OA
ATOM      4  O   UNL     1      -4.878   3.243  22.262  0.00  0.00    -0.273 OA
ATOM      5  N   UNL     1      -4.433   2.402  24.382  0.00  0.00    -0.289 N 
ATOM     10  C   UNL     1      -3.913   2.669  25.730  0.00  0.00    +0.135 C 
ATOM     11  C   UNL     1      -2.646   3.542  25.671  0.00  0.00    +0.171 C 
ATOM     16  C   UNL     1      -4.328   3.338  23.360  0.00  0.00    +0.242 C 
ATOM     17  C   UNL     1      -3.399   4.512  23.638  0.00  0.00    +0.256 C 
ENDROOT
BRANCH  11  14
ATOM     14  C   UNL     1      -1.349   2.935  25.157  0.00  0.00    -0.017 A 
ATOM     20  C   UNL     1       1.028   1.819  24.214  0.00  0.00    +0.033 A 
ATOM     21  C   UNL     1      -0.430   3.729  24.474  0.00  0.00    +0.008 A 
ATOM     22  C   UNL     1      -1.081   1.582  25.369  0.00  0.00    +0.008 A 
ATOM     23  C   UNL     1       0.760   3.172  24.002  0.00  0.00    +0.023 A 
ATOM     24  C   UNL     1       0.109   1.024  24.898  0.00  0.00    +0.023 A 
BRANCH  20   6
ATOM      2  O   UNL     1       1.504  -0.288  22.119  0.00  0.00    -0.275 OA
ATOM      6  N   UNL     1       2.217   1.261  23.742  0.00  0.00    -0.285 N 
ATOM     12  C   UNL     1       2.377   0.279  22.762  0.00  0.00    +0.220 C 
ATOM     25  H   UNL     1       3.066   1.626  24.168  0.00  0.00    +0.155 HD
BRANCH  12   7
ATOM      7  C   UNL     1       3.804  -0.089  22.501  0.00  0.00    +0.075 C 
ATOM      8  C   UNL     1       4.544  -0.845  23.552  0.00  0.00    +0.013 C 
ATOM      9  C   UNL     1       4.867   0.596  23.291  0.00  0.00    +0.013 C 
ENDBRANCH  12   7
ENDBRANCH  20   6
ENDBRANCH  11  14
BRANCH   5  13
ATOM     13  C   UNL     1      -5.228   1.194  24.195  0.00  0.00    +0.070 C 
ATOM     18  C   UNL     1      -6.590   1.350  24.860  0.00  0.00    +0.028 C 
ATOM     19  C   UNL     1      -4.487  -0.022  24.735  0.00  0.00    +0.028 C 
ENDBRANCH   5  13
BRANCH  10  15
ATOM     15  C   UNL     1      -4.997   3.348  26.579  0.00  0.00    +0.181 C 
BRANCH  15   3
ATOM      3  O   UNL     1      -5.769   4.175  25.731  0.00  0.00    -0.393 OA
ATOM     26  H   UNL     1      -5.597   3.892  24.818  0.00  0.00    +0.209 HD
ENDBRANCH  15   3
ENDBRANCH  10  15
TORSDOF 6
ENDMDL
MODEL 3
REMARK VINA RESULT:      -0.6      1.669      2.884
REMARK  Name = 71693354
REMARK  8 active torsions:
REMARK  status: ('A' for Active; 'I' for Inactive)
REMARK    1  A    between atoms: O_3  and  C_15
REMARK    2  A    between atoms: N_5  and  C_13
REMARK    3  A    between atoms: N_6  and  C_20
REMARK    4  A    between atoms: C_7  and  C_12
REMARK    5  A    between atoms: C_10  and  C_15
REMARK    6  A    between atoms: C_11  and  C_14
REMARK    7  A    between atoms: C_13  and  C_18
REMARK    8  A    between atoms: C_13  and  C_19
REMARK                            x       y       z     vdW  Elec       q    Type
REMARK                         _______ _______ _______ _____ _____    ______ ____
ROOT
ATOM      1  O   UNL     1      -3.310   0.602  22.586  0.00  0.00    -0.361 OA
ATOM      4  O   UNL     1      -4.118   0.166  26.095  0.00  0.00    -0.273 OA
ATOM      5  N   UNL     1      -3.454   2.090  24.972  0.00  0.00    -0.289 N 
ATOM     10  C   UNL     1      -3.200   2.736  23.677  0.00  0.00    +0.135 C 
ATOM     11  C   UNL     1      -2.492   1.772  22.708  0.00  0.00    +0.171 C 
ATOM     16  C   UNL     1      -3.742   0.734  25.067  0.00  0.00    +0.242 C 
ATOM     17  C   UNL     1      -3.493  -0.081  23.805  0.00  0.00    +0.256 C 
ENDROOT
BRANCH  11  14
ATOM     14  C   UNL     1      -1.035   1.411  22.952  0.00  0.00    -0.017 A 
ATOM     20  C   UNL     1       1.638   0.748  23.402  0.00  0.00    +0.033 A 
ATOM     21  C   UNL     1      -0.513   0.227  22.431  0.00  0.00    +0.008 A 
ATOM     22  C   UNL     1      -0.220   2.264  23.698  0.00  0.00    +0.008 A 
ATOM     23  C   UNL     1       0.824  -0.104  22.656  0.00  0.00    +0.023 A 
ATOM     24  C   UNL     1       1.116   1.933  23.923  0.00  0.00    +0.023 A 
BRANCH  20   6
ATOM      2  O   UNL     1       4.011   0.827  21.553  0.00  0.00    -0.275 OA
ATOM      6  N   UNL     1       2.975   0.417  23.628  0.00  0.00    -0.285 N 
ATOM     12  C   UNL     1       4.039   0.474  22.724  0.00  0.00    +0.220 C 
ATOM     25  H   UNL     1       3.191   0.103  24.571  0.00  0.00    +0.155 HD
BRANCH  12   7
ATOM      7  C   UNL     1       5.349   0.043  23.305  0.00  0.00    +0.075 C 
ATOM      8  C   UNL     1       5.362  -1.113  24.245  0.00  0.00    +0.013 C 
ATOM      9  C   UNL     1       5.590   0.277  24.758  0.00  0.00    +0.013 C 
ENDBRANCH  12   7
ENDBRANCH  20   6
ENDBRANCH  11  14
BRANCH   5  13
ATOM     13  C   UNL     1      -3.575   2.952  26.141  0.00  0.00    +0.070 C 
ATOM     18  C   UNL     1      -4.987   3.516  26.239  0.00  0.00    +0.028 C 
ATOM     19  C   UNL     1      -2.538   4.067  26.092  0.00  0.00    +0.028 C 
ENDBRANCH   5  13
BRANCH  10  15
ATOM     15  C   UNL     1      -4.524   3.230  23.076  0.00  0.00    +0.181 C 
BRANCH  15   3
ATOM      3  O   UNL     1      -4.303   3.537  21.714  0.00  0.00    -0.393 OA
ATOM     26  H   UNL     1      -4.991   4.168  21.445  0.00  0.00    +0.209 HD
ENDBRANCH  15   3
ENDBRANCH  10  15
TORSDOF 6
ENDMDL
MODEL 4
REMARK VINA RESULT:       0.6      1.926      3.572
REMARK  Name = 71693354
REMARK  8 active torsions:
REMARK  status: ('A' for Active; 'I' for Inactive)
REMARK    1  A    between atoms: O_3  and  C_15
REMARK    2  A    between atoms: N_5  and  C_13
REMARK    3  A    between atoms: N_6  and  C_20
REMARK    4  A    between atoms: C_7  and  C_12
REMARK    5  A    between atoms: C_10  and  C_15
REMARK    6  A    between atoms: C_11  and  C_14
REMARK    7  A    between atoms: C_13  and  C_18
REMARK    8  A    between atoms: C_13  and  C_19
REMARK                            x       y       z     vdW  Elec       q    Type
REMARK                         _______ _______ _______ _____ _____    ______ ____
ROOT
ATOM      1  O   UNL     1      -3.371   0.821  24.740  0.00  0.00    -0.361 OA
ATOM      4  O   UNL     1      -3.033   3.485  27.178  0.00  0.00    -0.273 OA
ATOM      5  N   UNL     1      -3.004   3.610  24.857  0.00  0.00    -0.289 N 
ATOM     10  C   UNL     1      -3.237   2.919  23.583  0.00  0.00    +0.135 C 
ATOM     11  C   UNL     1      -2.723   1.468  23.638  0.00  0.00    +0.171 C 
ATOM     16  C   UNL     1      -3.061   2.940  26.073  0.00  0.00    +0.242 C 
ATOM     17  C   UNL     1      -3.088   1.420  25.984  0.00  0.00    +0.256 C 
ENDROOT
BRANCH  11  14
ATOM     14  C   UNL     1      -1.224   1.212  23.644  0.00  0.00    -0.017 A 
ATOM     20  C   UNL     1       1.526   0.741  23.653  0.00  0.00    +0.033 A 
ATOM     21  C   UNL     1      -0.338   2.259  23.897  0.00  0.00    +0.008 A 
ATOM     22  C   UNL     1      -0.735  -0.071  23.395  0.00  0.00    +0.008 A 
ATOM     23  C   UNL     1       1.037   2.023  23.902  0.00  0.00    +0.023 A 
ATOM     24  C   UNL     1       0.641  -0.307  23.400  0.00  0.00    +0.023 A 
BRANCH  20   6
ATOM      2  O   UNL     1       3.486   0.546  21.376  0.00  0.00    -0.275 OA
ATOM      6  N   UNL     1       2.902   0.505  23.657  0.00  0.00    -0.285 N 
ATOM     12  C   UNL     1       3.764   0.425  22.561  0.00  0.00    +0.220 C 
ATOM     25  H   UNL     1       3.318   0.383  24.578  0.00  0.00    +0.155 HD
BRANCH  12   7
ATOM      7  C   UNL     1       5.190   0.157  22.932  0.00  0.00    +0.075 C 
ATOM      8  C   UNL     1       5.472  -0.894  23.950  0.00  0.00    +0.013 C 
ATOM      9  C   UNL     1       5.654   0.554  24.292  0.00  0.00    +0.013 C 
ENDBRANCH  12   7
ENDBRANCH  20   6
ENDBRANCH  11  14
BRANCH   5  13
ATOM     13  C   UNL     1      -2.889   5.063  24.823  0.00  0.00    +0.070 C 
ATOM     18  C   UNL     1      -3.479   5.609  23.528  0.00  0.00    +0.028 C 
ATOM     19  C   UNL     1      -1.437   5.489  24.990  0.00  0.00    +0.028 C 
ENDBRANCH   5  13
BRANCH  10  15
ATOM     15  C   UNL     1      -4.735   2.948  23.243  0.00  0.00    +0.181 C 
BRANCH  15   3
ATOM      3  O   UNL     1      -5.452   2.492  24.372  0.00  0.00    -0.393 OA
ATOM     26  H   UNL     1      -4.927   1.784  24.782  0.00  0.00    +0.209 HD
ENDBRANCH  15   3
ENDBRANCH  10  15
TORSDOF 6
ENDMDL
