MODEL 1
REMARK VINA RESULT:      -2.6      0.000      0.000
REMARK  Name = 45783687
REMARK  8 active torsions:
REMARK  status: ('A' for Active; 'I' for Inactive)
REMARK    1  A    between atoms: O_2  and  C_25
REMARK    2  A    between atoms: O_4  and  C_27
REMARK    3  A    between atoms: O_4  and  C_28
REMARK    4  A    between atoms: N_5  and  C_13
REMARK    5  A    between atoms: C_9  and  C_14
REMARK    6  A    between atoms: C_13  and  C_15
REMARK    7  A    between atoms: C_18  and  C_22
REMARK    8  A    between atoms: C_21  and  C_25
REMARK                            x       y       z     vdW  Elec       q    Type
REMARK                         _______ _______ _______ _____ _____    ______ ____
ROOT
ATOM      5  N   UNL     1      -5.246   2.332  25.465  0.00  0.00    -0.287 NA
ATOM      9  C   UNL     1      -4.396   2.934  24.418  0.00  0.00    +0.146 C 
ATOM     10  C   UNL     1      -4.633   4.449  24.545  0.00  0.00    +0.030 C 
ATOM     11  C   UNL     1      -5.674   4.598  25.645  0.00  0.00    +0.017 C 
ATOM     12  C   UNL     1      -6.367   3.250  25.667  0.00  0.00    +0.085 C 
ENDROOT
BRANCH   9  14
ATOM      1  O   UNL     1      -2.351   2.854  25.753  0.00  0.00    -0.336 OA
ATOM      6  N   UNL     1      -2.139   1.976  23.704  0.00  0.00    -0.190 NA
ATOM      7  N   UNL     1      -1.024   2.418  25.653  0.00  0.00    -0.056 NA
ATOM     14  C   UNL     1      -2.937   2.556  24.564  0.00  0.00    +0.245 A 
ATOM     18  C   UNL     1      -0.977   1.912  24.417  0.00  0.00    +0.204 A 
BRANCH  18  22
ATOM      8  N   UNL     1       2.588   1.510  23.434  0.00  0.00    -0.221 NA
ATOM     22  C   UNL     1       0.215   1.335  23.864  0.00  0.00    +0.041 A 
ATOM     23  C   UNL     1       0.186   0.093  23.240  0.00  0.00    +0.018 A 
ATOM     24  C   UNL     1       1.430   1.997  23.935  0.00  0.00    +0.126 A 
ATOM     26  C   UNL     1       1.356  -0.441  22.712  0.00  0.00    +0.068 A 
ATOM     27  C   UNL     1       2.521   0.301  22.835  0.00  0.00    +0.214 A 
BRANCH  27   4
ATOM      4  O   UNL     1       3.687  -0.204  22.322  0.00  0.00    -0.480 OA
ATOM     28  C   UNL     1       4.885   0.123  23.017  0.00  0.00    +0.279 C 
ENDBRANCH  27   4
ENDBRANCH  18  22
ENDBRANCH   9  14
BRANCH   5  13
ATOM     13  C   UNL     1      -5.692   0.984  25.138  0.00  0.00    +0.120 C 
BRANCH  13  15
ATOM     15  C   UNL     1      -4.539   0.026  25.006  0.00  0.00    -0.033 A 
ATOM     16  C   UNL     1      -4.318  -0.637  23.800  0.00  0.00    +0.006 A 
ATOM     17  C   UNL     1      -3.690  -0.198  26.091  0.00  0.00    +0.006 A 
ATOM     19  C   UNL     1      -3.248  -1.524  23.677  0.00  0.00    +0.015 A 
ATOM     20  C   UNL     1      -2.621  -1.085  25.968  0.00  0.00    +0.015 A 
ATOM     21  C   UNL     1      -2.399  -1.748  24.762  0.00  0.00    +0.059 A 
BRANCH  21  25
ATOM      3  O   UNL     1      -0.324  -2.747  25.408  0.00  0.00    -0.245 OA
ATOM     25  C   UNL     1      -1.284  -2.672  24.634  0.00  0.00    +0.337 C 
BRANCH  25   2
ATOM      2  O   UNL     1      -1.399  -3.478  23.543  0.00  0.00    -0.477 OA
ATOM     29  H   UNL     1      -1.961  -4.262  23.726  0.00  0.00    +0.295 HD
ENDBRANCH  25   2
ENDBRANCH  21  25
ENDBRANCH  13  15
ENDBRANCH   5  13
TORSDOF 7
ENDMDL
MODEL 2
REMARK VINA RESULT:      -0.5      2.055      4.484
REMARK  Name = 45783687
REMARK  8 active torsions:
REMARK  status: ('A' for Active; 'I' for Inactive)
REMARK    1  A    between atoms: O_2  and  C_25
REMARK    2  A    between atoms: O_4  and  C_27
REMARK    3  A    between atoms: O_4  and  C_28
REMARK    4  A    between atoms: N_5  and  C_13
REMARK    5  A    between atoms: C_9  and  C_14
REMARK    6  A    between atoms: C_13  and  C_15
REMARK    7  A    between atoms: C_18  and  C_22
REMARK    8  A    between atoms: C_21  and  C_25
REMARK                            x       y       z     vdW  Elec       q    Type
REMARK                         _______ _______ _______ _____ _____    ______ ____
ROOT
ATOM      5  N   UNL     1      -4.311  -0.962  23.957  0.00  0.00    -0.287 NA
ATOM      9  C   UNL     1      -3.417  -1.391  25.051  0.00  0.00    +0.146 C 
ATOM     10  C   UNL     1      -3.325  -2.921  24.904  0.00  0.00    +0.030 C 
ATOM     11  C   UNL     1      -4.246  -3.265  23.742  0.00  0.00    +0.017 C 
ATOM     12  C   UNL     1      -5.202  -2.090  23.684  0.00  0.00    +0.085 C 
ENDROOT
BRANCH   9  14
ATOM      1  O   UNL     1      -1.809   0.213  25.954  0.00  0.00    -0.336 OA
ATOM      6  N   UNL     1      -1.082  -0.892  24.147  0.00  0.00    -0.190 NA
ATOM      7  N   UNL     1      -0.518   0.691  25.700  0.00  0.00    -0.056 NA
ATOM     14  C   UNL     1      -2.063  -0.716  24.995  0.00  0.00    +0.245 A 
ATOM     18  C   UNL     1      -0.156  -0.008  24.619  0.00  0.00    +0.204 A 
BRANCH  18  22
ATOM      8  N   UNL     1       3.130  -0.860  23.099  0.00  0.00    -0.221 NA
ATOM     22  C   UNL     1       1.124   0.153  23.989  0.00  0.00    +0.041 A 
ATOM     23  C   UNL     1       1.605   1.415  23.661  0.00  0.00    +0.018 A 
ATOM     24  C   UNL     1       1.917  -0.943  23.690  0.00  0.00    +0.126 A 
ATOM     26  C   UNL     1       2.849   1.541  23.052  0.00  0.00    +0.068 A 
ATOM     27  C   UNL     1       3.565   0.382  22.794  0.00  0.00    +0.214 A 
BRANCH  27   4
ATOM      4  O   UNL     1       4.794   0.481  22.196  0.00  0.00    -0.480 OA
ATOM     28  C   UNL     1       5.914   0.041  22.957  0.00  0.00    +0.279 C 
ENDBRANCH  27   4
ENDBRANCH  18  22
ENDBRANCH   9  14
BRANCH   5  13
ATOM     13  C   UNL     1      -5.047   0.258  24.261  0.00  0.00    +0.120 C 
BRANCH  13  15
ATOM     15  C   UNL     1      -4.133   1.444  24.411  0.00  0.00    -0.033 A 
ATOM     16  C   UNL     1      -4.202   2.237  25.555  0.00  0.00    +0.006 A 
ATOM     17  C   UNL     1      -3.214   1.748  23.406  0.00  0.00    +0.006 A 
ATOM     19  C   UNL     1      -3.355   3.336  25.695  0.00  0.00    +0.015 A 
ATOM     20  C   UNL     1      -2.366   2.847  23.546  0.00  0.00    +0.015 A 
ATOM     21  C   UNL     1      -2.436   3.641  24.690  0.00  0.00    +0.059 A 
BRANCH  21  25
ATOM      3  O   UNL     1      -1.891   5.909  25.221  0.00  0.00    -0.245 OA
ATOM     25  C   UNL     1      -1.551   4.786  24.835  0.00  0.00    +0.337 C 
BRANCH  25   2
ATOM      2  O   UNL     1      -0.266   4.496  24.495  0.00  0.00    -0.477 OA
ATOM     29  H   UNL     1       0.351   5.214  24.754  0.00  0.00    +0.295 HD
ENDBRANCH  25   2
ENDBRANCH  21  25
ENDBRANCH  13  15
ENDBRANCH   5  13
TORSDOF 7
ENDMDL
MODEL 3
REMARK VINA RESULT:      -0.1      1.461      1.764
REMARK  Name = 45783687
REMARK  8 active torsions:
REMARK  status: ('A' for Active; 'I' for Inactive)
REMARK    1  A    between atoms: O_2  and  C_25
REMARK    2  A    between atoms: O_4  and  C_27
REMARK    3  A    between atoms: O_4  and  C_28
REMARK    4  A    between atoms: N_5  and  C_13
REMARK    5  A    between atoms: C_9  and  C_14
REMARK    6  A    between atoms: C_13  and  C_15
REMARK    7  A    between atoms: C_18  and  C_22
REMARK    8  A    between atoms: C_21  and  C_25
REMARK                            x       y       z     vdW  Elec       q    Type
REMARK                         _______ _______ _______ _____ _____    ______ ____
ROOT
ATOM      5  N   UNL     1      -3.613   3.160  25.722  0.00  0.00    -0.287 NA
ATOM      9  C   UNL     1      -3.140   3.639  24.408  0.00  0.00    +0.146 C 
ATOM     10  C   UNL     1      -2.561   5.038  24.686  0.00  0.00    +0.030 C 
ATOM     11  C   UNL     1      -2.808   5.284  26.168  0.00  0.00    +0.017 C 
ATOM     12  C   UNL     1      -3.958   4.352  26.497  0.00  0.00    +0.085 C 
ENDROOT
BRANCH   9  14
ATOM      1  O   UNL     1      -2.579   1.928  22.755  0.00  0.00    -0.336 OA
ATOM      6  N   UNL     1      -0.868   2.523  24.071  0.00  0.00    -0.190 NA
ATOM      7  N   UNL     1      -1.484   1.160  22.340  0.00  0.00    -0.056 NA
ATOM     14  C   UNL     1      -2.130   2.704  23.777  0.00  0.00    +0.245 A 
ATOM     18  C   UNL     1      -0.513   1.568  23.163  0.00  0.00    +0.204 A 
BRANCH  18  22
ATOM      8  N   UNL     1       3.202   1.429  23.243  0.00  0.00    -0.221 NA
ATOM     22  C   UNL     1       0.820   1.042  23.105  0.00  0.00    +0.041 A 
ATOM     23  C   UNL     1       1.046  -0.309  22.862  0.00  0.00    +0.018 A 
ATOM     24  C   UNL     1       1.922   1.861  23.287  0.00  0.00    +0.126 A 
ATOM     26  C   UNL     1       2.349  -0.791  22.810  0.00  0.00    +0.068 A 
ATOM     27  C   UNL     1       3.383   0.111  23.005  0.00  0.00    +0.214 A 
BRANCH  27   4
ATOM      4  O   UNL     1       4.676  -0.340  22.958  0.00  0.00    -0.480 OA
ATOM     28  C   UNL     1       5.562   0.150  23.959  0.00  0.00    +0.279 C 
ENDBRANCH  27   4
ENDBRANCH  18  22
ENDBRANCH   9  14
BRANCH   5  13
ATOM     13  C   UNL     1      -4.727   2.226  25.626  0.00  0.00    +0.120 C 
BRANCH  13  15
ATOM     15  C   UNL     1      -4.271   0.847  25.232  0.00  0.00    -0.033 A 
ATOM     16  C   UNL     1      -5.030   0.090  24.340  0.00  0.00    +0.006 A 
ATOM     17  C   UNL     1      -3.089   0.325  25.758  0.00  0.00    +0.006 A 
ATOM     19  C   UNL     1      -4.608  -1.188  23.974  0.00  0.00    +0.015 A 
ATOM     20  C   UNL     1      -2.667  -0.953  25.392  0.00  0.00    +0.015 A 
ATOM     21  C   UNL     1      -3.426  -1.709  24.500  0.00  0.00    +0.059 A 
BRANCH  21  25
ATOM      3  O   UNL     1      -1.814  -3.373  23.899  0.00  0.00    -0.245 OA
ATOM     25  C   UNL     1      -2.984  -3.041  24.118  0.00  0.00    +0.337 C 
BRANCH  25   2
ATOM      2  O   UNL     1      -4.017  -3.923  24.020  0.00  0.00    -0.477 OA
ATOM     29  H   UNL     1      -4.811  -3.610  24.505  0.00  0.00    +0.295 HD
ENDBRANCH  25   2
ENDBRANCH  21  25
ENDBRANCH  13  15
ENDBRANCH   5  13
TORSDOF 7
ENDMDL
MODEL 4
REMARK VINA RESULT:       1.1      2.098      4.793
REMARK  Name = 45783687
REMARK  8 active torsions:
REMARK  status: ('A' for Active; 'I' for Inactive)
REMARK    1  A    between atoms: O_2  and  C_25
REMARK    2  A    between atoms: O_4  and  C_27
REMARK    3  A    between atoms: O_4  and  C_28
REMARK    4  A    between atoms: N_5  and  C_13
REMARK    5  A    between atoms: C_9  and  C_14
REMARK    6  A    between atoms: C_13  and  C_15
REMARK    7  A    between atoms: C_18  and  C_22
REMARK    8  A    between atoms: C_21  and  C_25
REMARK                            x       y       z     vdW  Elec       q    Type
REMARK                         _______ _______ _______ _____ _____    ______ ____
ROOT
ATOM      5  N   UNL     1      -3.084  -1.536  23.870  0.00  0.00    -0.287 NA
ATOM      9  C   UNL     1      -2.350  -0.799  24.919  0.00  0.00    +0.146 C 
ATOM     10  C   UNL     1      -2.091  -1.842  26.021  0.00  0.00    +0.030 C 
ATOM     11  C   UNL     1      -2.766  -3.115  25.532  0.00  0.00    +0.017 C 
ATOM     12  C   UNL     1      -3.805  -2.612  24.549  0.00  0.00    +0.085 C 
ENDROOT
BRANCH   9  14
ATOM      1  O   UNL     1      -1.158   1.137  24.021  0.00  0.00    -0.336 OA
ATOM      6  N   UNL     1       0.115  -0.690  24.262  0.00  0.00    -0.190 NA
ATOM      7  N   UNL     1       0.123   1.496  23.587  0.00  0.00    -0.056 NA
ATOM     14  C   UNL     1      -1.076  -0.165  24.402  0.00  0.00    +0.245 A 
ATOM     18  C   UNL     1       0.817   0.367  23.759  0.00  0.00    +0.204 A 
BRANCH  18  22
ATOM      8  N   UNL     1       4.215  -1.090  23.349  0.00  0.00    -0.221 NA
ATOM     22  C   UNL     1       2.212   0.261  23.440  0.00  0.00    +0.041 A 
ATOM     23  C   UNL     1       2.914   1.348  22.931  0.00  0.00    +0.018 A 
ATOM     24  C   UNL     1       2.902  -0.925  23.629  0.00  0.00    +0.126 A 
ATOM     26  C   UNL     1       4.265   1.218  22.631  0.00  0.00    +0.068 A 
ATOM     27  C   UNL     1       4.863  -0.012  22.857  0.00  0.00    +0.214 A 
BRANCH  27   4
ATOM      4  O   UNL     1       6.194  -0.166  22.570  0.00  0.00    -0.480 OA
ATOM     28  C   UNL     1       7.036  -0.576  23.641  0.00  0.00    +0.279 C 
ENDBRANCH  27   4
ENDBRANCH  18  22
ENDBRANCH   9  14
BRANCH   5  13
ATOM     13  C   UNL     1      -3.972  -0.687  23.087  0.00  0.00    +0.120 C 
BRANCH  13  15
ATOM     15  C   UNL     1      -4.269   0.612  23.785  0.00  0.00    -0.033 A 
ATOM     16  C   UNL     1      -5.059   0.622  24.934  0.00  0.00    +0.006 A 
ATOM     17  C   UNL     1      -3.752   1.808  23.284  0.00  0.00    +0.006 A 
ATOM     19  C   UNL     1      -5.334   1.826  25.582  0.00  0.00    +0.015 A 
ATOM     20  C   UNL     1      -4.027   3.012  23.932  0.00  0.00    +0.015 A 
ATOM     21  C   UNL     1      -4.817   3.022  25.081  0.00  0.00    +0.059 A 
BRANCH  21  25
ATOM      3  O   UNL     1      -6.175   4.889  25.708  0.00  0.00    -0.245 OA
ATOM     25  C   UNL     1      -5.102   4.278  25.757  0.00  0.00    +0.337 C 
BRANCH  25   2
ATOM      2  O   UNL     1      -4.040   4.735  26.474  0.00  0.00    -0.477 OA
ATOM     29  H   UNL     1      -3.210   4.715  25.950  0.00  0.00    +0.295 HD
ENDBRANCH  25   2
ENDBRANCH  21  25
ENDBRANCH  13  15
ENDBRANCH   5  13
TORSDOF 7
ENDMDL
