MODEL 1
REMARK VINA RESULT:      -3.7      0.000      0.000
REMARK  Name = 11913031
REMARK  6 active torsions:
REMARK  status: ('A' for Active; 'I' for Inactive)
REMARK    1  A    between atoms: O_4  and  C_24
REMARK    2  A    between atoms: O_4  and  C_26
REMARK    3  A    between atoms: N_5  and  C_11
REMARK    4  A    between atoms: N_6  and  C_12
REMARK    5  A    between atoms: C_15  and  C_21
REMARK    6  A    between atoms: C_22  and  C_24
REMARK                            x       y       z     vdW  Elec       q    Type
REMARK                         _______ _______ _______ _____ _____    ______ ____
ROOT
ATOM      1  O   UNL     1      -2.669  -2.250  23.911  0.00  0.00    -0.370 OA
ATOM      2  O   UNL     1      -1.442  -1.094  26.537  0.00  0.00    -0.370 OA
ATOM      9  C   UNL     1      -2.364  -0.569  25.568  0.00  0.00    +0.171 C 
ATOM     10  C   UNL     1      -1.915  -1.062  24.206  0.00  0.00    +0.171 C 
ATOM     11  C   UNL     1      -3.729  -1.189  25.753  0.00  0.00    +0.130 C 
ATOM     12  C   UNL     1      -0.454  -1.401  24.401  0.00  0.00    +0.130 C 
ATOM     13  C   UNL     1      -3.618  -2.479  24.961  0.00  0.00    +0.185 C 
ATOM     14  C   UNL     1      -0.411  -1.827  25.857  0.00  0.00    +0.185 C 
ENDROOT
BRANCH  11   5
ATOM      5  N   UNL     1      -4.744  -0.334  25.177  0.00  0.00    -0.306 N 
ATOM      7  N   UNL     1      -3.482   1.578  25.557  0.00  0.00    -0.219 NA
ATOM      8  N   UNL     1      -5.651   1.698  24.515  0.00  0.00    -0.223 NA
ATOM     20  C   UNL     1      -4.620   1.040  25.079  0.00  0.00    +0.216 A 
ATOM     21  C   UNL     1      -3.395   2.920  25.445  0.00  0.00    +0.049 A 
ATOM     23  C   UNL     1      -4.380   3.708  24.888  0.00  0.00    +0.043 A 
ATOM     25  C   UNL     1      -5.497   3.036  24.435  0.00  0.00    +0.116 A 
ATOM     32  H   UNL     1      -5.574  -0.750  24.771  0.00  0.00    +0.149 HD
BRANCH  21  15
ATOM     15  C   UNL     1      -2.132   3.566  25.970  0.00  0.00    +0.038 C 
ATOM     16  C   UNL     1      -0.883   2.698  25.736  0.00  0.00    +0.010 C 
ATOM     17  C   UNL     1      -1.808   4.940  25.346  0.00  0.00    +0.010 C 
ATOM     18  C   UNL     1       0.232   3.693  25.454  0.00  0.00    +0.001 C 
ATOM     19  C   UNL     1      -0.467   4.769  24.642  0.00  0.00    +0.001 C 
ENDBRANCH  21  15
ENDBRANCH  11   5
BRANCH  12   6
ATOM      3  O   UNL     1       0.779  -0.605  21.903  0.00  0.00    -0.272 OA
ATOM      6  N   UNL     1       0.385  -0.250  24.167  0.00  0.00    -0.305 N 
ATOM     22  C   UNL     1       0.934   0.051  22.929  0.00  0.00    +0.251 C 
ATOM     33  H   UNL     1       0.535   0.394  24.939  0.00  0.00    +0.149 HD
BRANCH  22  24
ATOM     24  C   UNL     1       1.768   1.312  22.977  0.00  0.00    +0.324 C 
BRANCH  24   4
ATOM      4  O   UNL     1       3.009   1.114  22.333  0.00  0.00    -0.483 OA
BRANCH   4  26
ATOM     26  C   UNL     1       3.961   0.391  23.012  0.00  0.00    +0.121 A 
ATOM     27  C   UNL     1       3.766  -0.969  23.249  0.00  0.00    +0.045 A 
ATOM     28  C   UNL     1       5.121   1.019  23.465  0.00  0.00    +0.045 A 
ATOM     29  C   UNL     1       4.732  -1.704  23.937  0.00  0.00    +0.004 A 
ATOM     30  C   UNL     1       6.088   0.285  24.153  0.00  0.00    +0.004 A 
ATOM     31  C   UNL     1       5.893  -1.076  24.390  0.00  0.00    +0.000 A 
ENDBRANCH   4  26
ENDBRANCH  24   4
ENDBRANCH  22  24
ENDBRANCH  12   6
TORSDOF 6
ENDMDL
MODEL 2
REMARK VINA RESULT:      -1.6      1.821      4.214
REMARK  Name = 11913031
REMARK  6 active torsions:
REMARK  status: ('A' for Active; 'I' for Inactive)
REMARK    1  A    between atoms: O_4  and  C_24
REMARK    2  A    between atoms: O_4  and  C_26
REMARK    3  A    between atoms: N_5  and  C_11
REMARK    4  A    between atoms: N_6  and  C_12
REMARK    5  A    between atoms: C_15  and  C_21
REMARK    6  A    between atoms: C_22  and  C_24
REMARK                            x       y       z     vdW  Elec       q    Type
REMARK                         _______ _______ _______ _____ _____    ______ ____
ROOT
ATOM      1  O   UNL     1      -2.240   3.742  27.089  0.00  0.00    -0.370 OA
ATOM      2  O   UNL     1      -1.142   4.056  24.184  0.00  0.00    -0.370 OA
ATOM      9  C   UNL     1      -2.353   3.502  24.724  0.00  0.00    +0.171 C 
ATOM     10  C   UNL     1      -1.991   2.809  26.024  0.00  0.00    +0.171 C 
ATOM     11  C   UNL     1      -3.294   4.605  25.143  0.00  0.00    +0.130 C 
ATOM     12  C   UNL     1      -0.508   2.539  25.897  0.00  0.00    +0.130 C 
ATOM     13  C   UNL     1      -2.813   4.939  26.544  0.00  0.00    +0.185 C 
ATOM     14  C   UNL     1      -0.041   3.696  25.033  0.00  0.00    +0.185 C 
ENDROOT
BRANCH  11   5
ATOM      5  N   UNL     1      -4.653   4.109  25.186  0.00  0.00    -0.306 N 
ATOM      7  N   UNL     1      -3.969   1.932  24.756  0.00  0.00    -0.219 NA
ATOM      8  N   UNL     1      -6.297   2.474  25.066  0.00  0.00    -0.223 NA
ATOM     20  C   UNL     1      -4.987   2.781  24.994  0.00  0.00    +0.216 A 
ATOM     21  C   UNL     1      -4.332   0.644  24.575  0.00  0.00    +0.049 A 
ATOM     23  C   UNL     1      -5.638   0.202  24.623  0.00  0.00    +0.043 A 
ATOM     25  C   UNL     1      -6.587   1.171  24.875  0.00  0.00    +0.116 A 
ATOM     32  H   UNL     1      -5.408   4.744  25.418  0.00  0.00    +0.149 HD
BRANCH  21  15
ATOM     15  C   UNL     1      -3.220  -0.343  24.304  0.00  0.00    +0.038 C 
ATOM     16  C   UNL     1      -2.568  -0.869  25.595  0.00  0.00    +0.010 C 
ATOM     17  C   UNL     1      -3.655  -1.598  23.516  0.00  0.00    +0.010 C 
ATOM     18  C   UNL     1      -2.219  -2.317  25.291  0.00  0.00    +0.001 C 
ATOM     19  C   UNL     1      -3.389  -2.780  24.441  0.00  0.00    +0.001 C 
ENDBRANCH  21  15
ENDBRANCH  11   5
BRANCH  12   6
ATOM      3  O   UNL     1       1.102   2.053  23.537  0.00  0.00    -0.272 OA
ATOM      6  N   UNL     1      -0.262   1.272  25.252  0.00  0.00    -0.305 N 
ATOM     22  C   UNL     1       0.527   1.137  24.118  0.00  0.00    +0.251 C 
ATOM     33  H   UNL     1      -0.647   0.436  25.682  0.00  0.00    +0.149 HD
BRANCH  22  24
ATOM     24  C   UNL     1       0.610  -0.302  23.660  0.00  0.00    +0.324 C 
BRANCH  24   4
ATOM      4  O   UNL     1       1.563  -0.444  22.629  0.00  0.00    -0.483 OA
BRANCH   4  26
ATOM     26  C   UNL     1       2.889  -0.363  22.983  0.00  0.00    +0.121 A 
ATOM     27  C   UNL     1       3.626   0.778  22.670  0.00  0.00    +0.045 A 
ATOM     28  C   UNL     1       3.497  -1.422  23.657  0.00  0.00    +0.045 A 
ATOM     29  C   UNL     1       4.971   0.862  23.030  0.00  0.00    +0.004 A 
ATOM     30  C   UNL     1       4.842  -1.340  24.017  0.00  0.00    +0.004 A 
ATOM     31  C   UNL     1       5.579  -0.198  23.703  0.00  0.00    +0.000 A 
ENDBRANCH   4  26
ENDBRANCH  24   4
ENDBRANCH  22  24
ENDBRANCH  12   6
TORSDOF 6
ENDMDL
