MODEL 1
REMARK VINA RESULT:       2.8      0.000      0.000
REMARK  Name = 45784311
REMARK  7 active torsions:
REMARK  status: ('A' for Active; 'I' for Inactive)
REMARK    1  A    between atoms: S_1  and  C_23
REMARK    2  A    between atoms: S_1  and  C_26
REMARK    3  A    between atoms: O_2  and  C_24
REMARK    4  A    between atoms: O_2  and  C_27
REMARK    5  A    between atoms: N_5  and  C_13
REMARK    6  A    between atoms: C_8  and  C_12
REMARK    7  A    between atoms: C_13  and  C_14
REMARK                            x       y       z     vdW  Elec       q    Type
REMARK                         _______ _______ _______ _____ _____    ______ ____
ROOT
ATOM      5  N   UNL     1      -3.112  -2.006  24.681  0.00  0.00    -0.297 NA
ATOM      8  C   UNL     1      -0.773  -2.127  24.576  0.00  0.00    +0.070 C 
ATOM      9  C   UNL     1      -1.208  -1.823  26.020  0.00  0.00    +0.028 C 
ATOM     10  C   UNL     1      -2.016  -1.834  23.726  0.00  0.00    +0.096 C 
ATOM     11  C   UNL     1      -2.652  -1.351  25.906  0.00  0.00    +0.085 C 
ENDROOT
BRANCH   8  12
ATOM      6  N   UNL     1       1.708  -1.889  24.271  0.00  0.00    -0.341 N 
ATOM      7  N   UNL     1       0.474  -0.197  23.524  0.00  0.00    -0.232 NA
ATOM     12  C   UNL     1       0.451  -1.374  24.109  0.00  0.00    +0.113 A 
ATOM     15  C   UNL     1       2.599  -0.985  23.754  0.00  0.00    +0.070 A 
ATOM     16  C   UNL     1       1.805   0.062  23.295  0.00  0.00    +0.089 A 
ATOM     19  C   UNL     1       3.991  -0.992  23.654  0.00  0.00    +0.073 A 
ATOM     20  C   UNL     1       2.419   1.176  22.697  0.00  0.00    +0.033 A 
ATOM     24  C   UNL     1       4.585   0.125  23.055  0.00  0.00    +0.122 A 
ATOM     25  C   UNL     1       3.814   1.190  22.584  0.00  0.00    +0.048 A 
ATOM     28  H   UNL     1       1.940  -2.777  24.693  0.00  0.00    +0.167 HD
BRANCH  24   2
ATOM      2  O   UNL     1       5.942   0.171  22.930  0.00  0.00    -0.495 OA
ATOM     27  C   UNL     1       6.705  -0.574  23.877  0.00  0.00    +0.277 C 
ENDBRANCH  24   2
ENDBRANCH   8  12
BRANCH   5  13
ATOM     13  C   UNL     1      -4.367  -1.451  24.194  0.00  0.00    +0.119 C 
BRANCH  13  14
ATOM     14  C   UNL     1      -4.443   0.037  24.410  0.00  0.00    -0.033 A 
ATOM     17  C   UNL     1      -5.383   0.566  25.294  0.00  0.00    +0.007 A 
ATOM     18  C   UNL     1      -3.573   0.887  23.727  0.00  0.00    +0.007 A 
ATOM     21  C   UNL     1      -5.453   1.945  25.494  0.00  0.00    +0.027 A 
ATOM     22  C   UNL     1      -3.642   2.265  23.927  0.00  0.00    +0.027 A 
ATOM     23  C   UNL     1      -4.583   2.794  24.811  0.00  0.00    +0.088 A 
BRANCH  23   1
ATOM      1  S   UNL     1      -4.669   4.519  25.065  0.00  0.00    -0.006 S 
ATOM      3  O   UNL     1      -4.289   5.198  23.833  0.00  0.00    -0.170 OA
ATOM      4  O   UNL     1      -5.950   4.817  25.688  0.00  0.00    -0.170 OA
ATOM     26  C   UNL     1      -3.391   4.856  26.255  0.00  0.00    +0.200 C 
ENDBRANCH  23   1
ENDBRANCH  13  14
ENDBRANCH   5  13
TORSDOF 5
ENDMDL
MODEL 2
REMARK VINA RESULT:       5.4      1.685      2.052
REMARK  Name = 45784311
REMARK  7 active torsions:
REMARK  status: ('A' for Active; 'I' for Inactive)
REMARK    1  A    between atoms: S_1  and  C_23
REMARK    2  A    between atoms: S_1  and  C_26
REMARK    3  A    between atoms: O_2  and  C_24
REMARK    4  A    between atoms: O_2  and  C_27
REMARK    5  A    between atoms: N_5  and  C_13
REMARK    6  A    between atoms: C_8  and  C_12
REMARK    7  A    between atoms: C_13  and  C_14
REMARK                            x       y       z     vdW  Elec       q    Type
REMARK                         _______ _______ _______ _____ _____    ______ ____
ROOT
ATOM      5  N   UNL     1      -3.993  -1.017  24.866  0.00  0.00    -0.297 NA
ATOM      8  C   UNL     1      -1.987  -1.691  23.856  0.00  0.00    +0.070 C 
ATOM      9  C   UNL     1      -2.026  -2.195  25.309  0.00  0.00    +0.028 C 
ATOM     10  C   UNL     1      -3.087  -0.623  23.786  0.00  0.00    +0.096 C 
ATOM     11  C   UNL     1      -3.116  -1.371  25.983  0.00  0.00    +0.085 C 
ENDROOT
BRANCH   8  12
ATOM      6  N   UNL     1       0.237  -0.604  24.269  0.00  0.00    -0.341 N 
ATOM      7  N   UNL     1      -0.164  -1.219  22.171  0.00  0.00    -0.232 NA
ATOM     12  C   UNL     1      -0.642  -1.182  23.395  0.00  0.00    +0.113 A 
ATOM     15  C   UNL     1       1.356  -0.247  23.562  0.00  0.00    +0.070 A 
ATOM     16  C   UNL     1       1.081  -0.641  22.255  0.00  0.00    +0.089 A 
ATOM     19  C   UNL     1       2.549   0.369  23.942  0.00  0.00    +0.073 A 
ATOM     20  C   UNL     1       2.042  -0.414  21.255  0.00  0.00    +0.033 A 
ATOM     24  C   UNL     1       3.495   0.587  22.933  0.00  0.00    +0.122 A 
ATOM     25  C   UNL     1       3.247   0.202  21.613  0.00  0.00    +0.048 A 
ATOM     28  H   UNL     1       0.092  -0.466  25.260  0.00  0.00    +0.167 HD
BRANCH  24   2
ATOM      2  O   UNL     1       4.679   1.185  23.247  0.00  0.00    -0.495 OA
ATOM     27  C   UNL     1       5.669   0.372  23.873  0.00  0.00    +0.277 C 
ENDBRANCH  24   2
ENDBRANCH   8  12
BRANCH   5  13
ATOM     13  C   UNL     1      -4.934   0.038  25.215  0.00  0.00    +0.119 C 
BRANCH  13  14
ATOM     14  C   UNL     1      -4.285   1.397  25.198  0.00  0.00    -0.033 A 
ATOM     17  C   UNL     1      -5.073   2.546  25.237  0.00  0.00    +0.007 A 
ATOM     18  C   UNL     1      -2.895   1.505  25.146  0.00  0.00    +0.007 A 
ATOM     21  C   UNL     1      -4.471   3.805  25.222  0.00  0.00    +0.027 A 
ATOM     22  C   UNL     1      -2.293   2.762  25.130  0.00  0.00    +0.027 A 
ATOM     23  C   UNL     1      -3.081   3.913  25.169  0.00  0.00    +0.088 A 
BRANCH  23   1
ATOM      1  S   UNL     1      -2.329   5.489  25.153  0.00  0.00    -0.006 S 
ATOM      3  O   UNL     1      -2.829   6.261  26.283  0.00  0.00    -0.170 OA
ATOM      4  O   UNL     1      -0.896   5.300  24.985  0.00  0.00    -0.170 OA
ATOM     26  C   UNL     1      -2.956   6.264  23.680  0.00  0.00    +0.200 C 
ENDBRANCH  23   1
ENDBRANCH  13  14
ENDBRANCH   5  13
TORSDOF 5
ENDMDL
MODEL 3
REMARK VINA RESULT:       5.5      2.709      6.995
REMARK  Name = 45784311
REMARK  7 active torsions:
REMARK  status: ('A' for Active; 'I' for Inactive)
REMARK    1  A    between atoms: S_1  and  C_23
REMARK    2  A    between atoms: S_1  and  C_26
REMARK    3  A    between atoms: O_2  and  C_24
REMARK    4  A    between atoms: O_2  and  C_27
REMARK    5  A    between atoms: N_5  and  C_13
REMARK    6  A    between atoms: C_8  and  C_12
REMARK    7  A    between atoms: C_13  and  C_14
REMARK                            x       y       z     vdW  Elec       q    Type
REMARK                         _______ _______ _______ _____ _____    ______ ____
ROOT
ATOM      5  N   UNL     1      -3.266  -2.677  25.111  0.00  0.00    -0.297 NA
ATOM      8  C   UNL     1      -4.441  -0.672  25.422  0.00  0.00    +0.070 C 
ATOM      9  C   UNL     1      -4.895  -1.336  24.111  0.00  0.00    +0.028 C 
ATOM     10  C   UNL     1      -3.131  -1.384  25.785  0.00  0.00    +0.096 C 
ATOM     11  C   UNL     1      -3.812  -2.359  23.791  0.00  0.00    +0.085 C 
ENDROOT
BRANCH   8  12
ATOM      6  N   UNL     1      -3.066   1.422  25.251  0.00  0.00    -0.341 N 
ATOM      7  N   UNL     1      -5.265   1.717  25.391  0.00  0.00    -0.232 NA
ATOM     12  C   UNL     1      -4.295   0.831  25.356  0.00  0.00    +0.113 A 
ATOM     15  C   UNL     1      -3.257   2.779  25.214  0.00  0.00    +0.070 A 
ATOM     16  C   UNL     1      -4.637   2.938  25.303  0.00  0.00    +0.089 A 
ATOM     19  C   UNL     1      -2.368   3.849  25.115  0.00  0.00    +0.073 A 
ATOM     20  C   UNL     1      -5.180   4.234  25.294  0.00  0.00    +0.033 A 
ATOM     24  C   UNL     1      -2.925   5.133  25.106  0.00  0.00    +0.122 A 
ATOM     25  C   UNL     1      -4.306   5.324  25.193  0.00  0.00    +0.048 A 
ATOM     28  H   UNL     1      -2.175   0.947  25.207  0.00  0.00    +0.167 HD
BRANCH  24   2
ATOM      2  O   UNL     1      -2.102   6.216  25.011  0.00  0.00    -0.495 OA
ATOM     27  C   UNL     1      -0.729   5.962  24.726  0.00  0.00    +0.277 C 
ENDBRANCH  24   2
ENDBRANCH   8  12
BRANCH   5  13
ATOM     13  C   UNL     1      -2.002  -3.395  25.029  0.00  0.00    +0.119 C 
BRANCH  13  14
ATOM     14  C   UNL     1      -0.891  -2.519  24.515  0.00  0.00    -0.033 A 
ATOM     17  C   UNL     1       0.379  -2.596  25.085  0.00  0.00    +0.007 A 
ATOM     18  C   UNL     1      -1.132  -1.630  23.467  0.00  0.00    +0.007 A 
ATOM     21  C   UNL     1       1.408  -1.783  24.608  0.00  0.00    +0.027 A 
ATOM     22  C   UNL     1      -0.104  -0.818  22.990  0.00  0.00    +0.027 A 
ATOM     23  C   UNL     1       1.167  -0.894  23.560  0.00  0.00    +0.088 A 
BRANCH  23   1
ATOM      1  S   UNL     1       2.456   0.119  22.962  0.00  0.00    -0.006 S 
ATOM      3  O   UNL     1       2.497   0.023  21.509  0.00  0.00    -0.170 OA
ATOM      4  O   UNL     1       2.333   1.423  23.597  0.00  0.00    -0.170 OA
ATOM     26  C   UNL     1       3.941  -0.648  23.572  0.00  0.00    +0.200 C 
ENDBRANCH  23   1
ENDBRANCH  13  14
ENDBRANCH   5  13
TORSDOF 5
ENDMDL
MODEL 4
REMARK VINA RESULT:       6.3      3.450      4.693
REMARK  Name = 45784311
REMARK  7 active torsions:
REMARK  status: ('A' for Active; 'I' for Inactive)
REMARK    1  A    between atoms: S_1  and  C_23
REMARK    2  A    between atoms: S_1  and  C_26
REMARK    3  A    between atoms: O_2  and  C_24
REMARK    4  A    between atoms: O_2  and  C_27
REMARK    5  A    between atoms: N_5  and  C_13
REMARK    6  A    between atoms: C_8  and  C_12
REMARK    7  A    between atoms: C_13  and  C_14
REMARK                            x       y       z     vdW  Elec       q    Type
REMARK                         _______ _______ _______ _____ _____    ______ ____
ROOT
ATOM      5  N   UNL     1      -3.132   3.176  25.354  0.00  0.00    -0.297 NA
ATOM      8  C   UNL     1      -0.849   3.119  24.824  0.00  0.00    +0.070 C 
ATOM      9  C   UNL     1      -1.566   4.118  23.899  0.00  0.00    +0.028 C 
ATOM     10  C   UNL     1      -1.976   2.281  25.441  0.00  0.00    +0.096 C 
ATOM     11  C   UNL     1      -3.046   3.774  24.021  0.00  0.00    +0.085 C 
ENDROOT
BRANCH   8  12
ATOM      6  N   UNL     1       1.539   2.576  24.267  0.00  0.00    -0.341 N 
ATOM      7  N   UNL     1       0.010   1.212  23.405  0.00  0.00    -0.232 NA
ATOM     12  C   UNL     1       0.209   2.277  24.150  0.00  0.00    +0.113 A 
ATOM     15  C   UNL     1       2.243   1.642  23.552  0.00  0.00    +0.070 A 
ATOM     16  C   UNL     1       1.266   0.802  23.023  0.00  0.00    +0.089 A 
ATOM     19  C   UNL     1       3.608   1.465  23.329  0.00  0.00    +0.073 A 
ATOM     20  C   UNL     1       1.658  -0.284  22.222  0.00  0.00    +0.033 A 
ATOM     24  C   UNL     1       3.980   0.379  22.528  0.00  0.00    +0.122 A 
ATOM     25  C   UNL     1       3.024  -0.481  21.984  0.00  0.00    +0.048 A 
ATOM     28  H   UNL     1       1.934   3.346  24.788  0.00  0.00    +0.167 HD
BRANCH  24   2
ATOM      2  O   UNL     1       5.302   0.158  22.277  0.00  0.00    -0.495 OA
ATOM     27  C   UNL     1       6.120  -0.205  23.386  0.00  0.00    +0.277 C 
ENDBRANCH  24   2
ENDBRANCH   8  12
BRANCH   5  13
ATOM     13  C   UNL     1      -4.392   2.478  25.567  0.00  0.00    +0.119 C 
BRANCH  13  14
ATOM     14  C   UNL     1      -4.286   1.013  25.236  0.00  0.00    -0.033 A 
ATOM     17  C   UNL     1      -4.516   0.574  23.933  0.00  0.00    +0.007 A 
ATOM     18  C   UNL     1      -3.956   0.096  26.234  0.00  0.00    +0.007 A 
ATOM     21  C   UNL     1      -4.418  -0.784  23.627  0.00  0.00    +0.027 A 
ATOM     22  C   UNL     1      -3.857  -1.261  25.929  0.00  0.00    +0.027 A 
ATOM     23  C   UNL     1      -4.088  -1.701  24.625  0.00  0.00    +0.088 A 
BRANCH  23   1
ATOM      1  S   UNL     1      -3.961  -3.399  24.240  0.00  0.00    -0.006 S 
ATOM      3  O   UNL     1      -3.888  -4.160  25.480  0.00  0.00    -0.170 OA
ATOM      4  O   UNL     1      -4.988  -3.714  23.258  0.00  0.00    -0.170 OA
ATOM     26  C   UNL     1      -2.378  -3.556  23.445  0.00  0.00    +0.200 C 
ENDBRANCH  23   1
ENDBRANCH  13  14
ENDBRANCH   5  13
TORSDOF 5
ENDMDL
