MODEL 1
REMARK VINA RESULT:      -1.8      0.000      0.000
REMARK  Name = 38027716
REMARK  14 active torsions:
REMARK  status: ('A' for Active; 'I' for Inactive)
REMARK    1  A    between atoms: O_3  and  C_22
REMARK    2  A    between atoms: O_3  and  C_29
REMARK    3  A    between atoms: N_4  and  C_13
REMARK    4  A    between atoms: N_5  and  C_20
REMARK    5  A    between atoms: C_6  and  C_10
REMARK    6  A    between atoms: C_7  and  C_13
REMARK    7  A    between atoms: C_9  and  C_14
REMARK    8  A    between atoms: C_10  and  C_15
REMARK    9  A    between atoms: C_10  and  C_16
REMARK   10  A    between atoms: C_11  and  C_17
REMARK   11  A    between atoms: C_14  and  C_18
REMARK   12  A    between atoms: C_19  and  C_21
REMARK   13  A    between atoms: C_20  and  C_22
REMARK   14  A    between atoms: C_27  and  C_28
REMARK                            x       y       z     vdW  Elec       q    Type
REMARK                         _______ _______ _______ _____ _____    ______ ____
ROOT
ATOM      6  C   UNL     1      -1.644   0.450  24.983  0.00  0.00    +0.000 C 
ATOM      7  C   UNL     1      -1.076  -0.876  24.419  0.00  0.00    +0.032 C 
ATOM      8  C   UNL     1      -2.771   0.166  25.988  0.00  0.00    +0.012 C 
ATOM      9  C   UNL     1      -3.927  -0.631  25.358  0.00  0.00    +0.023 C 
ATOM     11  C   UNL     1      -3.424  -1.813  24.554  0.00  0.00    -0.073 C 
ATOM     12  C   UNL     1      -2.143  -1.911  24.154  0.00  0.00    -0.022 C 
ATOM     17  C   UNL     1      -4.417  -2.903  24.258  0.00  0.00    +0.039 C 
ENDROOT
BRANCH   6  10
ATOM     10  C   UNL     1      -0.556   1.298  25.648  0.00  0.00    -0.013 C 
ATOM     15  C   UNL     1       0.128   2.190  24.616  0.00  0.00    +0.007 C 
ATOM     16  C   UNL     1      -1.150   2.134  26.777  0.00  0.00    +0.007 C 
ENDBRANCH   6  10
BRANCH   7  13
ATOM     13  C   UNL     1      -0.273  -0.632  23.135  0.00  0.00    +0.112 C 
BRANCH  13   4
ATOM      2  O   UNL     1       1.843  -0.246  21.234  0.00  0.00    -0.270 OA
ATOM      4  N   UNL     1       1.123  -0.525  23.422  0.00  0.00    -0.311 N 
ATOM     19  C   UNL     1       2.089  -0.337  22.434  0.00  0.00    +0.244 C 
ATOM     30  H   UNL     1       1.394  -0.500  24.400  0.00  0.00    +0.149 HD
BRANCH  19  21
ATOM     21  C   UNL     1       3.500  -0.274  22.893  0.00  0.00    +0.037 A 
ATOM     23  C   UNL     1       4.240   0.895  22.713  0.00  0.00    +0.013 A 
ATOM     24  C   UNL     1       4.085  -1.382  23.505  0.00  0.00    +0.013 A 
ATOM     25  C   UNL     1       5.565   0.954  23.144  0.00  0.00    +0.004 A 
ATOM     26  C   UNL     1       5.410  -1.324  23.936  0.00  0.00    +0.004 A 
ATOM     27  C   UNL     1       6.150  -0.155  23.755  0.00  0.00    -0.050 A 
ATOM     28  C   UNL     1       7.568  -0.091  24.215  0.00  0.00    +0.044 C 
ENDBRANCH  19  21
ENDBRANCH  13   4
ENDBRANCH   7  13
BRANCH   9  14
ATOM     14  C   UNL     1      -4.821   0.275  24.502  0.00  0.00    +0.103 C 
BRANCH  14  18
ATOM      1  O   UNL     1      -6.118   1.544  26.102  0.00  0.00    -0.276 OA
ATOM      5  N   UNL     1      -4.507   2.622  24.821  0.00  0.00    -0.313 N 
ATOM     18  C   UNL     1      -5.240   1.524  25.242  0.00  0.00    +0.214 C 
ATOM     31  H   UNL     1      -3.799   2.507  24.101  0.00  0.00    +0.149 HD
BRANCH   5  20
ATOM     20  C   UNL     1      -4.697   3.951  25.357  0.00  0.00    +0.132 C 
BRANCH  20  22
ATOM     22  C   UNL     1      -3.386   4.554  25.827  0.00  0.00    +0.178 C 
BRANCH  22   3
ATOM      3  O   UNL     1      -2.433   4.495  24.775  0.00  0.00    -0.381 OA
ATOM     29  C   UNL     1      -1.302   5.310  25.048  0.00  0.00    +0.194 C 
ENDBRANCH  22   3
ENDBRANCH  20  22
ENDBRANCH   5  20
ENDBRANCH  14  18
ENDBRANCH   9  14
TORSDOF 9
ENDMDL
MODEL 2
REMARK VINA RESULT:      -1.3      2.134      6.899
REMARK  Name = 38027716
REMARK  14 active torsions:
REMARK  status: ('A' for Active; 'I' for Inactive)
REMARK    1  A    between atoms: O_3  and  C_22
REMARK    2  A    between atoms: O_3  and  C_29
REMARK    3  A    between atoms: N_4  and  C_13
REMARK    4  A    between atoms: N_5  and  C_20
REMARK    5  A    between atoms: C_6  and  C_10
REMARK    6  A    between atoms: C_7  and  C_13
REMARK    7  A    between atoms: C_9  and  C_14
REMARK    8  A    between atoms: C_10  and  C_15
REMARK    9  A    between atoms: C_10  and  C_16
REMARK   10  A    between atoms: C_11  and  C_17
REMARK   11  A    between atoms: C_14  and  C_18
REMARK   12  A    between atoms: C_19  and  C_21
REMARK   13  A    between atoms: C_20  and  C_22
REMARK   14  A    between atoms: C_27  and  C_28
REMARK                            x       y       z     vdW  Elec       q    Type
REMARK                         _______ _______ _______ _____ _____    ______ ____
ROOT
ATOM      6  C   UNL     1      -4.107   3.489  25.674  0.00  0.00    +0.000 C 
ATOM      7  C   UNL     1      -3.887   4.174  24.302  0.00  0.00    +0.032 C 
ATOM      8  C   UNL     1      -3.223   4.143  26.748  0.00  0.00    +0.012 C 
ATOM      9  C   UNL     1      -1.726   4.063  26.397  0.00  0.00    +0.023 C 
ATOM     11  C   UNL     1      -1.461   4.471  24.962  0.00  0.00    -0.073 C 
ATOM     12  C   UNL     1      -2.441   4.528  24.043  0.00  0.00    -0.022 C 
ATOM     17  C   UNL     1      -0.049   4.857  24.618  0.00  0.00    +0.039 C 
ENDROOT
BRANCH   6  10
ATOM     10  C   UNL     1      -5.575   3.542  26.107  0.00  0.00    -0.013 C 
ATOM     15  C   UNL     1      -6.293   4.697  25.414  0.00  0.00    +0.007 C 
ATOM     16  C   UNL     1      -6.266   2.216  25.805  0.00  0.00    +0.007 C 
ENDBRANCH   6  10
BRANCH   7  13
ATOM     13  C   UNL     1      -4.411   3.300  23.157  0.00  0.00    +0.112 C 
BRANCH  13   4
ATOM      2  O   UNL     1      -2.067   1.644  23.076  0.00  0.00    -0.270 OA
ATOM      4  N   UNL     1      -4.333   1.914  23.499  0.00  0.00    -0.311 N 
ATOM     19  C   UNL     1      -3.149   1.182  23.431  0.00  0.00    +0.244 C 
ATOM     30  H   UNL     1      -5.167   1.486  23.888  0.00  0.00    +0.149 HD
BRANCH  19  21
ATOM     21  C   UNL     1      -3.239  -0.256  23.795  0.00  0.00    +0.037 A 
ATOM     23  C   UNL     1      -4.391  -0.981  23.491  0.00  0.00    +0.013 A 
ATOM     24  C   UNL     1      -2.172  -0.880  24.440  0.00  0.00    +0.013 A 
ATOM     25  C   UNL     1      -4.475  -2.331  23.832  0.00  0.00    +0.004 A 
ATOM     26  C   UNL     1      -2.256  -2.230  24.782  0.00  0.00    +0.004 A 
ATOM     27  C   UNL     1      -3.407  -2.955  24.478  0.00  0.00    -0.050 A 
ATOM     28  C   UNL     1      -3.499  -4.398  24.843  0.00  0.00    +0.044 C 
ENDBRANCH  19  21
ENDBRANCH  13   4
ENDBRANCH   7  13
BRANCH   9  14
ATOM     14  C   UNL     1      -1.166   2.665  26.683  0.00  0.00    +0.103 C 
BRANCH  14  18
ATOM      1  O   UNL     1       1.244   2.853  26.562  0.00  0.00    -0.276 OA
ATOM      5  N   UNL     1       0.092   1.772  24.857  0.00  0.00    -0.313 N 
ATOM     18  C   UNL     1       0.195   2.457  26.057  0.00  0.00    +0.214 C 
ATOM     31  H   UNL     1      -0.823   1.485  24.520  0.00  0.00    +0.149 HD
BRANCH   5  20
ATOM     20  C   UNL     1       1.235   1.436  24.039  0.00  0.00    +0.132 C 
BRANCH  20  22
ATOM     22  C   UNL     1       1.022   0.130  23.295  0.00  0.00    +0.178 C 
BRANCH  22   3
ATOM      3  O   UNL     1       2.025  -0.014  22.298  0.00  0.00    -0.381 OA
ATOM     29  C   UNL     1       3.242   0.608  22.688  0.00  0.00    +0.194 C 
ENDBRANCH  22   3
ENDBRANCH  20  22
ENDBRANCH   5  20
ENDBRANCH  14  18
ENDBRANCH   9  14
TORSDOF 9
ENDMDL
MODEL 3
REMARK VINA RESULT:      -1.3      1.506      2.898
REMARK  Name = 38027716
REMARK  14 active torsions:
REMARK  status: ('A' for Active; 'I' for Inactive)
REMARK    1  A    between atoms: O_3  and  C_22
REMARK    2  A    between atoms: O_3  and  C_29
REMARK    3  A    between atoms: N_4  and  C_13
REMARK    4  A    between atoms: N_5  and  C_20
REMARK    5  A    between atoms: C_6  and  C_10
REMARK    6  A    between atoms: C_7  and  C_13
REMARK    7  A    between atoms: C_9  and  C_14
REMARK    8  A    between atoms: C_10  and  C_15
REMARK    9  A    between atoms: C_10  and  C_16
REMARK   10  A    between atoms: C_11  and  C_17
REMARK   11  A    between atoms: C_14  and  C_18
REMARK   12  A    between atoms: C_19  and  C_21
REMARK   13  A    between atoms: C_20  and  C_22
REMARK   14  A    between atoms: C_27  and  C_28
REMARK                            x       y       z     vdW  Elec       q    Type
REMARK                         _______ _______ _______ _____ _____    ______ ____
ROOT
ATOM      6  C   UNL     1      -2.762  -0.019  25.083  0.00  0.00    +0.000 C 
ATOM      7  C   UNL     1      -1.704   0.896  24.417  0.00  0.00    +0.032 C 
ATOM      8  C   UNL     1      -3.986  -0.176  24.169  0.00  0.00    +0.012 C 
ATOM      9  C   UNL     1      -4.647   1.177  23.843  0.00  0.00    +0.023 C 
ATOM     11  C   UNL     1      -3.625   2.218  23.432  0.00  0.00    -0.073 C 
ATOM     12  C   UNL     1      -2.312   2.069  23.686  0.00  0.00    -0.022 C 
ATOM     17  C   UNL     1      -4.141   3.414  22.682  0.00  0.00    +0.039 C 
ENDROOT
BRANCH   6  10
ATOM     10  C   UNL     1      -2.188  -1.398  25.424  0.00  0.00    -0.013 C 
ATOM     15  C   UNL     1      -3.309  -2.365  25.790  0.00  0.00    +0.007 C 
ATOM     16  C   UNL     1      -1.369  -1.936  24.254  0.00  0.00    +0.007 C 
ENDBRANCH   6  10
BRANCH   7  13
ATOM     13  C   UNL     1      -0.688   1.408  25.447  0.00  0.00    +0.112 C 
BRANCH  13   4
ATOM      2  O   UNL     1       0.149   0.523  22.847  0.00  0.00    -0.270 OA
ATOM      4  N   UNL     1       0.647   1.102  25.038  0.00  0.00    -0.311 N 
ATOM     19  C   UNL     1       0.968   0.677  23.750  0.00  0.00    +0.244 C 
ATOM     30  H   UNL     1       1.389   1.294  25.703  0.00  0.00    +0.149 HD
BRANCH  19  21
ATOM     21  C   UNL     1       2.399   0.374  23.491  0.00  0.00    +0.037 A 
ATOM     23  C   UNL     1       2.909  -0.890  23.788  0.00  0.00    +0.013 A 
ATOM     24  C   UNL     1       3.233   1.354  22.952  0.00  0.00    +0.013 A 
ATOM     25  C   UNL     1       4.253  -1.174  23.544  0.00  0.00    +0.004 A 
ATOM     26  C   UNL     1       4.576   1.070  22.709  0.00  0.00    +0.004 A 
ATOM     27  C   UNL     1       5.086  -0.194  23.006  0.00  0.00    -0.050 A 
ATOM     28  C   UNL     1       6.523  -0.498  22.747  0.00  0.00    +0.044 C 
ENDBRANCH  19  21
ENDBRANCH  13   4
ENDBRANCH   7  13
BRANCH   9  14
ATOM     14  C   UNL     1      -5.496   1.674  25.018  0.00  0.00    +0.103 C 
BRANCH  14  18
ATOM      1  O   UNL     1      -5.799   4.059  25.293  0.00  0.00    -0.276 OA
ATOM      5  N   UNL     1      -3.853   3.054  26.070  0.00  0.00    -0.313 N 
ATOM     18  C   UNL     1      -5.098   3.063  25.461  0.00  0.00    +0.214 C 
ATOM     31  H   UNL     1      -3.346   2.178  26.163  0.00  0.00    +0.149 HD
BRANCH   5  20
ATOM     20  C   UNL     1      -3.219   4.244  26.591  0.00  0.00    +0.132 C 
BRANCH  20  22
ATOM     22  C   UNL     1      -2.457   4.987  25.509  0.00  0.00    +0.178 C 
BRANCH  22   3
ATOM      3  O   UNL     1      -1.078   4.650  25.587  0.00  0.00    -0.381 OA
ATOM     29  C   UNL     1      -0.393   4.976  24.385  0.00  0.00    +0.194 C 
ENDBRANCH  22   3
ENDBRANCH  20  22
ENDBRANCH   5  20
ENDBRANCH  14  18
ENDBRANCH   9  14
TORSDOF 9
ENDMDL
MODEL 4
REMARK VINA RESULT:      -0.8      2.048      4.490
REMARK  Name = 38027716
REMARK  14 active torsions:
REMARK  status: ('A' for Active; 'I' for Inactive)
REMARK    1  A    between atoms: O_3  and  C_22
REMARK    2  A    between atoms: O_3  and  C_29
REMARK    3  A    between atoms: N_4  and  C_13
REMARK    4  A    between atoms: N_5  and  C_20
REMARK    5  A    between atoms: C_6  and  C_10
REMARK    6  A    between atoms: C_7  and  C_13
REMARK    7  A    between atoms: C_9  and  C_14
REMARK    8  A    between atoms: C_10  and  C_15
REMARK    9  A    between atoms: C_10  and  C_16
REMARK   10  A    between atoms: C_11  and  C_17
REMARK   11  A    between atoms: C_14  and  C_18
REMARK   12  A    between atoms: C_19  and  C_21
REMARK   13  A    between atoms: C_20  and  C_22
REMARK   14  A    between atoms: C_27  and  C_28
REMARK                            x       y       z     vdW  Elec       q    Type
REMARK                         _______ _______ _______ _____ _____    ______ ____
ROOT
ATOM      6  C   UNL     1      -3.028   1.857  24.418  0.00  0.00    +0.000 C 
ATOM      7  C   UNL     1      -2.129   1.921  23.158  0.00  0.00    +0.032 C 
ATOM      8  C   UNL     1      -3.284   3.269  24.966  0.00  0.00    +0.012 C 
ATOM      9  C   UNL     1      -1.977   3.997  25.335  0.00  0.00    +0.023 C 
ATOM     11  C   UNL     1      -0.936   3.874  24.241  0.00  0.00    -0.073 C 
ATOM     12  C   UNL     1      -1.028   2.949  23.269  0.00  0.00    -0.022 C 
ATOM     17  C   UNL     1       0.190   4.870  24.264  0.00  0.00    +0.039 C 
ENDROOT
BRANCH   6  10
ATOM     10  C   UNL     1      -4.362   1.162  24.130  0.00  0.00    -0.013 C 
ATOM     15  C   UNL     1      -4.346  -0.265  24.669  0.00  0.00    +0.007 C 
ATOM     16  C   UNL     1      -5.516   1.956  24.735  0.00  0.00    +0.007 C 
ENDBRANCH   6  10
BRANCH   7  13
ATOM     13  C   UNL     1      -1.518   0.550  22.844  0.00  0.00    +0.112 C 
BRANCH  13   4
ATOM      2  O   UNL     1       0.524  -0.744  21.295  0.00  0.00    -0.270 OA
ATOM      4  N   UNL     1      -0.115   0.545  23.117  0.00  0.00    -0.311 N 
ATOM     19  C   UNL     1       0.813  -0.111  22.309  0.00  0.00    +0.244 C 
ATOM     30  H   UNL     1       0.209   1.122  23.886  0.00  0.00    +0.149 HD
BRANCH  19  21
ATOM     21  C   UNL     1       2.232  -0.045  22.743  0.00  0.00    +0.037 A 
ATOM     23  C   UNL     1       2.968   1.123  22.545  0.00  0.00    +0.013 A 
ATOM     24  C   UNL     1       2.829  -1.151  23.349  0.00  0.00    +0.013 A 
ATOM     25  C   UNL     1       4.300   1.186  22.953  0.00  0.00    +0.004 A 
ATOM     26  C   UNL     1       4.161  -1.089  23.756  0.00  0.00    +0.004 A 
ATOM     27  C   UNL     1       4.896   0.079  23.559  0.00  0.00    -0.050 A 
ATOM     28  C   UNL     1       6.321   0.146  23.994  0.00  0.00    +0.044 C 
ENDBRANCH  19  21
ENDBRANCH  13   4
ENDBRANCH   7  13
BRANCH   9  14
ATOM     14  C   UNL     1      -1.427   3.497  26.676  0.00  0.00    +0.103 C 
BRANCH  14  18
ATOM      1  O   UNL     1       0.762   2.489  26.452  0.00  0.00    -0.276 OA
ATOM      5  N   UNL     1      -1.130   1.141  26.406  0.00  0.00    -0.313 N 
ATOM     18  C   UNL     1      -0.458   2.349  26.502  0.00  0.00    +0.214 C 
ATOM     31  H   UNL     1      -2.145   1.125  26.457  0.00  0.00    +0.149 HD
BRANCH   5  20
ATOM     20  C   UNL     1      -0.456  -0.126  26.232  0.00  0.00    +0.132 C 
BRANCH  20  22
ATOM     22  C   UNL     1      -1.441  -1.248  25.959  0.00  0.00    +0.178 C 
BRANCH  22   3
ATOM      3  O   UNL     1      -1.011  -1.989  24.825  0.00  0.00    -0.381 OA
ATOM     29  C   UNL     1      -2.038  -2.844  24.341  0.00  0.00    +0.194 C 
ENDBRANCH  22   3
ENDBRANCH  20  22
ENDBRANCH   5  20
ENDBRANCH  14  18
ENDBRANCH   9  14
TORSDOF 9
ENDMDL
MODEL 5
REMARK VINA RESULT:      -0.6      1.986      4.061
REMARK  Name = 38027716
REMARK  14 active torsions:
REMARK  status: ('A' for Active; 'I' for Inactive)
REMARK    1  A    between atoms: O_3  and  C_22
REMARK    2  A    between atoms: O_3  and  C_29
REMARK    3  A    between atoms: N_4  and  C_13
REMARK    4  A    between atoms: N_5  and  C_20
REMARK    5  A    between atoms: C_6  and  C_10
REMARK    6  A    between atoms: C_7  and  C_13
REMARK    7  A    between atoms: C_9  and  C_14
REMARK    8  A    between atoms: C_10  and  C_15
REMARK    9  A    between atoms: C_10  and  C_16
REMARK   10  A    between atoms: C_11  and  C_17
REMARK   11  A    between atoms: C_14  and  C_18
REMARK   12  A    between atoms: C_19  and  C_21
REMARK   13  A    between atoms: C_20  and  C_22
REMARK   14  A    between atoms: C_27  and  C_28
REMARK                            x       y       z     vdW  Elec       q    Type
REMARK                         _______ _______ _______ _____ _____    ______ ____
ROOT
ATOM      6  C   UNL     1      -2.760   2.469  23.558  0.00  0.00    +0.000 C 
ATOM      7  C   UNL     1      -1.421   2.267  24.309  0.00  0.00    +0.032 C 
ATOM      8  C   UNL     1      -3.388   3.819  23.935  0.00  0.00    +0.012 C 
ATOM      9  C   UNL     1      -3.654   3.936  25.447  0.00  0.00    +0.023 C 
ATOM     11  C   UNL     1      -2.458   3.494  26.265  0.00  0.00    -0.073 C 
ATOM     12  C   UNL     1      -1.463   2.759  25.736  0.00  0.00    -0.022 C 
ATOM     17  C   UNL     1      -2.408   3.954  27.695  0.00  0.00    +0.039 C 
ENDROOT
BRANCH   6  10
ATOM     10  C   UNL     1      -2.579   2.386  22.039  0.00  0.00    -0.013 C 
ATOM     15  C   UNL     1      -2.580   0.931  21.581  0.00  0.00    +0.007 C 
ATOM     16  C   UNL     1      -3.673   3.178  21.330  0.00  0.00    +0.007 C 
ENDBRANCH   6  10
BRANCH   7  13
ATOM     13  C   UNL     1      -0.993   0.794  24.290  0.00  0.00    +0.112 C 
BRANCH  13   4
ATOM      2  O   UNL     1       0.499  -0.456  22.179  0.00  0.00    -0.270 OA
ATOM      4  N   UNL     1       0.429   0.679  24.202  0.00  0.00    -0.311 N 
ATOM     19  C   UNL     1       1.075   0.054  23.137  0.00  0.00    +0.244 C 
ATOM     30  H   UNL     1       0.976   1.157  24.911  0.00  0.00    +0.149 HD
BRANCH  19  21
ATOM     21  C   UNL     1       2.558  -0.007  23.207  0.00  0.00    +0.037 A 
ATOM     23  C   UNL     1       3.188  -1.160  23.675  0.00  0.00    +0.013 A 
ATOM     24  C   UNL     1       3.321   1.090  22.805  0.00  0.00    +0.013 A 
ATOM     25  C   UNL     1       4.580  -1.216  23.741  0.00  0.00    +0.004 A 
ATOM     26  C   UNL     1       4.712   1.034  22.871  0.00  0.00    +0.004 A 
ATOM     27  C   UNL     1       5.342  -0.119  23.339  0.00  0.00    -0.050 A 
ATOM     28  C   UNL     1       6.831  -0.180  23.410  0.00  0.00    +0.044 C 
ENDBRANCH  19  21
ENDBRANCH  13   4
ENDBRANCH   7  13
BRANCH   9  14
ATOM     14  C   UNL     1      -4.912   3.157  25.848  0.00  0.00    +0.103 C 
BRANCH  14  18
ATOM      1  O   UNL     1      -5.862   1.883  24.024  0.00  0.00    -0.276 OA
ATOM      5  N   UNL     1      -4.348   0.866  25.465  0.00  0.00    -0.313 N 
ATOM     18  C   UNL     1      -5.113   1.923  24.998  0.00  0.00    +0.214 C 
ATOM     31  H   UNL     1      -3.757   0.996  26.281  0.00  0.00    +0.149 HD
BRANCH   5  20
ATOM     20  C   UNL     1      -4.344  -0.440  24.845  0.00  0.00    +0.132 C 
BRANCH  20  22
ATOM     22  C   UNL     1      -3.599  -1.455  25.692  0.00  0.00    +0.178 C 
BRANCH  22   3
ATOM      3  O   UNL     1      -3.307  -2.603  24.906  0.00  0.00    -0.381 OA
ATOM     29  C   UNL     1      -1.985  -2.556  24.386  0.00  0.00    +0.194 C 
ENDBRANCH  22   3
ENDBRANCH  20  22
ENDBRANCH   5  20
ENDBRANCH  14  18
ENDBRANCH   9  14
TORSDOF 9
ENDMDL
MODEL 6
REMARK VINA RESULT:      -0.5      2.483      4.292
REMARK  Name = 38027716
REMARK  14 active torsions:
REMARK  status: ('A' for Active; 'I' for Inactive)
REMARK    1  A    between atoms: O_3  and  C_22
REMARK    2  A    between atoms: O_3  and  C_29
REMARK    3  A    between atoms: N_4  and  C_13
REMARK    4  A    between atoms: N_5  and  C_20
REMARK    5  A    between atoms: C_6  and  C_10
REMARK    6  A    between atoms: C_7  and  C_13
REMARK    7  A    between atoms: C_9  and  C_14
REMARK    8  A    between atoms: C_10  and  C_15
REMARK    9  A    between atoms: C_10  and  C_16
REMARK   10  A    between atoms: C_11  and  C_17
REMARK   11  A    between atoms: C_14  and  C_18
REMARK   12  A    between atoms: C_19  and  C_21
REMARK   13  A    between atoms: C_20  and  C_22
REMARK   14  A    between atoms: C_27  and  C_28
REMARK                            x       y       z     vdW  Elec       q    Type
REMARK                         _______ _______ _______ _____ _____    ______ ____
ROOT
ATOM      6  C   UNL     1      -2.859   1.036  24.593  0.00  0.00    +0.000 C 
ATOM      7  C   UNL     1      -1.819   0.773  23.475  0.00  0.00    +0.032 C 
ATOM      8  C   UNL     1      -3.237   2.525  24.634  0.00  0.00    +0.012 C 
ATOM      9  C   UNL     1      -2.015   3.430  24.881  0.00  0.00    +0.023 C 
ATOM     11  C   UNL     1      -0.847   3.052  23.993  0.00  0.00    -0.073 C 
ATOM     12  C   UNL     1      -0.783   1.866  23.363  0.00  0.00    -0.022 C 
ATOM     17  C   UNL     1       0.227   4.089  23.810  0.00  0.00    +0.039 C 
ENDROOT
BRANCH   6  10
ATOM     10  C   UNL     1      -4.119   0.185  24.409  0.00  0.00    -0.013 C 
ATOM     15  C   UNL     1      -3.948  -1.173  25.083  0.00  0.00    +0.007 C 
ATOM     16  C   UNL     1      -5.338   0.915  24.965  0.00  0.00    +0.007 C 
ENDBRANCH   6  10
BRANCH   7  13
ATOM     13  C   UNL     1      -1.118  -0.576  23.678  0.00  0.00    +0.112 C 
BRANCH  13   4
ATOM      2  O   UNL     1       0.786  -0.644  21.531  0.00  0.00    -0.270 OA
ATOM      4  N   UNL     1       0.296  -0.403  23.787  0.00  0.00    -0.311 N 
ATOM     19  C   UNL     1       1.153  -0.451  22.688  0.00  0.00    +0.244 C 
ATOM     30  H   UNL     1       0.662  -0.148  24.698  0.00  0.00    +0.149 HD
BRANCH  19  21
ATOM     21  C   UNL     1       2.601  -0.278  22.971  0.00  0.00    +0.037 A 
ATOM     23  C   UNL     1       3.239   0.916  22.638  0.00  0.00    +0.013 A 
ATOM     24  C   UNL     1       3.322  -1.311  23.570  0.00  0.00    +0.013 A 
ATOM     25  C   UNL     1       4.599   1.077  22.904  0.00  0.00    +0.004 A 
ATOM     26  C   UNL     1       4.681  -1.151  23.836  0.00  0.00    +0.004 A 
ATOM     27  C   UNL     1       5.320   0.043  23.503  0.00  0.00    -0.050 A 
ATOM     28  C   UNL     1       6.774   0.217  23.786  0.00  0.00    +0.044 C 
ENDBRANCH  19  21
ENDBRANCH  13   4
ENDBRANCH   7  13
BRANCH   9  14
ATOM     14  C   UNL     1      -1.609   3.417  26.359  0.00  0.00    +0.103 C 
BRANCH  14  18
ATOM      1  O   UNL     1      -0.515   1.259  26.371  0.00  0.00    -0.276 OA
ATOM      5  N   UNL     1       0.608   3.118  27.198  0.00  0.00    -0.313 N 
ATOM     18  C   UNL     1      -0.471   2.460  26.629  0.00  0.00    +0.214 C 
ATOM     31  H   UNL     1       0.551   4.117  27.375  0.00  0.00    +0.149 HD
BRANCH   5  20
ATOM     20  C   UNL     1       1.837   2.450  27.565  0.00  0.00    +0.132 C 
BRANCH  20  22
ATOM     22  C   UNL     1       2.465   3.076  28.796  0.00  0.00    +0.178 C 
BRANCH  22   3
ATOM      3  O   UNL     1       2.324   2.192  29.900  0.00  0.00    -0.381 OA
ATOM     29  C   UNL     1       1.035   2.295  30.490  0.00  0.00    +0.194 C 
ENDBRANCH  22   3
ENDBRANCH  20  22
ENDBRANCH   5  20
ENDBRANCH  14  18
ENDBRANCH   9  14
TORSDOF 9
ENDMDL
MODEL 7
REMARK VINA RESULT:       0.3      2.466      4.851
REMARK  Name = 38027716
REMARK  14 active torsions:
REMARK  status: ('A' for Active; 'I' for Inactive)
REMARK    1  A    between atoms: O_3  and  C_22
REMARK    2  A    between atoms: O_3  and  C_29
REMARK    3  A    between atoms: N_4  and  C_13
REMARK    4  A    between atoms: N_5  and  C_20
REMARK    5  A    between atoms: C_6  and  C_10
REMARK    6  A    between atoms: C_7  and  C_13
REMARK    7  A    between atoms: C_9  and  C_14
REMARK    8  A    between atoms: C_10  and  C_15
REMARK    9  A    between atoms: C_10  and  C_16
REMARK   10  A    between atoms: C_11  and  C_17
REMARK   11  A    between atoms: C_14  and  C_18
REMARK   12  A    between atoms: C_19  and  C_21
REMARK   13  A    between atoms: C_20  and  C_22
REMARK   14  A    between atoms: C_27  and  C_28
REMARK                            x       y       z     vdW  Elec       q    Type
REMARK                         _______ _______ _______ _____ _____    ______ ____
ROOT
ATOM      6  C   UNL     1      -2.272   4.178  24.929  0.00  0.00    +0.000 C 
ATOM      7  C   UNL     1      -2.627   3.717  26.365  0.00  0.00    +0.032 C 
ATOM      8  C   UNL     1      -3.510   4.763  24.232  0.00  0.00    +0.012 C 
ATOM      9  C   UNL     1      -4.664   3.747  24.146  0.00  0.00    +0.023 C 
ATOM     11  C   UNL     1      -4.900   3.049  25.470  0.00  0.00    -0.073 C 
ATOM     12  C   UNL     1      -3.983   3.058  26.455  0.00  0.00    -0.022 C 
ATOM     17  C   UNL     1      -6.232   2.379  25.655  0.00  0.00    +0.039 C 
ENDROOT
BRANCH   6  10
ATOM     10  C   UNL     1      -1.139   5.210  24.927  0.00  0.00    -0.013 C 
ATOM     15  C   UNL     1      -0.173   4.937  23.779  0.00  0.00    +0.007 C 
ATOM     16  C   UNL     1      -1.708   6.622  24.832  0.00  0.00    +0.007 C 
ENDBRANCH   6  10
BRANCH   7  13
ATOM     13  C   UNL     1      -1.560   2.767  26.921  0.00  0.00    +0.112 C 
BRANCH  13   4
ATOM      2  O   UNL     1      -1.167   0.094  25.948  0.00  0.00    -0.270 OA
ATOM      4  N   UNL     1      -0.658   2.358  25.890  0.00  0.00    -0.311 N 
ATOM     19  C   UNL     1      -0.529   1.032  25.477  0.00  0.00    +0.244 C 
ATOM     30  H   UNL     1      -0.164   3.090  25.390  0.00  0.00    +0.149 HD
BRANCH  19  21
ATOM     21  C   UNL     1       0.472   0.766  24.412  0.00  0.00    +0.037 A 
ATOM     23  C   UNL     1       0.401  -0.410  23.666  0.00  0.00    +0.013 A 
ATOM     24  C   UNL     1       1.483   1.693  24.158  0.00  0.00    +0.013 A 
ATOM     25  C   UNL     1       1.342  -0.659  22.666  0.00  0.00    +0.004 A 
ATOM     26  C   UNL     1       2.424   1.444  23.160  0.00  0.00    +0.004 A 
ATOM     27  C   UNL     1       2.353   0.268  22.413  0.00  0.00    -0.050 A 
ATOM     28  C   UNL     1       3.359   0.000  21.345  0.00  0.00    +0.044 C 
ENDBRANCH  19  21
ENDBRANCH  13   4
ENDBRANCH   7  13
BRANCH   9  14
ATOM     14  C   UNL     1      -4.422   2.729  23.025  0.00  0.00    +0.103 C 
BRANCH  14  18
ATOM      1  O   UNL     1      -2.348   1.525  23.340  0.00  0.00    -0.276 OA
ATOM      5  N   UNL     1      -4.342   0.583  24.074  0.00  0.00    -0.313 N 
ATOM     18  C   UNL     1      -3.567   1.570  23.482  0.00  0.00    +0.214 C 
ATOM     31  H   UNL     1      -5.347   0.711  24.146  0.00  0.00    +0.149 HD
BRANCH   5  20
ATOM     20  C   UNL     1      -3.789  -0.643  24.602  0.00  0.00    +0.132 C 
BRANCH  20  22
ATOM     22  C   UNL     1      -4.332  -1.858  23.872  0.00  0.00    +0.178 C 
BRANCH  22   3
ATOM      3  O   UNL     1      -3.569  -3.003  24.228  0.00  0.00    -0.381 OA
ATOM     29  C   UNL     1      -2.214  -2.664  24.495  0.00  0.00    +0.194 C 
ENDBRANCH  22   3
ENDBRANCH  20  22
ENDBRANCH   5  20
ENDBRANCH  14  18
ENDBRANCH   9  14
TORSDOF 9
ENDMDL
MODEL 8
REMARK VINA RESULT:       0.8      2.425      6.223
REMARK  Name = 38027716
REMARK  14 active torsions:
REMARK  status: ('A' for Active; 'I' for Inactive)
REMARK    1  A    between atoms: O_3  and  C_22
REMARK    2  A    between atoms: O_3  and  C_29
REMARK    3  A    between atoms: N_4  and  C_13
REMARK    4  A    between atoms: N_5  and  C_20
REMARK    5  A    between atoms: C_6  and  C_10
REMARK    6  A    between atoms: C_7  and  C_13
REMARK    7  A    between atoms: C_9  and  C_14
REMARK    8  A    between atoms: C_10  and  C_15
REMARK    9  A    between atoms: C_10  and  C_16
REMARK   10  A    between atoms: C_11  and  C_17
REMARK   11  A    between atoms: C_14  and  C_18
REMARK   12  A    between atoms: C_19  and  C_21
REMARK   13  A    between atoms: C_20  and  C_22
REMARK   14  A    between atoms: C_27  and  C_28
REMARK                            x       y       z     vdW  Elec       q    Type
REMARK                         _______ _______ _______ _____ _____    ______ ____
ROOT
ATOM      6  C   UNL     1       0.175   1.796  24.188  0.00  0.00    +0.000 C 
ATOM      7  C   UNL     1       0.250   2.218  25.677  0.00  0.00    +0.032 C 
ATOM      8  C   UNL     1       0.237   3.031  23.276  0.00  0.00    +0.012 C 
ATOM      9  C   UNL     1      -0.907   4.023  23.560  0.00  0.00    +0.023 C 
ATOM     11  C   UNL     1      -1.070   4.284  25.044  0.00  0.00    -0.073 C 
ATOM     12  C   UNL     1      -0.535   3.474  25.975  0.00  0.00    -0.022 C 
ATOM     17  C   UNL     1      -1.825   5.524  25.433  0.00  0.00    +0.039 C 
ENDROOT
BRANCH   6  10
ATOM     10  C   UNL     1       1.296   0.820  23.817  0.00  0.00    -0.013 C 
ATOM     15  C   UNL     1       0.773  -0.258  22.874  0.00  0.00    +0.007 C 
ATOM     16  C   UNL     1       2.466   1.570  23.186  0.00  0.00    +0.007 C 
ENDBRANCH   6  10
BRANCH   7  13
ATOM     13  C   UNL     1      -0.227   1.088  26.597  0.00  0.00    +0.112 C 
BRANCH  13   4
ATOM      2  O   UNL     1      -0.098  -1.687  25.872  0.00  0.00    -0.270 OA
ATOM      4  N   UNL     1      -1.257   0.322  25.968  0.00  0.00    -0.311 N 
ATOM     19  C   UNL     1      -1.111  -1.028  25.649  0.00  0.00    +0.244 C 
ATOM     30  H   UNL     1      -2.155   0.774  25.837  0.00  0.00    +0.149 HD
BRANCH  19  21
ATOM     21  C   UNL     1      -2.265  -1.675  24.974  0.00  0.00    +0.037 A 
ATOM     23  C   UNL     1      -3.452  -0.968  24.789  0.00  0.00    +0.013 A 
ATOM     24  C   UNL     1      -2.160  -2.992  24.524  0.00  0.00    +0.013 A 
ATOM     25  C   UNL     1      -4.535  -1.576  24.154  0.00  0.00    +0.004 A 
ATOM     26  C   UNL     1      -3.243  -3.601  23.890  0.00  0.00    +0.004 A 
ATOM     27  C   UNL     1      -4.430  -2.893  23.705  0.00  0.00    -0.050 A 
ATOM     28  C   UNL     1      -5.589  -3.543  23.027  0.00  0.00    +0.044 C 
ENDBRANCH  19  21
ENDBRANCH  13   4
ENDBRANCH   7  13
BRANCH   9  14
ATOM     14  C   UNL     1      -2.223   3.539  22.939  0.00  0.00    +0.103 C 
BRANCH  14  18
ATOM      1  O   UNL     1      -3.017   1.726  24.330  0.00  0.00    -0.276 OA
ATOM      5  N   UNL     1      -4.092   3.786  24.408  0.00  0.00    -0.313 N 
ATOM     18  C   UNL     1      -3.131   2.893  23.960  0.00  0.00    +0.214 C 
ATOM     31  H   UNL     1      -4.106   4.733  24.041  0.00  0.00    +0.149 HD
BRANCH   5  20
ATOM     20  C   UNL     1      -5.097   3.438  25.387  0.00  0.00    +0.132 C 
BRANCH  20  22
ATOM     22  C   UNL     1      -6.003   2.330  24.884  0.00  0.00    +0.178 C 
BRANCH  22   3
ATOM      3  O   UNL     1      -5.969   1.241  25.797  0.00  0.00    -0.381 OA
ATOM     29  C   UNL     1      -6.574   1.581  27.037  0.00  0.00    +0.194 C 
ENDBRANCH  22   3
ENDBRANCH  20  22
ENDBRANCH   5  20
ENDBRANCH  14  18
ENDBRANCH   9  14
TORSDOF 9
ENDMDL
MODEL 9
REMARK VINA RESULT:       1.4      2.422      5.662
REMARK  Name = 38027716
REMARK  14 active torsions:
REMARK  status: ('A' for Active; 'I' for Inactive)
REMARK    1  A    between atoms: O_3  and  C_22
REMARK    2  A    between atoms: O_3  and  C_29
REMARK    3  A    between atoms: N_4  and  C_13
REMARK    4  A    between atoms: N_5  and  C_20
REMARK    5  A    between atoms: C_6  and  C_10
REMARK    6  A    between atoms: C_7  and  C_13
REMARK    7  A    between atoms: C_9  and  C_14
REMARK    8  A    between atoms: C_10  and  C_15
REMARK    9  A    between atoms: C_10  and  C_16
REMARK   10  A    between atoms: C_11  and  C_17
REMARK   11  A    between atoms: C_14  and  C_18
REMARK   12  A    between atoms: C_19  and  C_21
REMARK   13  A    between atoms: C_20  and  C_22
REMARK   14  A    between atoms: C_27  and  C_28
REMARK                            x       y       z     vdW  Elec       q    Type
REMARK                         _______ _______ _______ _____ _____    ______ ____
ROOT
ATOM      6  C   UNL     1      -3.222   1.983  23.625  0.00  0.00    +0.000 C 
ATOM      7  C   UNL     1      -4.073   3.192  24.086  0.00  0.00    +0.032 C 
ATOM      8  C   UNL     1      -4.078   0.708  23.584  0.00  0.00    +0.012 C 
ATOM      9  C   UNL     1      -4.694   0.377  24.957  0.00  0.00    +0.023 C 
ATOM     11  C   UNL     1      -5.324   1.595  25.601  0.00  0.00    -0.073 C 
ATOM     12  C   UNL     1      -5.044   2.845  25.189  0.00  0.00    -0.022 C 
ATOM     17  C   UNL     1      -6.318   1.342  26.699  0.00  0.00    +0.039 C 
ENDROOT
BRANCH   6  10
ATOM     10  C   UNL     1      -2.586   2.226  22.252  0.00  0.00    -0.013 C 
ATOM     15  C   UNL     1      -2.320   0.899  21.547  0.00  0.00    +0.007 C 
ATOM     16  C   UNL     1      -3.484   3.120  21.402  0.00  0.00    +0.007 C 
ENDBRANCH   6  10
BRANCH   7  13
ATOM     13  C   UNL     1      -3.182   4.356  24.538  0.00  0.00    +0.112 C 
BRANCH  13   4
ATOM      2  O   UNL     1      -0.427   3.575  24.332  0.00  0.00    -0.270 OA
ATOM      4  N   UNL     1      -2.327   3.954  25.610  0.00  0.00    -0.311 N 
ATOM     19  C   UNL     1      -0.995   3.589  25.422  0.00  0.00    +0.244 C 
ATOM     30  H   UNL     1      -2.699   4.029  26.551  0.00  0.00    +0.149 HD
BRANCH  19  21
ATOM     21  C   UNL     1      -0.247   3.170  26.635  0.00  0.00    +0.037 A 
ATOM     23  C   UNL     1      -0.933   2.897  27.818  0.00  0.00    +0.013 A 
ATOM     24  C   UNL     1       1.142   3.050  26.590  0.00  0.00    +0.013 A 
ATOM     25  C   UNL     1      -0.230   2.504  28.957  0.00  0.00    +0.004 A 
ATOM     26  C   UNL     1       1.846   2.657  27.729  0.00  0.00    +0.004 A 
ATOM     27  C   UNL     1       1.160   2.384  28.912  0.00  0.00    -0.050 A 
ATOM     28  C   UNL     1       1.911   1.964  30.130  0.00  0.00    +0.044 C 
ENDBRANCH  19  21
ENDBRANCH  13   4
ENDBRANCH   7  13
BRANCH   9  14
ATOM     14  C   UNL     1      -3.656  -0.262  25.887  0.00  0.00    +0.103 C 
BRANCH  14  18
ATOM      1  O   UNL     1      -2.743  -2.047  24.532  0.00  0.00    -0.276 OA
ATOM      5  N   UNL     1      -1.375  -0.282  25.176  0.00  0.00    -0.313 N 
ATOM     18  C   UNL     1      -2.570  -0.982  25.121  0.00  0.00    +0.214 C 
ATOM     31  H   UNL     1      -1.329   0.593  25.690  0.00  0.00    +0.149 HD
BRANCH   5  20
ATOM     20  C   UNL     1      -0.163  -0.738  24.533  0.00  0.00    +0.132 C 
BRANCH  20  22
ATOM     22  C   UNL     1       0.413   0.325  23.614  0.00  0.00    +0.178 C 
BRANCH  22   3
ATOM      3  O   UNL     1       1.098  -0.301  22.539  0.00  0.00    -0.381 OA
ATOM     29  C   UNL     1       2.466   0.081  22.498  0.00  0.00    +0.194 C 
ENDBRANCH  22   3
ENDBRANCH  20  22
ENDBRANCH   5  20
ENDBRANCH  14  18
ENDBRANCH   9  14
TORSDOF 9
ENDMDL
MODEL 10
REMARK VINA RESULT:       1.4      1.893      7.309
REMARK  Name = 38027716
REMARK  14 active torsions:
REMARK  status: ('A' for Active; 'I' for Inactive)
REMARK    1  A    between atoms: O_3  and  C_22
REMARK    2  A    between atoms: O_3  and  C_29
REMARK    3  A    between atoms: N_4  and  C_13
REMARK    4  A    between atoms: N_5  and  C_20
REMARK    5  A    between atoms: C_6  and  C_10
REMARK    6  A    between atoms: C_7  and  C_13
REMARK    7  A    between atoms: C_9  and  C_14
REMARK    8  A    between atoms: C_10  and  C_15
REMARK    9  A    between atoms: C_10  and  C_16
REMARK   10  A    between atoms: C_11  and  C_17
REMARK   11  A    between atoms: C_14  and  C_18
REMARK   12  A    between atoms: C_19  and  C_21
REMARK   13  A    between atoms: C_20  and  C_22
REMARK   14  A    between atoms: C_27  and  C_28
REMARK                            x       y       z     vdW  Elec       q    Type
REMARK                         _______ _______ _______ _____ _____    ______ ____
ROOT
ATOM      6  C   UNL     1      -2.094   3.611  25.143  0.00  0.00    +0.000 C 
ATOM      7  C   UNL     1      -3.290   3.484  24.166  0.00  0.00    +0.032 C 
ATOM      8  C   UNL     1      -0.786   3.820  24.365  0.00  0.00    +0.012 C 
ATOM      9  C   UNL     1      -0.498   2.664  23.388  0.00  0.00    +0.023 C 
ATOM     11  C   UNL     1      -1.721   2.300  22.571  0.00  0.00    -0.073 C 
ATOM     12  C   UNL     1      -2.959   2.686  22.928  0.00  0.00    -0.022 C 
ATOM     17  C   UNL     1      -1.484   1.518  21.309  0.00  0.00    +0.039 C 
ENDROOT
BRANCH   6  10
ATOM     10  C   UNL     1      -2.293   4.756  26.141  0.00  0.00    -0.013 C 
ATOM     15  C   UNL     1      -2.278   6.100  25.419  0.00  0.00    +0.007 C 
ATOM     16  C   UNL     1      -3.598   4.569  26.909  0.00  0.00    +0.007 C 
ENDBRANCH   6  10
BRANCH   7  13
ATOM     13  C   UNL     1      -4.509   2.865  24.862  0.00  0.00    +0.112 C 
BRANCH  13   4
ATOM      2  O   UNL     1      -2.545   0.997  25.811  0.00  0.00    -0.270 OA
ATOM      4  N   UNL     1      -4.526   1.446  24.689  0.00  0.00    -0.311 N 
ATOM     19  C   UNL     1      -3.528   0.609  25.184  0.00  0.00    +0.244 C 
ATOM     30  H   UNL     1      -5.353   1.043  24.261  0.00  0.00    +0.149 HD
BRANCH  19  21
ATOM     21  C   UNL     1      -3.678  -0.841  24.896  0.00  0.00    +0.037 A 
ATOM     23  C   UNL     1      -4.404  -1.259  23.781  0.00  0.00    +0.013 A 
ATOM     24  C   UNL     1      -3.093  -1.784  25.742  0.00  0.00    +0.013 A 
ATOM     25  C   UNL     1      -4.545  -2.621  23.512  0.00  0.00    +0.004 A 
ATOM     26  C   UNL     1      -3.234  -3.145  25.473  0.00  0.00    +0.004 A 
ATOM     27  C   UNL     1      -3.960  -3.563  24.358  0.00  0.00    -0.050 A 
ATOM     28  C   UNL     1      -4.112  -5.019  24.069  0.00  0.00    +0.044 C 
ENDBRANCH  19  21
ENDBRANCH  13   4
ENDBRANCH   7  13
BRANCH   9  14
ATOM     14  C   UNL     1       0.053   1.440  24.129  0.00  0.00    +0.103 C 
BRANCH  14  18
ATOM      1  O   UNL     1       0.687  -0.372  22.656  0.00  0.00    -0.276 OA
ATOM      5  N   UNL     1       2.277   1.200  23.288  0.00  0.00    -0.313 N 
ATOM     18  C   UNL     1       1.009   0.640  23.274  0.00  0.00    +0.214 C 
ATOM     31  H   UNL     1       2.448   2.041  23.832  0.00  0.00    +0.149 HD
BRANCH   5  20
ATOM     20  C   UNL     1       3.394   0.643  22.560  0.00  0.00    +0.132 C 
BRANCH  20  22
ATOM     22  C   UNL     1       4.710   0.913  23.267  0.00  0.00    +0.178 C 
BRANCH  22   3
ATOM      3  O   UNL     1       5.465  -0.289  23.335  0.00  0.00    -0.381 OA
ATOM     29  C   UNL     1       4.697  -1.358  23.873  0.00  0.00    +0.194 C 
ENDBRANCH  22   3
ENDBRANCH  20  22
ENDBRANCH   5  20
ENDBRANCH  14  18
ENDBRANCH   9  14
TORSDOF 9
ENDMDL
