MODEL 1
REMARK VINA RESULT:      -5.8      0.000      0.000
REMARK  Name = 44716179
REMARK  8 active torsions:
REMARK  status: ('A' for Active; 'I' for Inactive)
REMARK    1  A    between atoms: O_2  and  C_24
REMARK    2  A    between atoms: N_4  and  C_16
REMARK    3  A    between atoms: N_5  and  C_19
REMARK    4  A    between atoms: C_10  and  C_16
REMARK    5  A    between atoms: C_11  and  C_17
REMARK    6  A    between atoms: C_19  and  C_21
REMARK    7  A    between atoms: C_20  and  C_22
REMARK    8  A    between atoms: C_22  and  C_24
REMARK                            x       y       z     vdW  Elec       q    Type
REMARK                         _______ _______ _______ _____ _____    ______ ____
ROOT
ATOM      3  N   UNL     1      -1.218   3.928  25.647  0.00  0.00    -0.297 NA
ATOM      9  C   UNL     1      -3.288   4.094  24.079  0.00  0.00    +0.005 C 
ATOM     10  C   UNL     1      -1.063   2.991  24.503  0.00  0.00    +0.078 C 
ATOM     11  C   UNL     1      -3.713   3.857  25.542  0.00  0.00    +0.092 C 
ATOM     12  C   UNL     1      -2.345   2.957  23.640  0.00  0.00    +0.025 C 
ATOM     13  C   UNL     1      -2.473   5.400  24.060  0.00  0.00    +0.020 C 
ATOM     14  C   UNL     1      -2.459   3.621  26.401  0.00  0.00    +0.097 C 
ATOM     15  C   UNL     1      -1.339   5.302  25.098  0.00  0.00    +0.085 C 
ENDROOT
BRANCH  11  17
ATOM      1  O   UNL     1      -5.744   2.829  26.267  0.00  0.00    -0.275 OA
ATOM      5  N   UNL     1      -4.219   1.571  25.038  0.00  0.00    -0.311 N 
ATOM     17  C   UNL     1      -4.681   2.717  25.660  0.00  0.00    +0.218 C 
ATOM     28  H   UNL     1      -3.319   1.587  24.567  0.00  0.00    +0.149 HD
BRANCH   5  19
ATOM     19  C   UNL     1      -4.954   0.326  25.027  0.00  0.00    +0.141 C 
BRANCH  19  21
ATOM      8  N   UNL     1      -1.979  -1.990  25.324  0.00  0.00    -0.263 NA
ATOM     21  C   UNL     1      -4.053  -0.856  24.815  0.00  0.00    -0.012 A 
ATOM     23  C   UNL     1      -4.414  -1.888  23.955  0.00  0.00    +0.008 A 
ATOM     25  C   UNL     1      -2.836  -0.955  25.471  0.00  0.00    +0.115 A 
ATOM     26  C   UNL     1      -3.558  -2.969  23.778  0.00  0.00    +0.020 A 
ATOM     27  C   UNL     1      -2.364  -2.972  24.480  0.00  0.00    +0.111 A 
ENDBRANCH  19  21
ENDBRANCH   5  19
ENDBRANCH  11  17
BRANCH  10  16
ATOM     16  C   UNL     1      -0.642   1.590  24.950  0.00  0.00    +0.164 C 
BRANCH  16   4
ATOM      4  N   UNL     1       0.437   1.030  24.064  0.00  0.00    -0.250 N 
ATOM      6  N   UNL     1       0.242  -0.110  23.383  0.00  0.00    -0.065 NA
ATOM      7  N   UNL     1       1.355  -0.357  22.701  0.00  0.00    -0.134 NA
ATOM     18  C   UNL     1       1.676   1.546  23.837  0.00  0.00    +0.133 A 
ATOM     20  C   UNL     1       2.243   0.648  22.968  0.00  0.00    +0.085 A 
BRANCH  20  22
ATOM     22  C   UNL     1       3.580   0.666  22.361  0.00  0.00    +0.086 C 
BRANCH  22  24
ATOM     24  C   UNL     1       4.689   0.130  23.286  0.00  0.00    +0.162 C 
BRANCH  24   2
ATOM      2  O   UNL     1       4.287  -1.123  23.826  0.00  0.00    -0.395 OA
ATOM     29  H   UNL     1       3.907  -0.946  24.703  0.00  0.00    +0.209 HD
ENDBRANCH  24   2
ENDBRANCH  22  24
ENDBRANCH  20  22
ENDBRANCH  16   4
ENDBRANCH  10  16
TORSDOF 8
ENDMDL
MODEL 2
REMARK VINA RESULT:      -4.7      1.034      4.714
REMARK  Name = 44716179
REMARK  8 active torsions:
REMARK  status: ('A' for Active; 'I' for Inactive)
REMARK    1  A    between atoms: O_2  and  C_24
REMARK    2  A    between atoms: N_4  and  C_16
REMARK    3  A    between atoms: N_5  and  C_19
REMARK    4  A    between atoms: C_10  and  C_16
REMARK    5  A    between atoms: C_11  and  C_17
REMARK    6  A    between atoms: C_19  and  C_21
REMARK    7  A    between atoms: C_20  and  C_22
REMARK    8  A    between atoms: C_22  and  C_24
REMARK                            x       y       z     vdW  Elec       q    Type
REMARK                         _______ _______ _______ _____ _____    ______ ____
ROOT
ATOM      3  N   UNL     1      -2.355  -1.381  23.587  0.00  0.00    -0.297 NA
ATOM      9  C   UNL     1      -3.240  -1.138  26.022  0.00  0.00    +0.005 C 
ATOM     10  C   UNL     1      -1.346  -0.678  24.425  0.00  0.00    +0.078 C 
ATOM     11  C   UNL     1      -4.264  -0.608  25.000  0.00  0.00    +0.092 C 
ATOM     12  C   UNL     1      -1.908  -0.386  25.834  0.00  0.00    +0.025 C 
ATOM     13  C   UNL     1      -2.986  -2.615  25.670  0.00  0.00    +0.020 C 
ATOM     14  C   UNL     1      -3.639  -0.637  23.594  0.00  0.00    +0.097 C 
ATOM     15  C   UNL     1      -2.592  -2.719  24.183  0.00  0.00    +0.085 C 
ENDROOT
BRANCH  11  17
ATOM      1  O   UNL     1      -5.752   0.948  26.036  0.00  0.00    -0.275 OA
ATOM      5  N   UNL     1      -3.939   1.759  24.822  0.00  0.00    -0.311 N 
ATOM     17  C   UNL     1      -4.743   0.769  25.358  0.00  0.00    +0.218 C 
ATOM     28  H   UNL     1      -3.128   1.498  24.268  0.00  0.00    +0.149 HD
BRANCH   5  19
ATOM     19  C   UNL     1      -4.196   3.170  25.001  0.00  0.00    +0.141 C 
BRANCH  19  21
ATOM      8  N   UNL     1      -0.519   4.038  24.839  0.00  0.00    -0.263 NA
ATOM     21  C   UNL     1      -2.932   3.980  24.970  0.00  0.00    -0.012 A 
ATOM     23  C   UNL     1      -2.969   5.368  25.043  0.00  0.00    +0.008 A 
ATOM     25  C   UNL     1      -1.693   3.368  24.869  0.00  0.00    +0.115 A 
ATOM     26  C   UNL     1      -1.781   6.091  25.014  0.00  0.00    +0.020 A 
ATOM     27  C   UNL     1      -0.594   5.385  24.911  0.00  0.00    +0.111 A 
ENDBRANCH  19  21
ENDBRANCH   5  19
ENDBRANCH  11  17
BRANCH  10  16
ATOM     16  C   UNL     1      -0.808   0.586  23.753  0.00  0.00    +0.164 C 
BRANCH  16   4
ATOM      4  N   UNL     1       0.600   0.392  23.261  0.00  0.00    -0.250 N 
ATOM      6  N   UNL     1       0.886  -0.559  22.357  0.00  0.00    -0.065 NA
ATOM      7  N   UNL     1       2.191  -0.497  22.121  0.00  0.00    -0.134 NA
ATOM     18  C   UNL     1       1.711   1.088  23.628  0.00  0.00    +0.133 A 
ATOM     20  C   UNL     1       2.712   0.506  22.891  0.00  0.00    +0.085 A 
BRANCH  20  22
ATOM     22  C   UNL     1       4.143   0.828  22.858  0.00  0.00    +0.086 C 
BRANCH  22  24
ATOM     24  C   UNL     1       5.031  -0.213  23.567  0.00  0.00    +0.162 C 
BRANCH  24   2
ATOM      2  O   UNL     1       4.249  -1.357  23.887  0.00  0.00    -0.395 OA
ATOM     29  H   UNL     1       4.755  -2.137  23.603  0.00  0.00    +0.209 HD
ENDBRANCH  24   2
ENDBRANCH  22  24
ENDBRANCH  20  22
ENDBRANCH  16   4
ENDBRANCH  10  16
TORSDOF 8
ENDMDL
MODEL 3
REMARK VINA RESULT:      -4.3      2.112      6.449
REMARK  Name = 44716179
REMARK  8 active torsions:
REMARK  status: ('A' for Active; 'I' for Inactive)
REMARK    1  A    between atoms: O_2  and  C_24
REMARK    2  A    between atoms: N_4  and  C_16
REMARK    3  A    between atoms: N_5  and  C_19
REMARK    4  A    between atoms: C_10  and  C_16
REMARK    5  A    between atoms: C_11  and  C_17
REMARK    6  A    between atoms: C_19  and  C_21
REMARK    7  A    between atoms: C_20  and  C_22
REMARK    8  A    between atoms: C_22  and  C_24
REMARK                            x       y       z     vdW  Elec       q    Type
REMARK                         _______ _______ _______ _____ _____    ______ ____
ROOT
ATOM      3  N   UNL     1      -3.620  -0.076  25.733  0.00  0.00    -0.297 NA
ATOM      9  C   UNL     1      -2.135  -1.658  24.298  0.00  0.00    +0.005 C 
ATOM     10  C   UNL     1      -4.236  -0.272  24.394  0.00  0.00    +0.078 C 
ATOM     11  C   UNL     1      -1.309  -0.494  24.881  0.00  0.00    +0.092 C 
ATOM     12  C   UNL     1      -3.300  -1.083  23.469  0.00  0.00    +0.025 C 
ATOM     13  C   UNL     1      -2.748  -2.409  25.494  0.00  0.00    +0.020 C 
ATOM     14  C   UNL     1      -2.254   0.488  25.595  0.00  0.00    +0.097 C 
ATOM     15  C   UNL     1      -3.508  -1.406  26.384  0.00  0.00    +0.085 C 
ENDROOT
BRANCH  11  17
ATOM      1  O   UNL     1      -0.852   1.266  23.331  0.00  0.00    -0.275 OA
ATOM      5  N   UNL     1       0.633  -0.520  23.479  0.00  0.00    -0.311 N 
ATOM     17  C   UNL     1      -0.500   0.196  23.822  0.00  0.00    +0.218 C 
ATOM     28  H   UNL     1       0.827  -1.402  23.947  0.00  0.00    +0.149 HD
BRANCH   5  19
ATOM     19  C   UNL     1       1.570  -0.084  22.469  0.00  0.00    +0.141 C 
BRANCH  19  21
ATOM      8  N   UNL     1       4.762  -1.453  23.963  0.00  0.00    -0.263 NA
ATOM     21  C   UNL     1       2.990  -0.158  22.949  0.00  0.00    -0.012 A 
ATOM     23  C   UNL     1       3.841   0.937  22.844  0.00  0.00    +0.008 A 
ATOM     25  C   UNL     1       3.495  -1.320  23.510  0.00  0.00    +0.115 A 
ATOM     26  C   UNL     1       5.151   0.838  23.299  0.00  0.00    +0.020 A 
ATOM     27  C   UNL     1       5.559  -0.368  23.845  0.00  0.00    +0.111 A 
ENDBRANCH  19  21
ENDBRANCH   5  19
ENDBRANCH  11  17
BRANCH  10  16
ATOM     16  C   UNL     1      -4.667   1.047  23.751  0.00  0.00    +0.164 C 
BRANCH  16   4
ATOM      4  N   UNL     1      -4.109   2.230  24.493  0.00  0.00    -0.250 N 
ATOM      6  N   UNL     1      -4.692   2.670  25.620  0.00  0.00    -0.065 NA
ATOM      7  N   UNL     1      -3.991   3.716  26.043  0.00  0.00    -0.134 NA
ATOM     18  C   UNL     1      -3.021   2.979  24.165  0.00  0.00    +0.133 A 
ATOM     20  C   UNL     1      -2.964   3.919  25.163  0.00  0.00    +0.085 A 
BRANCH  20  22
ATOM     22  C   UNL     1      -2.001   5.010  25.353  0.00  0.00    +0.086 C 
BRANCH  22  24
ATOM     24  C   UNL     1      -0.571   4.665  24.893  0.00  0.00    +0.162 C 
BRANCH  24   2
ATOM      2  O   UNL     1      -0.191   3.410  25.445  0.00  0.00    -0.395 OA
ATOM     29  H   UNL     1      -0.312   2.744  24.748  0.00  0.00    +0.209 HD
ENDBRANCH  24   2
ENDBRANCH  22  24
ENDBRANCH  20  22
ENDBRANCH  16   4
ENDBRANCH  10  16
TORSDOF 8
ENDMDL
MODEL 4
REMARK VINA RESULT:      -4.1     17.693     19.853
REMARK  Name = 44716179
REMARK  8 active torsions:
REMARK  status: ('A' for Active; 'I' for Inactive)
REMARK    1  A    between atoms: O_2  and  C_24
REMARK    2  A    between atoms: N_4  and  C_16
REMARK    3  A    between atoms: N_5  and  C_19
REMARK    4  A    between atoms: C_10  and  C_16
REMARK    5  A    between atoms: C_11  and  C_17
REMARK    6  A    between atoms: C_19  and  C_21
REMARK    7  A    between atoms: C_20  and  C_22
REMARK    8  A    between atoms: C_22  and  C_24
REMARK                            x       y       z     vdW  Elec       q    Type
REMARK                         _______ _______ _______ _____ _____    ______ ____
ROOT
ATOM      3  N   UNL     1      13.452  -6.126  32.813  0.00  0.00    -0.297 NA
ATOM      9  C   UNL     1      13.035  -7.051  30.417  0.00  0.00    +0.005 C 
ATOM     10  C   UNL     1      14.188  -5.303  31.816  0.00  0.00    +0.078 C 
ATOM     11  C   UNL     1      13.510  -8.165  31.371  0.00  0.00    +0.092 C 
ATOM     12  C   UNL     1      14.082  -5.921  30.403  0.00  0.00    +0.025 C 
ATOM     13  C   UNL     1      11.742  -6.473  31.020  0.00  0.00    +0.020 C 
ATOM     14  C   UNL     1      13.882  -7.543  32.728  0.00  0.00    +0.097 C 
ATOM     15  C   UNL     1      12.007  -6.060  32.480  0.00  0.00    +0.085 C 
ENDROOT
BRANCH  11  17
ATOM      1  O   UNL     1      15.712  -9.092  31.402  0.00  0.00    -0.275 OA
ATOM      5  N   UNL     1      14.377  -9.418  29.522  0.00  0.00    -0.311 N 
ATOM     17  C   UNL     1      14.657  -8.940  30.791  0.00  0.00    +0.218 C 
ATOM     28  H   UNL     1      13.469  -9.229  29.107  0.00  0.00    +0.149 HD
BRANCH   5  19
ATOM     19  C   UNL     1      15.323 -10.177  28.737  0.00  0.00    +0.141 C 
BRANCH  19  21
ATOM      8  N   UNL     1      16.487  -9.422  25.219  0.00  0.00    -0.263 NA
ATOM     21  C   UNL     1      15.800  -9.411  27.537  0.00  0.00    -0.012 A 
ATOM     23  C   UNL     1      15.999  -8.036  27.597  0.00  0.00    +0.008 A 
ATOM     25  C   UNL     1      16.055 -10.051  26.335  0.00  0.00    +0.115 A 
ATOM     26  C   UNL     1      16.442  -7.354  26.469  0.00  0.00    +0.020 A 
ATOM     27  C   UNL     1      16.669  -8.087  25.316  0.00  0.00    +0.111 A 
ENDBRANCH  19  21
ENDBRANCH   5  19
ENDBRANCH  11  17
BRANCH  10  16
ATOM     16  C   UNL     1      15.642  -5.058  32.222  0.00  0.00    +0.164 C 
BRANCH  16   4
ATOM      4  N   UNL     1      16.159  -3.760  31.665  0.00  0.00    -0.250 N 
ATOM      6  N   UNL     1      16.620  -3.690  30.406  0.00  0.00    -0.065 NA
ATOM      7  N   UNL     1      17.009  -2.436  30.199  0.00  0.00    -0.134 NA
ATOM     18  C   UNL     1      16.239  -2.558  32.298  0.00  0.00    +0.133 A 
ATOM     20  C   UNL     1      16.782  -1.730  31.348  0.00  0.00    +0.085 A 
BRANCH  20  22
ATOM     22  C   UNL     1      17.109  -0.302  31.442  0.00  0.00    +0.086 C 
BRANCH  22  24
ATOM     24  C   UNL     1      16.976   0.273  32.866  0.00  0.00    +0.162 C 
BRANCH  24   2
ATOM      2  O   UNL     1      16.204   1.467  32.819  0.00  0.00    -0.395 OA
ATOM     29  H   UNL     1      15.792   1.573  33.694  0.00  0.00    +0.209 HD
ENDBRANCH  24   2
ENDBRANCH  22  24
ENDBRANCH  20  22
ENDBRANCH  16   4
ENDBRANCH  10  16
TORSDOF 8
ENDMDL
MODEL 5
REMARK VINA RESULT:      -1.9      2.991      6.410
REMARK  Name = 44716179
REMARK  8 active torsions:
REMARK  status: ('A' for Active; 'I' for Inactive)
REMARK    1  A    between atoms: O_2  and  C_24
REMARK    2  A    between atoms: N_4  and  C_16
REMARK    3  A    between atoms: N_5  and  C_19
REMARK    4  A    between atoms: C_10  and  C_16
REMARK    5  A    between atoms: C_11  and  C_17
REMARK    6  A    between atoms: C_19  and  C_21
REMARK    7  A    between atoms: C_20  and  C_22
REMARK    8  A    between atoms: C_22  and  C_24
REMARK                            x       y       z     vdW  Elec       q    Type
REMARK                         _______ _______ _______ _____ _____    ______ ____
ROOT
ATOM      3  N   UNL     1      -3.676  -1.306  25.764  0.00  0.00    -0.297 NA
ATOM      9  C   UNL     1      -2.029  -1.064  23.764  0.00  0.00    +0.005 C 
ATOM     10  C   UNL     1      -4.295  -0.476  24.695  0.00  0.00    +0.078 C 
ATOM     11  C   UNL     1      -1.353  -0.676  25.094  0.00  0.00    +0.092 C 
ATOM     12  C   UNL     1      -3.282  -0.189  23.564  0.00  0.00    +0.025 C 
ATOM     13  C   UNL     1      -2.504  -2.520  23.916  0.00  0.00    +0.020 C 
ATOM     14  C   UNL     1      -2.403  -0.694  26.219  0.00  0.00    +0.097 C 
ATOM     15  C   UNL     1      -3.369  -2.639  25.186  0.00  0.00    +0.085 C 
ENDROOT
BRANCH  11  17
ATOM      1  O   UNL     1      -0.368   1.157  23.922  0.00  0.00    -0.275 OA
ATOM      5  N   UNL     1      -0.427   1.208  26.248  0.00  0.00    -0.311 N 
ATOM     17  C   UNL     1      -0.672   0.658  25.002  0.00  0.00    +0.218 C 
ATOM     28  H   UNL     1      -0.717   0.704  27.082  0.00  0.00    +0.149 HD
BRANCH   5  19
ATOM     19  C   UNL     1       0.238   2.477  26.436  0.00  0.00    +0.141 C 
BRANCH  19  21
ATOM      8  N   UNL     1       0.924   2.293  30.150  0.00  0.00    -0.263 NA
ATOM     21  C   UNL     1       0.969   2.540  27.746  0.00  0.00    -0.012 A 
ATOM     23  C   UNL     1       2.315   2.889  27.800  0.00  0.00    +0.008 A 
ATOM     25  C   UNL     1       0.326   2.253  28.939  0.00  0.00    +0.115 A 
ATOM     26  C   UNL     1       2.965   2.941  29.028  0.00  0.00    +0.020 A 
ATOM     27  C   UNL     1       2.231   2.636  30.163  0.00  0.00    +0.111 A 
ENDBRANCH  19  21
ENDBRANCH   5  19
ENDBRANCH  11  17
BRANCH  10  16
ATOM     16  C   UNL     1      -4.916   0.810  25.242  0.00  0.00    +0.164 C 
BRANCH  16   4
ATOM      4  N   UNL     1      -4.075   2.012  24.913  0.00  0.00    -0.250 N 
ATOM      6  N   UNL     1      -3.854   2.365  23.636  0.00  0.00    -0.065 NA
ATOM      7  N   UNL     1      -3.084   3.447  23.655  0.00  0.00    -0.134 NA
ATOM     18  C   UNL     1      -3.455   2.856  25.782  0.00  0.00    +0.133 A 
ATOM     20  C   UNL     1      -2.831   3.761  24.962  0.00  0.00    +0.085 A 
BRANCH  20  22
ATOM     22  C   UNL     1      -2.000   4.916  25.322  0.00  0.00    +0.086 C 
BRANCH  22  24
ATOM     24  C   UNL     1      -0.795   5.131  24.385  0.00  0.00    +0.162 C 
BRANCH  24   2
ATOM      2  O   UNL     1      -0.390   3.878  23.846  0.00  0.00    -0.395 OA
ATOM     29  H   UNL     1      -1.180   3.313  23.815  0.00  0.00    +0.209 HD
ENDBRANCH  24   2
ENDBRANCH  22  24
ENDBRANCH  20  22
ENDBRANCH  16   4
ENDBRANCH  10  16
TORSDOF 8
ENDMDL
