MODEL 1
REMARK VINA RESULT:       0.3      0.000      0.000
REMARK  Name = 45783567
REMARK  11 active torsions:
REMARK  status: ('A' for Active; 'I' for Inactive)
REMARK    1  A    between atoms: O_2  and  C_28
REMARK    2  A    between atoms: O_2  and  C_30
REMARK    3  A    between atoms: O_4  and  C_31
REMARK    4  A    between atoms: O_4  and  C_32
REMARK    5  A    between atoms: N_5  and  C_14
REMARK    6  A    between atoms: N_8  and  C_22
REMARK    7  A    between atoms: C_10  and  C_15
REMARK    8  A    between atoms: C_14  and  C_16
REMARK    9  A    between atoms: C_19  and  C_23
REMARK   10  A    between atoms: C_27  and  C_29
REMARK   11  A    between atoms: C_30  and  C_31
REMARK                            x       y       z     vdW  Elec       q    Type
REMARK                         _______ _______ _______ _____ _____    ______ ____
ROOT
ATOM      5  N   UNL     1      -4.662  -1.444  23.969  0.00  0.00    -0.287 NA
ATOM     10  C   UNL     1      -3.684  -1.839  25.003  0.00  0.00    +0.146 C 
ATOM     11  C   UNL     1      -3.453  -3.343  24.768  0.00  0.00    +0.030 C 
ATOM     12  C   UNL     1      -4.387  -3.716  23.624  0.00  0.00    +0.017 C 
ATOM     13  C   UNL     1      -5.451  -2.639  23.669  0.00  0.00    +0.085 C 
ENDROOT
BRANCH  10  15
ATOM      1  O   UNL     1      -2.218  -0.107  25.909  0.00  0.00    -0.336 OA
ATOM      6  N   UNL     1      -1.434  -1.091  24.056  0.00  0.00    -0.190 NA
ATOM      7  N   UNL     1      -0.988   0.503  25.635  0.00  0.00    -0.056 NA
ATOM     15  C   UNL     1      -2.405  -1.033  24.932  0.00  0.00    +0.245 A 
ATOM     19  C   UNL     1      -0.587  -0.131  24.529  0.00  0.00    +0.204 A 
BRANCH  19  23
ATOM      9  N   UNL     1       2.490   1.704  23.535  0.00  0.00    -0.221 NA
ATOM     23  C   UNL     1       0.652   0.171  23.873  0.00  0.00    +0.041 A 
ATOM     24  C   UNL     1       1.218  -0.719  22.968  0.00  0.00    +0.018 A 
ATOM     25  C   UNL     1       1.321   1.359  24.119  0.00  0.00    +0.126 A 
ATOM     26  C   UNL     1       2.420  -0.400  22.346  0.00  0.00    +0.068 A 
ATOM     28  C   UNL     1       3.011   0.813  22.661  0.00  0.00    +0.215 A 
BRANCH  28   2
ATOM      2  O   UNL     1       4.195   1.151  22.061  0.00  0.00    -0.474 OA
BRANCH   2  30
ATOM     30  C   UNL     1       5.349   0.427  22.470  0.00  0.00    +0.258 C 
BRANCH  30  31
ATOM     31  C   UNL     1       5.528   0.586  23.968  0.00  0.00    +0.200 C 
BRANCH  31   4
ATOM      4  O   UNL     1       5.719  -0.697  24.552  0.00  0.00    -0.380 OA
ATOM     32  C   UNL     1       4.892  -1.676  23.937  0.00  0.00    +0.194 C 
ENDBRANCH  31   4
ENDBRANCH  30  31
ENDBRANCH   2  30
ENDBRANCH  28   2
ENDBRANCH  19  23
ENDBRANCH  10  15
BRANCH   5  14
ATOM     14  C   UNL     1      -5.500  -0.320  24.370  0.00  0.00    +0.120 C 
BRANCH  14  16
ATOM     16  C   UNL     1      -4.721   0.967  24.422  0.00  0.00    -0.033 A 
ATOM     17  C   UNL     1      -3.801   1.266  23.417  0.00  0.00    +0.007 A 
ATOM     18  C   UNL     1      -4.918   1.861  25.475  0.00  0.00    +0.007 A 
ATOM     20  C   UNL     1      -3.078   2.458  23.464  0.00  0.00    +0.023 A 
ATOM     21  C   UNL     1      -4.195   3.053  25.523  0.00  0.00    +0.023 A 
ATOM     22  C   UNL     1      -3.275   3.351  24.517  0.00  0.00    +0.033 A 
BRANCH  22   8
ATOM      3  O   UNL     1      -0.431   3.883  25.352  0.00  0.00    -0.276 OA
ATOM      8  N   UNL     1      -2.553   4.545  24.566  0.00  0.00    -0.286 N 
ATOM     27  C   UNL     1      -1.224   4.735  24.966  0.00  0.00    +0.214 C 
ATOM     29  C   UNL     1      -0.814   6.184  24.872  0.00  0.00    +0.109 C 
ATOM     33  H   UNL     1      -3.065   5.373  24.271  0.00  0.00    +0.155 HD
ENDBRANCH  22   8
ENDBRANCH  14  16
ENDBRANCH   5  14
TORSDOF 9
ENDMDL
MODEL 2
REMARK VINA RESULT:       0.5      1.798      4.322
REMARK  Name = 45783567
REMARK  11 active torsions:
REMARK  status: ('A' for Active; 'I' for Inactive)
REMARK    1  A    between atoms: O_2  and  C_28
REMARK    2  A    between atoms: O_2  and  C_30
REMARK    3  A    between atoms: O_4  and  C_31
REMARK    4  A    between atoms: O_4  and  C_32
REMARK    5  A    between atoms: N_5  and  C_14
REMARK    6  A    between atoms: N_8  and  C_22
REMARK    7  A    between atoms: C_10  and  C_15
REMARK    8  A    between atoms: C_14  and  C_16
REMARK    9  A    between atoms: C_19  and  C_23
REMARK   10  A    between atoms: C_27  and  C_29
REMARK   11  A    between atoms: C_30  and  C_31
REMARK                            x       y       z     vdW  Elec       q    Type
REMARK                         _______ _______ _______ _____ _____    ______ ____
ROOT
ATOM      5  N   UNL     1      -5.471   2.494  25.389  0.00  0.00    -0.287 NA
ATOM     10  C   UNL     1      -4.571   3.167  24.430  0.00  0.00    +0.146 C 
ATOM     11  C   UNL     1      -4.779   4.671  24.689  0.00  0.00    +0.030 C 
ATOM     12  C   UNL     1      -5.855   4.745  25.764  0.00  0.00    +0.017 C 
ATOM     13  C   UNL     1      -6.577   3.419  25.636  0.00  0.00    +0.085 C 
ENDROOT
BRANCH  10  15
ATOM      1  O   UNL     1      -2.560   2.966  25.805  0.00  0.00    -0.336 OA
ATOM      6  N   UNL     1      -2.325   2.179  23.721  0.00  0.00    -0.190 NA
ATOM      7  N   UNL     1      -1.244   2.498  25.712  0.00  0.00    -0.056 NA
ATOM     15  C   UNL     1      -3.127   2.740  24.591  0.00  0.00    +0.245 A 
ATOM     19  C   UNL     1      -1.182   2.048  24.455  0.00  0.00    +0.204 A 
BRANCH  19  23
ATOM      9  N   UNL     1       2.393   1.590  23.542  0.00  0.00    -0.221 NA
ATOM     23  C   UNL     1       0.006   1.465  23.902  0.00  0.00    +0.041 A 
ATOM     24  C   UNL     1      -0.043   0.260  23.210  0.00  0.00    +0.018 A 
ATOM     25  C   UNL     1       1.238   2.084  24.038  0.00  0.00    +0.126 A 
ATOM     26  C   UNL     1       1.124  -0.281  22.683  0.00  0.00    +0.068 A 
ATOM     28  C   UNL     1       2.306   0.416  22.875  0.00  0.00    +0.215 A 
BRANCH  28   2
ATOM      2  O   UNL     1       3.470  -0.097  22.366  0.00  0.00    -0.474 OA
BRANCH   2  30
ATOM     30  C   UNL     1       4.643   0.693  22.530  0.00  0.00    +0.258 C 
BRANCH  30  31
ATOM     31  C   UNL     1       5.710  -0.142  23.212  0.00  0.00    +0.200 C 
BRANCH  31   4
ATOM      4  O   UNL     1       5.144  -0.778  24.351  0.00  0.00    -0.380 OA
ATOM     32  C   UNL     1       4.647  -2.071  24.032  0.00  0.00    +0.194 C 
ENDBRANCH  31   4
ENDBRANCH  30  31
ENDBRANCH   2  30
ENDBRANCH  28   2
ENDBRANCH  19  23
ENDBRANCH  10  15
BRANCH   5  14
ATOM     14  C   UNL     1      -5.938   1.194  24.922  0.00  0.00    +0.120 C 
BRANCH  14  16
ATOM     16  C   UNL     1      -4.835   0.169  24.927  0.00  0.00    -0.033 A 
ATOM     17  C   UNL     1      -4.515  -0.517  23.755  0.00  0.00    +0.007 A 
ATOM     18  C   UNL     1      -4.133  -0.097  26.103  0.00  0.00    +0.007 A 
ATOM     20  C   UNL     1      -3.494  -1.467  23.759  0.00  0.00    +0.023 A 
ATOM     21  C   UNL     1      -3.113  -1.048  26.108  0.00  0.00    +0.023 A 
ATOM     22  C   UNL     1      -2.794  -1.733  24.935  0.00  0.00    +0.033 A 
BRANCH  22   8
ATOM      3  O   UNL     1       0.075  -1.516  25.823  0.00  0.00    -0.276 OA
ATOM      8  N   UNL     1      -1.772  -2.684  24.940  0.00  0.00    -0.286 N 
ATOM     27  C   UNL     1      -0.447  -2.527  25.366  0.00  0.00    +0.214 C 
ATOM     29  C   UNL     1       0.345  -3.801  25.209  0.00  0.00    +0.109 C 
ATOM     33  H   UNL     1      -2.033  -3.602  24.588  0.00  0.00    +0.155 HD
ENDBRANCH  22   8
ENDBRANCH  14  16
ENDBRANCH   5  14
TORSDOF 9
ENDMDL
MODEL 3
REMARK VINA RESULT:       2.4      2.105      3.500
REMARK  Name = 45783567
REMARK  11 active torsions:
REMARK  status: ('A' for Active; 'I' for Inactive)
REMARK    1  A    between atoms: O_2  and  C_28
REMARK    2  A    between atoms: O_2  and  C_30
REMARK    3  A    between atoms: O_4  and  C_31
REMARK    4  A    between atoms: O_4  and  C_32
REMARK    5  A    between atoms: N_5  and  C_14
REMARK    6  A    between atoms: N_8  and  C_22
REMARK    7  A    between atoms: C_10  and  C_15
REMARK    8  A    between atoms: C_14  and  C_16
REMARK    9  A    between atoms: C_19  and  C_23
REMARK   10  A    between atoms: C_27  and  C_29
REMARK   11  A    between atoms: C_30  and  C_31
REMARK                            x       y       z     vdW  Elec       q    Type
REMARK                         _______ _______ _______ _____ _____    ______ ____
ROOT
ATOM      5  N   UNL     1      -4.473   2.902  24.569  0.00  0.00    -0.287 NA
ATOM     10  C   UNL     1      -4.111   1.721  25.378  0.00  0.00    +0.146 C 
ATOM     11  C   UNL     1      -5.386   0.858  25.403  0.00  0.00    +0.030 C 
ATOM     12  C   UNL     1      -6.426   1.662  24.635  0.00  0.00    +0.017 C 
ATOM     13  C   UNL     1      -5.915   3.086  24.730  0.00  0.00    +0.085 C 
ENDROOT
BRANCH  10  15
ATOM      1  O   UNL     1      -3.008  -0.376  24.779  0.00  0.00    -0.336 OA
ATOM      6  N   UNL     1      -1.781   1.452  24.369  0.00  0.00    -0.190 NA
ATOM      7  N   UNL     1      -1.800  -0.832  24.237  0.00  0.00    -0.056 NA
ATOM     15  C   UNL     1      -2.914   0.979  24.822  0.00  0.00    +0.245 A 
ATOM     19  C   UNL     1      -1.130   0.304  24.021  0.00  0.00    +0.204 A 
BRANCH  19  23
ATOM      9  N   UNL     1       2.411   1.280  23.444  0.00  0.00    -0.221 NA
ATOM     23  C   UNL     1       0.190   0.326  23.460  0.00  0.00    +0.041 A 
ATOM     24  C   UNL     1       0.544  -0.534  22.427  0.00  0.00    +0.018 A 
ATOM     25  C   UNL     1       1.152   1.207  23.928  0.00  0.00    +0.126 A 
ATOM     26  C   UNL     1       1.830  -0.489  21.901  0.00  0.00    +0.068 A 
ATOM     28  C   UNL     1       2.719   0.428  22.440  0.00  0.00    +0.215 A 
BRANCH  28   2
ATOM      2  O   UNL     1       3.992   0.492  21.938  0.00  0.00    -0.474 OA
BRANCH   2  30
ATOM     30  C   UNL     1       5.005   0.956  22.824  0.00  0.00    +0.258 C 
BRANCH  30  31
ATOM     31  C   UNL     1       5.862  -0.219  23.255  0.00  0.00    +0.200 C 
BRANCH  31   4
ATOM      4  O   UNL     1       5.262  -0.840  24.386  0.00  0.00    -0.380 OA
ATOM     32  C   UNL     1       4.511  -1.986  24.011  0.00  0.00    +0.194 C 
ENDBRANCH  31   4
ENDBRANCH  30  31
ENDBRANCH   2  30
ENDBRANCH  28   2
ENDBRANCH  19  23
ENDBRANCH  10  15
BRANCH   5  14
ATOM     14  C   UNL     1      -3.724   4.099  24.933  0.00  0.00    +0.120 C 
BRANCH  14  16
ATOM     16  C   UNL     1      -2.405   3.759  25.576  0.00  0.00    -0.033 A 
ATOM     17  C   UNL     1      -2.376   3.202  26.854  0.00  0.00    +0.007 A 
ATOM     18  C   UNL     1      -1.213   4.005  24.895  0.00  0.00    +0.007 A 
ATOM     20  C   UNL     1      -1.154   2.888  27.450  0.00  0.00    +0.023 A 
ATOM     21  C   UNL     1       0.008   3.692  25.491  0.00  0.00    +0.023 A 
ATOM     22  C   UNL     1       0.037   3.133  26.769  0.00  0.00    +0.033 A 
BRANCH  22   8
ATOM      3  O   UNL     1       0.767   2.785  29.670  0.00  0.00    -0.276 OA
ATOM      8  N   UNL     1       1.260   2.820  27.365  0.00  0.00    -0.286 N 
ATOM     27  C   UNL     1       1.544   2.671  28.729  0.00  0.00    +0.214 C 
ATOM     29  C   UNL     1       2.995   2.327  28.963  0.00  0.00    +0.109 C 
ATOM     33  H   UNL     1       2.035   2.685  26.719  0.00  0.00    +0.155 HD
ENDBRANCH  22   8
ENDBRANCH  14  16
ENDBRANCH   5  14
TORSDOF 9
ENDMDL
