MODEL 1
REMARK VINA RESULT:       1.1      0.000      0.000
REMARK  Name = 45784044
REMARK  11 active torsions:
REMARK  status: ('A' for Active; 'I' for Inactive)
REMARK    1  A    between atoms: N_3  and  C_14
REMARK    2  A    between atoms: N_7  and  C_32
REMARK    3  A    between atoms: C_9  and  C_13
REMARK    4  A    between atoms: C_10  and  C_14
REMARK    5  A    between atoms: C_12  and  C_17
REMARK    6  A    between atoms: C_13  and  C_18
REMARK    7  A    between atoms: C_13  and  C_19
REMARK    8  A    between atoms: C_16  and  C_22
REMARK    9  A    between atoms: C_17  and  C_25
REMARK   10  A    between atoms: C_26  and  C_28
REMARK   11  A    between atoms: C_27  and  C_29
REMARK                            x       y       z     vdW  Elec       q    Type
REMARK                         _______ _______ _______ _____ _____    ______ ____
ROOT
ATOM      9  C   UNL     1      -1.332   3.656  23.425  0.00  0.00    +0.000 C 
ATOM     10  C   UNL     1      -0.774   2.784  24.572  0.00  0.00    +0.029 C 
ATOM     11  C   UNL     1      -2.865   3.695  23.476  0.00  0.00    +0.012 C 
ATOM     12  C   UNL     1      -3.420   4.205  24.823  0.00  0.00    +0.024 C 
ATOM     15  C   UNL     1      -1.461   3.048  25.888  0.00  0.00    -0.023 C 
ATOM     16  C   UNL     1      -2.635   3.691  26.022  0.00  0.00    -0.073 C 
ATOM     22  C   UNL     1      -3.190   3.979  27.390  0.00  0.00    +0.039 C 
ENDROOT
BRANCH   9  13
ATOM     13  C   UNL     1      -0.739   5.070  23.458  0.00  0.00    -0.013 C 
ATOM     18  C   UNL     1       0.546   5.128  22.636  0.00  0.00    +0.007 C 
ATOM     19  C   UNL     1      -0.480   5.507  24.896  0.00  0.00    +0.007 C 
ENDBRANCH   9  13
BRANCH  10  14
ATOM     14  C   UNL     1      -0.869   1.289  24.246  0.00  0.00    +0.092 C 
BRANCH  14   3
ATOM      2  O   UNL     1       4.470  -1.886  23.670  0.00  0.00    -0.276 OA
ATOM      3  N   UNL     1       0.315   0.844  23.513  0.00  0.00    -0.299 NA
ATOM      4  N   UNL     1       2.990  -0.147  23.244  0.00  0.00    -0.299 N 
ATOM     20  C   UNL     1       0.628  -0.555  23.838  0.00  0.00    +0.103 C 
ATOM     21  C   UNL     1       1.464   1.711  23.814  0.00  0.00    +0.103 C 
ATOM     23  C   UNL     1       1.845  -1.035  23.048  0.00  0.00    +0.123 C 
ATOM     24  C   UNL     1       2.701   1.274  23.028  0.00  0.00    +0.123 C 
ATOM     26  C   UNL     1       4.252  -0.686  23.490  0.00  0.00    +0.213 C 
ATOM     28  C   UNL     1       5.402   0.288  23.539  0.00  0.00    +0.109 C 
ENDBRANCH  14   3
ENDBRANCH  10  14
BRANCH  12  17
ATOM     17  C   UNL     1      -4.913   3.866  24.898  0.00  0.00    +0.105 C 
BRANCH  17  25
ATOM      1  O   UNL     1      -4.222   1.544  24.605  0.00  0.00    -0.419 OA
ATOM      5  N   UNL     1      -6.085   1.799  25.817  0.00  0.00    -0.112 NA
ATOM      6  N   UNL     1      -5.812   0.446  25.731  0.00  0.00    -0.106 NA
ATOM     25  C   UNL     1      -5.131   2.401  25.146  0.00  0.00    +0.218 A 
ATOM     27  C   UNL     1      -4.717   0.345  25.015  0.00  0.00    +0.266 A 
BRANCH  27  29
ATOM      7  N   UNL     1      -2.980  -1.384  25.295  0.00  0.00    -0.329 N 
ATOM      8  N   UNL     1      -3.587  -2.907  23.797  0.00  0.00    -0.243 NA
ATOM     29  C   UNL     1      -4.107  -0.894  24.698  0.00  0.00    +0.125 A 
ATOM     30  C   UNL     1      -4.463  -1.850  23.777  0.00  0.00    +0.143 A 
ATOM     31  C   UNL     1      -2.707  -2.595  24.722  0.00  0.00    +0.199 A 
ATOM     32  C   UNL     1      -2.203  -0.761  26.342  0.00  0.00    +0.150 C 
ENDBRANCH  27  29
ENDBRANCH  17  25
ENDBRANCH  12  17
TORSDOF 6
ENDMDL
MODEL 2
REMARK VINA RESULT:       3.1      1.788      4.686
REMARK  Name = 45784044
REMARK  11 active torsions:
REMARK  status: ('A' for Active; 'I' for Inactive)
REMARK    1  A    between atoms: N_3  and  C_14
REMARK    2  A    between atoms: N_7  and  C_32
REMARK    3  A    between atoms: C_9  and  C_13
REMARK    4  A    between atoms: C_10  and  C_14
REMARK    5  A    between atoms: C_12  and  C_17
REMARK    6  A    between atoms: C_13  and  C_18
REMARK    7  A    between atoms: C_13  and  C_19
REMARK    8  A    between atoms: C_16  and  C_22
REMARK    9  A    between atoms: C_17  and  C_25
REMARK   10  A    between atoms: C_26  and  C_28
REMARK   11  A    between atoms: C_27  and  C_29
REMARK                            x       y       z     vdW  Elec       q    Type
REMARK                         _______ _______ _______ _____ _____    ______ ____
ROOT
ATOM      9  C   UNL     1      -1.372  -0.143  25.623  0.00  0.00    +0.000 C 
ATOM     10  C   UNL     1      -1.113  -0.547  24.153  0.00  0.00    +0.029 C 
ATOM     11  C   UNL     1      -2.775   0.459  25.777  0.00  0.00    +0.012 C 
ATOM     12  C   UNL     1      -3.900  -0.483  25.299  0.00  0.00    +0.024 C 
ATOM     15  C   UNL     1      -2.291  -1.253  23.531  0.00  0.00    -0.023 C 
ATOM     16  C   UNL     1      -3.539  -1.247  24.034  0.00  0.00    -0.073 C 
ATOM     22  C   UNL     1      -4.624  -2.059  23.379  0.00  0.00    +0.039 C 
ENDROOT
BRANCH   9  13
ATOM     13  C   UNL     1      -1.169  -1.330  26.573  0.00  0.00    -0.013 C 
ATOM     18  C   UNL     1      -0.456  -2.472  25.855  0.00  0.00    +0.007 C 
ATOM     19  C   UNL     1      -2.508  -1.799  27.135  0.00  0.00    +0.007 C 
ENDBRANCH   9  13
BRANCH  10  14
ATOM     14  C   UNL     1      -0.739   0.664  23.290  0.00  0.00    +0.092 C 
BRANCH  14   3
ATOM      2  O   UNL     1       5.099  -1.511  23.611  0.00  0.00    -0.276 OA
ATOM      3  N   UNL     1       0.645   0.562  22.831  0.00  0.00    -0.299 NA
ATOM      4  N   UNL     1       3.450   0.047  23.114  0.00  0.00    -0.299 N 
ATOM     20  C   UNL     1       1.140  -0.814  22.982  0.00  0.00    +0.103 C 
ATOM     21  C   UNL     1       1.504   1.501  23.569  0.00  0.00    +0.103 C 
ATOM     23  C   UNL     1       2.575  -0.933  22.472  0.00  0.00    +0.123 C 
ATOM     24  C   UNL     1       2.950   1.425  23.076  0.00  0.00    +0.123 C 
ATOM     26  C   UNL     1       4.701  -0.344  23.589  0.00  0.00    +0.213 C 
ATOM     28  C   UNL     1       5.598   0.752  24.106  0.00  0.00    +0.109 C 
ENDBRANCH  14   3
ENDBRANCH  10  14
BRANCH  12  17
ATOM     17  C   UNL     1      -5.192   0.331  25.156  0.00  0.00    +0.105 C 
BRANCH  17  25
ATOM      1  O   UNL     1      -3.656   2.218  24.973  0.00  0.00    -0.419 OA
ATOM      5  N   UNL     1      -5.739   2.787  25.556  0.00  0.00    -0.112 NA
ATOM      6  N   UNL     1      -4.983   3.942  25.491  0.00  0.00    -0.106 NA
ATOM     25  C   UNL     1      -4.924   1.806  25.246  0.00  0.00    +0.218 A 
ATOM     27  C   UNL     1      -3.774   3.562  25.147  0.00  0.00    +0.266 A 
BRANCH  27  29
ATOM      7  N   UNL     1      -1.409   4.225  25.369  0.00  0.00    -0.329 N 
ATOM      8  N   UNL     1      -1.400   6.246  24.448  0.00  0.00    -0.243 NA
ATOM     29  C   UNL     1      -2.695   4.464  24.975  0.00  0.00    +0.125 A 
ATOM     30  C   UNL     1      -2.665   5.716  24.411  0.00  0.00    +0.143 A 
ATOM     31  C   UNL     1      -0.667   5.323  25.032  0.00  0.00    +0.199 A 
ATOM     32  C   UNL     1      -0.899   3.042  26.021  0.00  0.00    +0.150 C 
ENDBRANCH  27  29
ENDBRANCH  17  25
ENDBRANCH  12  17
TORSDOF 6
ENDMDL
MODEL 3
REMARK VINA RESULT:       4.2      2.134      7.002
REMARK  Name = 45784044
REMARK  11 active torsions:
REMARK  status: ('A' for Active; 'I' for Inactive)
REMARK    1  A    between atoms: N_3  and  C_14
REMARK    2  A    between atoms: N_7  and  C_32
REMARK    3  A    between atoms: C_9  and  C_13
REMARK    4  A    between atoms: C_10  and  C_14
REMARK    5  A    between atoms: C_12  and  C_17
REMARK    6  A    between atoms: C_13  and  C_18
REMARK    7  A    between atoms: C_13  and  C_19
REMARK    8  A    between atoms: C_16  and  C_22
REMARK    9  A    between atoms: C_17  and  C_25
REMARK   10  A    between atoms: C_26  and  C_28
REMARK   11  A    between atoms: C_27  and  C_29
REMARK                            x       y       z     vdW  Elec       q    Type
REMARK                         _______ _______ _______ _____ _____    ______ ____
ROOT
ATOM      9  C   UNL     1      -3.888  -1.129  24.229  0.00  0.00    +0.000 C 
ATOM     10  C   UNL     1      -4.306  -0.148  25.348  0.00  0.00    +0.029 C 
ATOM     11  C   UNL     1      -2.881  -0.465  23.280  0.00  0.00    +0.012 C 
ATOM     12  C   UNL     1      -1.620   0.062  23.997  0.00  0.00    +0.024 C 
ATOM     15  C   UNL     1      -3.134   0.605  25.926  0.00  0.00    -0.023 C 
ATOM     16  C   UNL     1      -1.924   0.700  25.344  0.00  0.00    -0.073 C 
ATOM     22  C   UNL     1      -0.797   1.404  26.050  0.00  0.00    +0.039 C 
ENDROOT
BRANCH   9  13
ATOM     13  C   UNL     1      -3.327  -2.434  24.809  0.00  0.00    -0.013 C 
ATOM     18  C   UNL     1      -1.827  -2.531  24.548  0.00  0.00    +0.007 C 
ATOM     19  C   UNL     1      -4.056  -3.637  24.220  0.00  0.00    +0.007 C 
ENDBRANCH   9  13
BRANCH  10  14
ATOM     14  C   UNL     1      -5.358   0.854  24.860  0.00  0.00    +0.092 C 
BRANCH  14   3
ATOM      2  O   UNL     1      -0.616   4.596  23.301  0.00  0.00    -0.276 OA
ATOM      3  N   UNL     1      -4.750   2.161  24.614  0.00  0.00    -0.299 NA
ATOM      4  N   UNL     1      -2.584   4.024  24.394  0.00  0.00    -0.299 N 
ATOM     20  C   UNL     1      -3.818   2.091  23.479  0.00  0.00    +0.103 C 
ATOM     21  C   UNL     1      -4.058   2.643  25.818  0.00  0.00    +0.103 C 
ATOM     23  C   UNL     1      -3.206   3.462  23.196  0.00  0.00    +0.123 C 
ATOM     24  C   UNL     1      -3.444   4.024  25.581  0.00  0.00    +0.123 C 
ATOM     26  C   UNL     1      -1.322   4.610  24.312  0.00  0.00    +0.213 C 
ATOM     28  C   UNL     1      -0.814   5.293  25.557  0.00  0.00    +0.109 C 
ENDBRANCH  14   3
ENDBRANCH  10  14
BRANCH  12  17
ATOM     17  C   UNL     1      -0.874   1.004  23.045  0.00  0.00    +0.105 C 
BRANCH  17  25
ATOM      1  O   UNL     1       1.530   0.765  23.395  0.00  0.00    -0.419 OA
ATOM      5  N   UNL     1       0.745  -0.360  21.627  0.00  0.00    -0.112 NA
ATOM      6  N   UNL     1       2.108  -0.582  21.705  0.00  0.00    -0.106 NA
ATOM     25  C   UNL     1       0.452   0.431  22.633  0.00  0.00    +0.218 A 
ATOM     27  C   UNL     1       2.523   0.094  22.751  0.00  0.00    +0.266 A 
BRANCH  27  29
ATOM      7  N   UNL     1       4.540  -0.928  23.736  0.00  0.00    -0.329 N 
ATOM      8  N   UNL     1       6.005   0.738  23.641  0.00  0.00    -0.243 NA
ATOM     29  C   UNL     1       3.876   0.123  23.171  0.00  0.00    +0.125 A 
ATOM     30  C   UNL     1       4.799   1.140  23.124  0.00  0.00    +0.143 A 
ATOM     31  C   UNL     1       5.815  -0.513  24.000  0.00  0.00    +0.199 A 
ATOM     32  C   UNL     1       4.018  -2.247  24.011  0.00  0.00    +0.150 C 
ENDBRANCH  27  29
ENDBRANCH  17  25
ENDBRANCH  12  17
TORSDOF 6
ENDMDL
MODEL 4
REMARK VINA RESULT:       4.5      1.711      6.413
REMARK  Name = 45784044
REMARK  11 active torsions:
REMARK  status: ('A' for Active; 'I' for Inactive)
REMARK    1  A    between atoms: N_3  and  C_14
REMARK    2  A    between atoms: N_7  and  C_32
REMARK    3  A    between atoms: C_9  and  C_13
REMARK    4  A    between atoms: C_10  and  C_14
REMARK    5  A    between atoms: C_12  and  C_17
REMARK    6  A    between atoms: C_13  and  C_18
REMARK    7  A    between atoms: C_13  and  C_19
REMARK    8  A    between atoms: C_16  and  C_22
REMARK    9  A    between atoms: C_17  and  C_25
REMARK   10  A    between atoms: C_26  and  C_28
REMARK   11  A    between atoms: C_27  and  C_29
REMARK                            x       y       z     vdW  Elec       q    Type
REMARK                         _______ _______ _______ _____ _____    ______ ____
ROOT
ATOM      9  C   UNL     1      -2.344   3.929  25.345  0.00  0.00    +0.000 C 
ATOM     10  C   UNL     1      -3.779   3.725  24.806  0.00  0.00    +0.029 C 
ATOM     11  C   UNL     1      -1.598   2.590  25.407  0.00  0.00    +0.012 C 
ATOM     12  C   UNL     1      -1.536   1.859  24.049  0.00  0.00    +0.024 C 
ATOM     15  C   UNL     1      -3.826   2.799  23.618  0.00  0.00    -0.023 C 
ATOM     16  C   UNL     1      -2.830   1.968  23.256  0.00  0.00    -0.073 C 
ATOM     22  C   UNL     1      -2.947   1.148  21.999  0.00  0.00    +0.039 C 
ENDROOT
BRANCH   9  13
ATOM     13  C   UNL     1      -1.573   4.956  24.506  0.00  0.00    -0.013 C 
ATOM     18  C   UNL     1      -0.073   4.691  24.586  0.00  0.00    +0.007 C 
ATOM     19  C   UNL     1      -1.896   6.373  24.968  0.00  0.00    +0.007 C 
ENDBRANCH   9  13
BRANCH  10  14
ATOM     14  C   UNL     1      -4.723   3.197  25.893  0.00  0.00    +0.092 C 
BRANCH  14   3
ATOM      2  O   UNL     1      -2.629  -2.505  24.476  0.00  0.00    -0.276 OA
ATOM      3  N   UNL     1      -4.846   1.743  25.807  0.00  0.00    -0.299 NA
ATOM      4  N   UNL     1      -4.243  -0.864  24.784  0.00  0.00    -0.299 N 
ATOM     20  C   UNL     1      -3.564   1.096  26.122  0.00  0.00    +0.103 C 
ATOM     21  C   UNL     1      -5.310   1.343  24.470  0.00  0.00    +0.103 C 
ATOM     23  C   UNL     1      -3.697  -0.424  26.067  0.00  0.00    +0.123 C 
ATOM     24  C   UNL     1      -5.472  -0.175  24.379  0.00  0.00    +0.123 C 
ATOM     26  C   UNL     1      -3.665  -1.942  24.116  0.00  0.00    +0.213 C 
ATOM     28  C   UNL     1      -4.372  -2.423  22.874  0.00  0.00    +0.109 C 
ENDBRANCH  14   3
ENDBRANCH  10  14
BRANCH  12  17
ATOM     17  C   UNL     1      -1.106   0.408  24.292  0.00  0.00    +0.105 C 
BRANCH  17  25
ATOM      1  O   UNL     1       1.306   0.067  24.151  0.00  0.00    -0.419 OA
ATOM      5  N   UNL     1       0.220  -0.269  22.225  0.00  0.00    -0.112 NA
ATOM      6  N   UNL     1       1.566  -0.494  22.001  0.00  0.00    -0.106 NA
ATOM     25  C   UNL     1       0.115   0.056  23.492  0.00  0.00    +0.218 A 
ATOM     27  C   UNL     1       2.161  -0.286  23.153  0.00  0.00    +0.266 A 
BRANCH  27  29
ATOM      7  N   UNL     1       4.481   0.541  23.021  0.00  0.00    -0.329 N 
ATOM      8  N   UNL     1       5.635  -1.164  23.854  0.00  0.00    -0.243 NA
ATOM     29  C   UNL     1       3.559  -0.416  23.341  0.00  0.00    +0.125 A 
ATOM     30  C   UNL     1       4.294  -1.458  23.852  0.00  0.00    +0.143 A 
ATOM     31  C   UNL     1       5.713   0.047  23.347  0.00  0.00    +0.199 A 
ATOM     32  C   UNL     1       4.229   1.842  22.445  0.00  0.00    +0.150 C 
ENDBRANCH  27  29
ENDBRANCH  17  25
ENDBRANCH  12  17
TORSDOF 6
ENDMDL
MODEL 5
REMARK VINA RESULT:       4.5      2.080      5.526
REMARK  Name = 45784044
REMARK  11 active torsions:
REMARK  status: ('A' for Active; 'I' for Inactive)
REMARK    1  A    between atoms: N_3  and  C_14
REMARK    2  A    between atoms: N_7  and  C_32
REMARK    3  A    between atoms: C_9  and  C_13
REMARK    4  A    between atoms: C_10  and  C_14
REMARK    5  A    between atoms: C_12  and  C_17
REMARK    6  A    between atoms: C_13  and  C_18
REMARK    7  A    between atoms: C_13  and  C_19
REMARK    8  A    between atoms: C_16  and  C_22
REMARK    9  A    between atoms: C_17  and  C_25
REMARK   10  A    between atoms: C_26  and  C_28
REMARK   11  A    between atoms: C_27  and  C_29
REMARK                            x       y       z     vdW  Elec       q    Type
REMARK                         _______ _______ _______ _____ _____    ______ ____
ROOT
ATOM      9  C   UNL     1      -4.229   2.767  25.106  0.00  0.00    +0.000 C 
ATOM     10  C   UNL     1      -4.100   3.641  23.837  0.00  0.00    +0.029 C 
ATOM     11  C   UNL     1      -2.843   2.452  25.685  0.00  0.00    +0.012 C 
ATOM     12  C   UNL     1      -2.015   3.712  26.012  0.00  0.00    +0.024 C 
ATOM     15  C   UNL     1      -3.098   4.755  24.000  0.00  0.00    -0.023 C 
ATOM     16  C   UNL     1      -2.168   4.811  24.971  0.00  0.00    -0.073 C 
ATOM     22  C   UNL     1      -1.272   6.014  25.094  0.00  0.00    +0.039 C 
ENDROOT
BRANCH   9  13
ATOM     13  C   UNL     1      -5.130   3.433  26.155  0.00  0.00    -0.013 C 
ATOM     18  C   UNL     1      -6.105   2.417  26.742  0.00  0.00    +0.007 C 
ATOM     19  C   UNL     1      -5.881   4.611  25.542  0.00  0.00    +0.007 C 
ENDBRANCH   9  13
BRANCH  10  14
ATOM     14  C   UNL     1      -3.727   2.804  22.608  0.00  0.00    +0.092 C 
BRANCH  14   3
ATOM      2  O   UNL     1      -3.587  -2.207  26.321  0.00  0.00    -0.276 OA
ATOM      3  N   UNL     1      -3.890   1.378  22.887  0.00  0.00    -0.299 NA
ATOM      4  N   UNL     1      -3.421  -1.067  24.305  0.00  0.00    -0.299 N 
ATOM     20  C   UNL     1      -4.452   1.174  24.230  0.00  0.00    +0.103 C 
ATOM     21  C   UNL     1      -2.604   0.677  22.755  0.00  0.00    +0.103 C 
ATOM     23  C   UNL     1      -4.656  -0.313  24.512  0.00  0.00    +0.123 C 
ATOM     24  C   UNL     1      -2.768  -0.822  23.014  0.00  0.00    +0.123 C 
ATOM     26  C   UNL     1      -3.022  -2.020  25.242  0.00  0.00    +0.213 C 
ATOM     28  C   UNL     1      -1.817  -2.854  24.884  0.00  0.00    +0.109 C 
ENDBRANCH  14   3
ENDBRANCH  10  14
BRANCH  12  17
ATOM     17  C   UNL     1      -0.555   3.296  26.230  0.00  0.00    +0.105 C 
BRANCH  17  25
ATOM      1  O   UNL     1       0.416   2.035  24.381  0.00  0.00    -0.419 OA
ATOM      5  N   UNL     1      -0.541   0.764  25.953  0.00  0.00    -0.112 NA
ATOM      6  N   UNL     1      -0.038  -0.074  24.975  0.00  0.00    -0.106 NA
ATOM     25  C   UNL     1      -0.254   1.984  25.565  0.00  0.00    +0.218 A 
ATOM     27  C   UNL     1       0.512   0.712  24.078  0.00  0.00    +0.266 A 
BRANCH  27  29
ATOM      7  N   UNL     1       2.471   0.383  22.616  0.00  0.00    -0.329 N 
ATOM      8  N   UNL     1       1.598  -0.737  20.908  0.00  0.00    -0.243 NA
ATOM     29  C   UNL     1       1.144   0.229  22.906  0.00  0.00    +0.125 A 
ATOM     30  C   UNL     1       0.627  -0.463  21.838  0.00  0.00    +0.143 A 
ATOM     31  C   UNL     1       2.697  -0.214  21.407  0.00  0.00    +0.199 A 
ATOM     32  C   UNL     1       3.472   1.045  23.420  0.00  0.00    +0.150 C 
ENDBRANCH  27  29
ENDBRANCH  17  25
ENDBRANCH  12  17
TORSDOF 6
ENDMDL
MODEL 6
REMARK VINA RESULT:       5.0      2.081      5.381
REMARK  Name = 45784044
REMARK  11 active torsions:
REMARK  status: ('A' for Active; 'I' for Inactive)
REMARK    1  A    between atoms: N_3  and  C_14
REMARK    2  A    between atoms: N_7  and  C_32
REMARK    3  A    between atoms: C_9  and  C_13
REMARK    4  A    between atoms: C_10  and  C_14
REMARK    5  A    between atoms: C_12  and  C_17
REMARK    6  A    between atoms: C_13  and  C_18
REMARK    7  A    between atoms: C_13  and  C_19
REMARK    8  A    between atoms: C_16  and  C_22
REMARK    9  A    between atoms: C_17  and  C_25
REMARK   10  A    between atoms: C_26  and  C_28
REMARK   11  A    between atoms: C_27  and  C_29
REMARK                            x       y       z     vdW  Elec       q    Type
REMARK                         _______ _______ _______ _____ _____    ______ ____
ROOT
ATOM      9  C   UNL     1      -4.226   2.729  25.426  0.00  0.00    +0.000 C 
ATOM     10  C   UNL     1      -4.527   2.972  23.929  0.00  0.00    +0.029 C 
ATOM     11  C   UNL     1      -2.785   3.138  25.759  0.00  0.00    +0.012 C 
ATOM     12  C   UNL     1      -2.467   4.606  25.404  0.00  0.00    +0.024 C 
ATOM     15  C   UNL     1      -4.005   4.300  23.442  0.00  0.00    -0.023 C 
ATOM     16  C   UNL     1      -3.096   5.050  24.092  0.00  0.00    -0.073 C 
ATOM     22  C   UNL     1      -2.709   6.403  23.559  0.00  0.00    +0.039 C 
ENDROOT
BRANCH   9  13
ATOM     13  C   UNL     1      -5.232   3.461  26.324  0.00  0.00    -0.013 C 
ATOM     18  C   UNL     1      -6.239   2.475  26.909  0.00  0.00    +0.007 C 
ATOM     19  C   UNL     1      -5.944   4.560  25.543  0.00  0.00    +0.007 C 
ENDBRANCH   9  13
BRANCH  10  14
ATOM     14  C   UNL     1      -3.958   1.854  23.048  0.00  0.00    +0.092 C 
BRANCH  14   3
ATOM      2  O   UNL     1      -0.587  -2.924  25.222  0.00  0.00    -0.276 OA
ATOM      3  N   UNL     1      -3.776   0.628  23.824  0.00  0.00    -0.299 NA
ATOM      4  N   UNL     1      -2.522  -1.855  24.511  0.00  0.00    -0.299 N 
ATOM     20  C   UNL     1      -2.451   0.612  24.461  0.00  0.00    +0.103 C 
ATOM     21  C   UNL     1      -3.948  -0.555  22.967  0.00  0.00    +0.103 C 
ATOM     23  C   UNL     1      -2.270  -0.651  25.301  0.00  0.00    +0.123 C 
ATOM     24  C   UNL     1      -3.791  -1.844  23.775  0.00  0.00    +0.123 C 
ATOM     26  C   UNL     1      -1.649  -2.939  24.596  0.00  0.00    +0.213 C 
ATOM     28  C   UNL     1      -2.057  -4.192  23.863  0.00  0.00    +0.109 C 
ENDBRANCH  14   3
ENDBRANCH  10  14
BRANCH  12  17
ATOM     17  C   UNL     1      -0.947   4.798  25.433  0.00  0.00    +0.105 C 
BRANCH  17  25
ATOM      1  O   UNL     1      -0.109   2.958  24.067  0.00  0.00    -0.419 OA
ATOM      5  N   UNL     1       0.325   2.748  26.252  0.00  0.00    -0.112 NA
ATOM      6  N   UNL     1       0.851   1.645  25.603  0.00  0.00    -0.106 NA
ATOM     25  C   UNL     1      -0.225   3.486  25.316  0.00  0.00    +0.218 A 
ATOM     27  C   UNL     1       0.574   1.811  24.331  0.00  0.00    +0.266 A 
BRANCH  27  29
ATOM      7  N   UNL     1       2.210   0.751  22.820  0.00  0.00    -0.329 N 
ATOM      8  N   UNL     1       0.964  -0.747  21.754  0.00  0.00    -0.243 NA
ATOM     29  C   UNL     1       0.948   0.884  23.327  0.00  0.00    +0.125 A 
ATOM     30  C   UNL     1       0.197  -0.049  22.654  0.00  0.00    +0.143 A 
ATOM     31  C   UNL     1       2.171  -0.240  21.879  0.00  0.00    +0.199 A 
ATOM     32  C   UNL     1       3.386   1.503  23.192  0.00  0.00    +0.150 C 
ENDBRANCH  27  29
ENDBRANCH  17  25
ENDBRANCH  12  17
TORSDOF 6
ENDMDL
