MODEL 1
REMARK VINA RESULT:       0.2      0.000      0.000
REMARK  Name = 7051829
REMARK  4 active torsions:
REMARK  status: ('A' for Active; 'I' for Inactive)
REMARK    1  A    between atoms: N_2  and  C_13
REMARK    2  A    between atoms: C_13  and  C_18
REMARK    3  A    between atoms: C_14  and  C_19
REMARK    4  A    between atoms: C_24  and  C_29
REMARK                            x       y       z     vdW  Elec       q    Type
REMARK                         _______ _______ _______ _____ _____    ______ ____
ROOT
ATOM      1  O   UNL     1      -2.475   4.591  27.282  0.00  0.00    -0.268 OA
ATOM      2  N   UNL     1      -4.242   1.027  24.278  0.00  0.00    -0.297 NA
ATOM      3  N   UNL     1      -2.381   3.413  25.262  0.00  0.00    -0.311 N 
ATOM      6  C   UNL     1      -4.332   3.432  23.596  0.00  0.00    +0.024 C 
ATOM      7  C   UNL     1      -2.323   2.124  23.105  0.00  0.00    +0.051 C 
ATOM      8  C   UNL     1      -3.247   3.208  22.557  0.00  0.00    +0.017 C 
ATOM      9  C   UNL     1      -5.113   2.126  23.847  0.00  0.00    +0.090 C 
ATOM     10  C   UNL     1      -3.133   0.826  23.334  0.00  0.00    +0.094 C 
ATOM     11  C   UNL     1      -3.680   3.977  24.869  0.00  0.00    +0.130 C 
ATOM     12  C   UNL     1      -1.643   2.576  24.401  0.00  0.00    +0.034 A 
ATOM     14  C   UNL     1      -0.386   2.192  24.744  0.00  0.00    +0.003 A 
ATOM     15  C   UNL     1      -1.879   3.850  26.500  0.00  0.00    +0.252 A 
ATOM     16  C   UNL     1       0.163   2.620  26.017  0.00  0.00    +0.015 A 
ATOM     17  C   UNL     1      -0.522   3.388  26.865  0.00  0.00    +0.071 A 
ENDROOT
BRANCH  14  19
ATOM      4  N   UNL     1       2.551   0.912  22.792  0.00  0.00    -0.263 NA
ATOM     19  C   UNL     1       0.433   1.331  23.862  0.00  0.00    +0.002 A 
ATOM     22  C   UNL     1      -0.102   0.186  23.294  0.00  0.00    +0.011 A 
ATOM     23  C   UNL     1       1.748   1.653  23.588  0.00  0.00    +0.119 A 
ATOM     26  C   UNL     1       0.694  -0.602  22.470  0.00  0.00    +0.020 A 
ATOM     28  C   UNL     1       2.001  -0.200  22.253  0.00  0.00    +0.111 A 
ENDBRANCH  14  19
BRANCH   2  13
ATOM     13  C   UNL     1      -5.005  -0.205  24.459  0.00  0.00    +0.119 C 
BRANCH  13  18
ATOM     18  C   UNL     1      -4.129  -1.426  24.360  0.00  0.00    -0.032 A 
ATOM     20  C   UNL     1      -2.840  -1.387  24.870  0.00  0.00    +0.023 A 
ATOM     21  C   UNL     1      -4.625  -2.575  23.761  0.00  0.00    +0.005 A 
ATOM     24  C   UNL     1      -2.029  -2.518  24.779  0.00  0.00    +0.052 A 
ATOM     25  C   UNL     1      -3.815  -3.707  23.669  0.00  0.00    +0.002 A 
ATOM     27  C   UNL     1      -2.517  -3.678  24.178  0.00  0.00    +0.019 A 
BRANCH  24  29
ATOM      5  N   UNL     1       0.383  -2.464  25.724  0.00  0.00    -0.191 NA
ATOM     29  C   UNL     1      -0.698  -2.488  25.301  0.00  0.00    +0.099 C 
ENDBRANCH  24  29
ENDBRANCH  13  18
ENDBRANCH   2  13
TORSDOF 4
ENDMDL
MODEL 2
REMARK VINA RESULT:       1.3      1.790      5.241
REMARK  Name = 7051829
REMARK  4 active torsions:
REMARK  status: ('A' for Active; 'I' for Inactive)
REMARK    1  A    between atoms: N_2  and  C_13
REMARK    2  A    between atoms: C_13  and  C_18
REMARK    3  A    between atoms: C_14  and  C_19
REMARK    4  A    between atoms: C_24  and  C_29
REMARK                            x       y       z     vdW  Elec       q    Type
REMARK                         _______ _______ _______ _____ _____    ______ ____
ROOT
ATOM      1  O   UNL     1      -4.591   4.835  25.297  0.00  0.00    -0.268 OA
ATOM      2  N   UNL     1      -0.360   2.467  24.135  0.00  0.00    -0.297 NA
ATOM      3  N   UNL     1      -3.155   3.004  25.559  0.00  0.00    -0.311 N 
ATOM      6  C   UNL     1      -0.771   3.279  26.465  0.00  0.00    +0.024 C 
ATOM      7  C   UNL     1      -1.579   1.063  25.811  0.00  0.00    +0.051 C 
ATOM      8  C   UNL     1      -0.958   1.854  26.959  0.00  0.00    +0.017 C 
ATOM      9  C   UNL     1       0.150   3.301  25.229  0.00  0.00    +0.090 C 
ATOM     10  C   UNL     1      -0.626   1.095  24.592  0.00  0.00    +0.094 C 
ATOM     11  C   UNL     1      -2.149   3.879  26.178  0.00  0.00    +0.130 C 
ATOM     12  C   UNL     1      -2.958   1.614  25.438  0.00  0.00    +0.034 A 
ATOM     14  C   UNL     1      -3.968   0.824  24.989  0.00  0.00    +0.003 A 
ATOM     15  C   UNL     1      -4.362   3.629  25.199  0.00  0.00    +0.252 A 
ATOM     16  C   UNL     1      -5.227   1.434  24.604  0.00  0.00    +0.015 A 
ATOM     17  C   UNL     1      -5.433   2.749  24.681  0.00  0.00    +0.071 A 
ENDROOT
BRANCH  14  19
ATOM      4  N   UNL     1      -3.160  -2.731  25.872  0.00  0.00    -0.263 NA
ATOM     19  C   UNL     1      -3.814  -0.642  24.866  0.00  0.00    +0.002 A 
ATOM     22  C   UNL     1      -4.156  -1.293  23.691  0.00  0.00    +0.011 A 
ATOM     23  C   UNL     1      -3.326  -1.390  25.918  0.00  0.00    +0.119 A 
ATOM     26  C   UNL     1      -4.000  -2.672  23.606  0.00  0.00    +0.020 A 
ATOM     28  C   UNL     1      -3.503  -3.339  24.714  0.00  0.00    +0.111 A 
ENDBRANCH  14  19
BRANCH   2  13
ATOM     13  C   UNL     1       0.558   2.472  23.000  0.00  0.00    +0.119 C 
BRANCH  13  18
ATOM     18  C   UNL     1       1.438   1.250  22.986  0.00  0.00    -0.032 A 
ATOM     20  C   UNL     1       2.801   1.385  23.206  0.00  0.00    +0.023 A 
ATOM     21  C   UNL     1       0.872   0.004  22.754  0.00  0.00    +0.005 A 
ATOM     24  C   UNL     1       3.615   0.253  23.193  0.00  0.00    +0.052 A 
ATOM     25  C   UNL     1       1.685  -1.128  22.741  0.00  0.00    +0.002 A 
ATOM     27  C   UNL     1       3.057  -1.004  22.960  0.00  0.00    +0.019 A 
BRANCH  24  29
ATOM      5  N   UNL     1       6.163   0.485  23.600  0.00  0.00    -0.191 NA
ATOM     29  C   UNL     1       5.021   0.381  23.417  0.00  0.00    +0.099 C 
ENDBRANCH  24  29
ENDBRANCH  13  18
ENDBRANCH   2  13
TORSDOF 4
ENDMDL
