MODEL 1
REMARK VINA RESULT:      -5.0      0.000      0.000
REMARK  Name = 51137837
REMARK  4 active torsions:
REMARK  status: ('A' for Active; 'I' for Inactive)
REMARK    1  A    between atoms: C_8  and  C_12
REMARK    2  A    between atoms: C_13  and  C_16
REMARK    3  A    between atoms: C_14  and  C_15
REMARK    4  A    between atoms: C_15  and  C_17
REMARK                            x       y       z     vdW  Elec       q    Type
REMARK                         _______ _______ _______ _____ _____    ______ ____
ROOT
ATOM      2  O   UNL     1      16.938  -5.924  28.108  0.00  0.00    -0.424 OA
ATOM      5  N   UNL     1      15.175  -7.297  28.018  0.00  0.00    -0.112 NA
ATOM      6  N   UNL     1      15.542  -6.989  26.721  0.00  0.00    -0.112 NA
ATOM     12  C   UNL     1      16.017  -6.655  28.793  0.00  0.00    +0.222 A 
ATOM     14  C   UNL     1      16.575  -6.185  26.823  0.00  0.00    +0.222 A 
ENDROOT
BRANCH  12   8
ATOM      3  O   UNL     1      11.920  -5.182  31.772  0.00  0.00    -0.269 OA
ATOM      4  N   UNL     1      14.005  -6.090  31.306  0.00  0.00    -0.296 N 
ATOM      8  C   UNL     1      16.101  -6.616  30.309  0.00  0.00    +0.095 C 
ATOM      9  C   UNL     1      16.129  -5.174  30.838  0.00  0.00    +0.033 C 
ATOM     10  C   UNL     1      14.915  -7.214  31.078  0.00  0.00    +0.121 C 
ATOM     11  C   UNL     1      14.658  -4.822  31.018  0.00  0.00    +0.109 C 
ATOM     13  C   UNL     1      12.668  -6.151  31.663  0.00  0.00    +0.253 C 
BRANCH  13  16
ATOM      1  S   UNL     1      10.544  -7.593  32.645  0.00  0.00    -0.092 S 
ATOM     16  C   UNL     1      12.093  -7.480  31.920  0.00  0.00    +0.074 A 
ATOM     21  C   UNL     1      12.630  -8.720  31.655  0.00  0.00    +0.021 A 
ATOM     24  C   UNL     1      11.761  -9.777  32.051  0.00  0.00    +0.008 A 
ATOM     25  C   UNL     1      10.590  -9.304  32.605  0.00  0.00    +0.046 A 
ENDBRANCH  13  16
ENDBRANCH  12   8
BRANCH  14  15
ATOM     15  C   UNL     1      17.401  -5.526  25.727  0.00  0.00    +0.135 C 
BRANCH  15  17
ATOM      7  N   UNL     1      17.325  -1.942  26.422  0.00  0.00    -0.360 N 
ATOM     17  C   UNL     1      17.347  -4.050  25.727  0.00  0.00    -0.013 A 
ATOM     18  C   UNL     1      17.227  -3.207  24.586  0.00  0.00    +0.003 A 
ATOM     19  C   UNL     1      17.216  -1.889  25.051  0.00  0.00    +0.047 A 
ATOM     20  C   UNL     1      17.405  -3.243  26.839  0.00  0.00    +0.087 A 
ATOM     22  C   UNL     1      17.127  -3.439  23.200  0.00  0.00    +0.010 A 
ATOM     23  C   UNL     1      17.108  -0.788  24.194  0.00  0.00    +0.026 A 
ATOM     26  C   UNL     1      17.018  -2.347  22.331  0.00  0.00    +0.001 A 
ATOM     27  C   UNL     1      17.009  -1.042  22.823  0.00  0.00    +0.002 A 
ATOM     28  H   UNL     1      17.344  -1.136  27.032  0.00  0.00    +0.165 HD
ENDBRANCH  15  17
ENDBRANCH  14  15
TORSDOF 4
ENDMDL
MODEL 2
REMARK VINA RESULT:      -4.4      1.449      2.031
REMARK  Name = 51137837
REMARK  4 active torsions:
REMARK  status: ('A' for Active; 'I' for Inactive)
REMARK    1  A    between atoms: C_8  and  C_12
REMARK    2  A    between atoms: C_13  and  C_16
REMARK    3  A    between atoms: C_14  and  C_15
REMARK    4  A    between atoms: C_15  and  C_17
REMARK                            x       y       z     vdW  Elec       q    Type
REMARK                         _______ _______ _______ _____ _____    ______ ____
ROOT
ATOM      2  O   UNL     1      17.231  -6.770  27.272  0.00  0.00    -0.424 OA
ATOM      5  N   UNL     1      15.026  -6.686  27.635  0.00  0.00    -0.112 NA
ATOM      6  N   UNL     1      15.236  -6.619  26.271  0.00  0.00    -0.112 NA
ATOM     12  C   UNL     1      16.217  -6.774  28.179  0.00  0.00    +0.222 A 
ATOM     14  C   UNL     1      16.538  -6.671  26.105  0.00  0.00    +0.222 A 
ENDROOT
BRANCH  12   8
ATOM      3  O   UNL     1      13.216  -4.735  32.010  0.00  0.00    -0.269 OA
ATOM      4  N   UNL     1      14.918  -6.011  31.080  0.00  0.00    -0.296 N 
ATOM      8  C   UNL     1      16.608  -6.875  29.644  0.00  0.00    +0.095 C 
ATOM      9  C   UNL     1      17.054  -5.517  30.206  0.00  0.00    +0.033 C 
ATOM     10  C   UNL     1      15.497  -7.277  30.624  0.00  0.00    +0.121 C 
ATOM     11  C   UNL     1      15.760  -4.886  30.706  0.00  0.00    +0.109 C 
ATOM     13  C   UNL     1      13.698  -5.825  31.710  0.00  0.00    +0.253 C 
BRANCH  13  16
ATOM      1  S   UNL     1      13.670  -8.327  32.847  0.00  0.00    -0.092 S 
ATOM     16  C   UNL     1      12.910  -7.024  32.035  0.00  0.00    +0.074 A 
ATOM     21  C   UNL     1      11.582  -7.281  31.776  0.00  0.00    +0.021 A 
ATOM     24  C   UNL     1      11.182  -8.563  32.250  0.00  0.00    +0.008 A 
ATOM     25  C   UNL     1      12.221  -9.239  32.854  0.00  0.00    +0.046 A 
ENDBRANCH  13  16
ENDBRANCH  12   8
BRANCH  14  15
ATOM     15  C   UNL     1      17.353  -6.641  24.821  0.00  0.00    +0.135 C 
BRANCH  15  17
ATOM      7  N   UNL     1      17.106  -3.908  22.412  0.00  0.00    -0.360 N 
ATOM     17  C   UNL     1      17.270  -5.369  24.075  0.00  0.00    -0.013 A 
ATOM     18  C   UNL     1      17.299  -4.058  24.630  0.00  0.00    +0.003 A 
ATOM     19  C   UNL     1      17.194  -3.160  23.565  0.00  0.00    +0.047 A 
ATOM     20  C   UNL     1      17.151  -5.242  22.711  0.00  0.00    +0.087 A 
ATOM     22  C   UNL     1      17.404  -3.548  25.939  0.00  0.00    +0.010 A 
ATOM     23  C   UNL     1      17.190  -1.772  23.745  0.00  0.00    +0.026 A 
ATOM     26  C   UNL     1      17.402  -2.162  26.135  0.00  0.00    +0.001 A 
ATOM     27  C   UNL     1      17.296  -1.290  25.052  0.00  0.00    +0.002 A 
ATOM     28  H   UNL     1      17.020  -3.525  21.480  0.00  0.00    +0.165 HD
ENDBRANCH  15  17
ENDBRANCH  14  15
TORSDOF 4
ENDMDL
MODEL 3
REMARK VINA RESULT:      -4.4     18.091     20.005
REMARK  Name = 51137837
REMARK  4 active torsions:
REMARK  status: ('A' for Active; 'I' for Inactive)
REMARK    1  A    between atoms: C_8  and  C_12
REMARK    2  A    between atoms: C_13  and  C_16
REMARK    3  A    between atoms: C_14  and  C_15
REMARK    4  A    between atoms: C_15  and  C_17
REMARK                            x       y       z     vdW  Elec       q    Type
REMARK                         _______ _______ _______ _____ _____    ______ ____
ROOT
ATOM      2  O   UNL     1      -4.144   1.581  24.130  0.00  0.00    -0.424 OA
ATOM      5  N   UNL     1      -4.974   3.194  25.438  0.00  0.00    -0.112 NA
ATOM      6  N   UNL     1      -5.736   2.056  25.628  0.00  0.00    -0.112 NA
ATOM     12  C   UNL     1      -4.057   2.870  24.557  0.00  0.00    +0.222 A 
ATOM     14  C   UNL     1      -5.215   1.141  24.844  0.00  0.00    +0.222 A 
ENDROOT
BRANCH  12   8
ATOM      3  O   UNL     1       0.977   2.262  26.016  0.00  0.00    -0.269 OA
ATOM      4  N   UNL     1      -0.797   3.022  24.724  0.00  0.00    -0.296 N 
ATOM      8  C   UNL     1      -2.942   3.715  23.964  0.00  0.00    +0.095 C 
ATOM      9  C   UNL     1      -2.402   4.733  24.981  0.00  0.00    +0.033 C 
ATOM     10  C   UNL     1      -1.666   2.973  23.547  0.00  0.00    +0.121 C 
ATOM     11  C   UNL     1      -1.296   3.974  25.703  0.00  0.00    +0.109 C 
ATOM     13  C   UNL     1       0.317   2.238  24.979  0.00  0.00    +0.253 C 
BRANCH  13  16
ATOM      1  S   UNL     1       2.385   1.245  23.465  0.00  0.00    -0.092 S 
ATOM     16  C   UNL     1       0.737   1.293  23.933  0.00  0.00    +0.074 A 
ATOM     21  C   UNL     1      -0.026   0.387  23.230  0.00  0.00    +0.021 A 
ATOM     24  C   UNL     1       0.750  -0.357  22.295  0.00  0.00    +0.008 A 
ATOM     25  C   UNL     1       2.079   0.009  22.319  0.00  0.00    +0.046 A 
ENDBRANCH  13  16
ENDBRANCH  12   8
BRANCH  14  15
ATOM     15  C   UNL     1      -5.634  -0.308  24.634  0.00  0.00    +0.135 C 
BRANCH  15  17
ATOM      7  N   UNL     1      -3.306  -2.929  23.613  0.00  0.00    -0.360 N 
ATOM     17  C   UNL     1      -4.512  -1.239  24.398  0.00  0.00    -0.013 A 
ATOM     18  C   UNL     1      -3.222  -1.181  24.998  0.00  0.00    +0.003 A 
ATOM     19  C   UNL     1      -2.485  -2.253  24.487  0.00  0.00    +0.047 A 
ATOM     20  C   UNL     1      -4.532  -2.324  23.552  0.00  0.00    +0.087 A 
ATOM     22  C   UNL     1      -2.609  -0.318  25.927  0.00  0.00    +0.010 A 
ATOM     23  C   UNL     1      -1.161  -2.505  24.863  0.00  0.00    +0.026 A 
ATOM     26  C   UNL     1      -1.286  -0.558  26.312  0.00  0.00    +0.001 A 
ATOM     27  C   UNL     1      -0.574  -1.636  25.787  0.00  0.00    +0.002 A 
ATOM     28  H   UNL     1      -3.040  -3.753  23.091  0.00  0.00    +0.165 HD
ENDBRANCH  15  17
ENDBRANCH  14  15
TORSDOF 4
ENDMDL
MODEL 4
REMARK VINA RESULT:      -1.7     18.287     20.237
REMARK  Name = 51137837
REMARK  4 active torsions:
REMARK  status: ('A' for Active; 'I' for Inactive)
REMARK    1  A    between atoms: C_8  and  C_12
REMARK    2  A    between atoms: C_13  and  C_16
REMARK    3  A    between atoms: C_14  and  C_15
REMARK    4  A    between atoms: C_15  and  C_17
REMARK                            x       y       z     vdW  Elec       q    Type
REMARK                         _______ _______ _______ _____ _____    ______ ____
ROOT
ATOM      2  O   UNL     1      -3.813   2.313  24.637  0.00  0.00    -0.424 OA
ATOM      5  N   UNL     1      -4.980   4.191  24.976  0.00  0.00    -0.112 NA
ATOM      6  N   UNL     1      -5.774   3.123  25.348  0.00  0.00    -0.112 NA
ATOM     12  C   UNL     1      -3.845   3.672  24.569  0.00  0.00    +0.222 A 
ATOM     14  C   UNL     1      -5.052   2.047  25.133  0.00  0.00    +0.222 A 
ENDROOT
BRANCH  12   8
ATOM      3  O   UNL     1       0.970   2.445  26.341  0.00  0.00    -0.269 OA
ATOM      4  N   UNL     1      -0.609   3.410  24.939  0.00  0.00    -0.296 N 
ATOM      8  C   UNL     1      -2.597   4.362  24.044  0.00  0.00    +0.095 C 
ATOM      9  C   UNL     1      -1.995   5.314  25.089  0.00  0.00    +0.033 C 
ATOM     10  C   UNL     1      -1.403   3.459  23.710  0.00  0.00    +0.121 C 
ATOM     11  C   UNL     1      -1.042   4.429  25.882  0.00  0.00    +0.109 C 
ATOM     13  C   UNL     1       0.378   2.493  25.265  0.00  0.00    +0.253 C 
BRANCH  13  16
ATOM      1  S   UNL     1      -0.389   0.261  23.858  0.00  0.00    -0.092 S 
ATOM     16  C   UNL     1       0.737   1.491  24.251  0.00  0.00    +0.074 A 
ATOM     21  C   UNL     1       1.901   1.375  23.524  0.00  0.00    +0.021 A 
ATOM     24  C   UNL     1       1.869   0.265  22.633  0.00  0.00    +0.008 A 
ATOM     25  C   UNL     1       0.680  -0.428  22.712  0.00  0.00    +0.046 A 
ENDBRANCH  13  16
ENDBRANCH  12   8
BRANCH  14  15
ATOM     15  C   UNL     1      -5.402   0.584  25.360  0.00  0.00    +0.135 C 
BRANCH  15  17
ATOM      7  N   UNL     1      -2.311  -1.198  26.138  0.00  0.00    -0.360 N 
ATOM     17  C   UNL     1      -4.234  -0.313  25.469  0.00  0.00    -0.013 A 
ATOM     18  C   UNL     1      -3.983  -1.476  24.687  0.00  0.00    +0.003 A 
ATOM     19  C   UNL     1      -2.771  -2.012  25.128  0.00  0.00    +0.047 A 
ATOM     20  C   UNL     1      -3.189  -0.169  26.352  0.00  0.00    +0.087 A 
ATOM     22  C   UNL     1      -4.673  -2.126  23.644  0.00  0.00    +0.010 A 
ATOM     23  C   UNL     1      -2.211  -3.169  24.574  0.00  0.00    +0.026 A 
ATOM     26  C   UNL     1      -4.125  -3.284  23.081  0.00  0.00    +0.001 A 
ATOM     27  C   UNL     1      -2.913  -3.796  23.541  0.00  0.00    +0.002 A 
ATOM     28  H   UNL     1      -1.450  -1.340  26.649  0.00  0.00    +0.165 HD
ENDBRANCH  15  17
ENDBRANCH  14  15
TORSDOF 4
ENDMDL
MODEL 5
REMARK VINA RESULT:      -1.5     18.638     20.285
REMARK  Name = 51137837
REMARK  4 active torsions:
REMARK  status: ('A' for Active; 'I' for Inactive)
REMARK    1  A    between atoms: C_8  and  C_12
REMARK    2  A    between atoms: C_13  and  C_16
REMARK    3  A    between atoms: C_14  and  C_15
REMARK    4  A    between atoms: C_15  and  C_17
REMARK                            x       y       z     vdW  Elec       q    Type
REMARK                         _______ _______ _______ _____ _____    ______ ____
ROOT
ATOM      2  O   UNL     1      -3.656  -0.655  25.143  0.00  0.00    -0.424 OA
ATOM      5  N   UNL     1      -3.235  -2.749  24.478  0.00  0.00    -0.112 NA
ATOM      6  N   UNL     1      -4.506  -2.413  24.051  0.00  0.00    -0.112 NA
ATOM     12  C   UNL     1      -2.777  -1.693  25.109  0.00  0.00    +0.222 A 
ATOM     14  C   UNL     1      -4.710  -1.183  24.462  0.00  0.00    +0.222 A 
ENDROOT
BRANCH  12   8
ATOM      3  O   UNL     1       1.099   1.061  22.823  0.00  0.00    -0.269 OA
ATOM      4  N   UNL     1      -0.021  -0.032  24.538  0.00  0.00    -0.296 N 
ATOM      8  C   UNL     1      -1.436  -1.479  25.790  0.00  0.00    +0.095 C 
ATOM      9  C   UNL     1      -0.323  -2.299  25.120  0.00  0.00    +0.033 C 
ATOM     10  C   UNL     1      -0.859  -0.058  25.738  0.00  0.00    +0.121 C 
ATOM     11  C   UNL     1       0.205  -1.376  24.030  0.00  0.00    +0.109 C 
ATOM     13  C   UNL     1       0.458   1.084  23.872  0.00  0.00    +0.253 C 
BRANCH  13  16
ATOM      1  S   UNL     1      -0.043   2.536  26.151  0.00  0.00    -0.092 S 
ATOM     16  C   UNL     1       0.166   2.402  24.455  0.00  0.00    +0.074 A 
ATOM     21  C   UNL     1       0.026   3.616  23.821  0.00  0.00    +0.021 A 
ATOM     24  C   UNL     1      -0.256   4.671  24.737  0.00  0.00    +0.008 A 
ATOM     25  C   UNL     1      -0.321   4.222  26.038  0.00  0.00    +0.046 A 
ENDBRANCH  13  16
ENDBRANCH  12   8
BRANCH  14  15
ATOM     15  C   UNL     1      -5.929  -0.289  24.281  0.00  0.00    +0.135 C 
BRANCH  15  17
ATOM      7  N   UNL     1      -6.158   2.685  26.387  0.00  0.00    -0.360 N 
ATOM     17  C   UNL     1      -5.830   1.022  24.954  0.00  0.00    -0.013 A 
ATOM     18  C   UNL     1      -5.004   2.114  24.565  0.00  0.00    +0.003 A 
ATOM     19  C   UNL     1      -5.229   3.144  25.481  0.00  0.00    +0.047 A 
ATOM     20  C   UNL     1      -6.526   1.404  26.077  0.00  0.00    +0.087 A 
ATOM     22  C   UNL     1      -4.084   2.325  23.518  0.00  0.00    +0.010 A 
ATOM     23  C   UNL     1      -4.578   4.381  25.402  0.00  0.00    +0.026 A 
ATOM     26  C   UNL     1      -3.426   3.556  23.427  0.00  0.00    +0.001 A 
ATOM     27  C   UNL     1      -3.671   4.567  24.355  0.00  0.00    +0.002 A 
ATOM     28  H   UNL     1      -6.516   3.217  27.169  0.00  0.00    +0.165 HD
ENDBRANCH  15  17
ENDBRANCH  14  15
TORSDOF 4
ENDMDL
