MODEL 1
REMARK VINA RESULT:      -0.7      0.000      0.000
REMARK  Name = 45361630
REMARK  10 active torsions:
REMARK  status: ('A' for Active; 'I' for Inactive)
REMARK    1  A    between atoms: O_2  and  C_12
REMARK    2  A    between atoms: N_5  and  C_16
REMARK    3  A    between atoms: N_6  and  C_26
REMARK    4  A    between atoms: C_9  and  C_19
REMARK    5  A    between atoms: C_11  and  C_21
REMARK    6  A    between atoms: C_15  and  C_20
REMARK    7  A    between atoms: C_20  and  C_22
REMARK    8  A    between atoms: C_20  and  C_23
REMARK    9  A    between atoms: C_24  and  C_25
REMARK   10  A    between atoms: C_26  and  C_29
REMARK                            x       y       z     vdW  Elec       q    Type
REMARK                         _______ _______ _______ _____ _____    ______ ____
ROOT
ATOM      9  C   UNL     1      -3.007  -1.357  24.851  0.00  0.00    -0.027 C 
ATOM     10  C   UNL     1      -2.655  -0.006  24.145  0.00  0.00    +0.028 C 
ATOM     11  C   UNL     1      -1.115   0.290  24.240  0.00  0.00    +0.012 C 
ATOM     12  C   UNL     1      -3.587   1.142  24.628  0.00  0.00    +0.122 C 
ATOM     13  C   UNL     1      -4.508  -1.674  24.641  0.00  0.00    +0.007 C 
ATOM     14  C   UNL     1      -2.191  -2.496  24.198  0.00  0.00    +0.009 C 
ATOM     15  C   UNL     1      -5.086   0.779  24.512  0.00  0.00    +0.029 C 
ATOM     16  C   UNL     1      -0.302  -0.895  23.648  0.00  0.00    +0.076 C 
ATOM     17  C   UNL     1      -5.424  -0.568  25.148  0.00  0.00    +0.007 C 
ATOM     18  C   UNL     1      -0.689  -2.252  24.237  0.00  0.00    +0.023 C 
ATOM     19  C   UNL     1      -2.713  -1.328  26.372  0.00  0.00    +0.011 C 
ATOM     21  C   UNL     1      -0.694   1.593  23.540  0.00  0.00    +0.010 C 
ENDROOT
BRANCH  16   5
ATOM      4  O   UNL     1       1.611  -0.258  21.604  0.00  0.00    -0.270 OA
ATOM      5  N   UNL     1       1.123  -0.709  23.824  0.00  0.00    -0.308 N 
ATOM     24  C   UNL     1       1.967  -0.403  22.770  0.00  0.00    +0.247 C 
ATOM     36  H   UNL     1       1.505  -0.912  24.743  0.00  0.00    +0.149 HD
BRANCH  24  25
ATOM      7  N   UNL     1       5.421  -1.202  24.042  0.00  0.00    -0.243 NA
ATOM      8  N   UNL     1       5.428   1.035  23.145  0.00  0.00    -0.243 NA
ATOM     25  C   UNL     1       3.406  -0.270  23.113  0.00  0.00    +0.073 A 
ATOM     27  C   UNL     1       4.113  -1.288  23.717  0.00  0.00    +0.127 A 
ATOM     28  C   UNL     1       4.122   0.880  22.848  0.00  0.00    +0.127 A 
ATOM     32  C   UNL     1       6.007  -0.030  23.732  0.00  0.00    +0.221 A 
ENDBRANCH  24  25
ENDBRANCH  16   5
BRANCH  12   2
ATOM      2  O   UNL     1      -3.383   2.297  23.812  0.00  0.00    -0.391 OA
ATOM     37  H   UNL     1      -2.528   2.200  23.360  0.00  0.00    +0.210 HD
ENDBRANCH  12   2
BRANCH  15  20
ATOM     20  C   UNL     1      -5.983   1.868  25.113  0.00  0.00    +0.077 C 
ATOM     22  C   UNL     1      -7.162   2.148  24.187  0.00  0.00    +0.017 C 
BRANCH  20  23
ATOM      3  O   UNL     1      -5.106   4.058  24.566  0.00  0.00    -0.276 OA
ATOM      6  N   UNL     1      -4.516   3.103  26.595  0.00  0.00    -0.311 N 
ATOM     23  C   UNL     1      -5.167   3.131  25.370  0.00  0.00    +0.216 C 
ATOM     38  H   UNL     1      -4.649   2.312  27.218  0.00  0.00    +0.149 HD
BRANCH   6  26
ATOM     26  C   UNL     1      -3.681   4.185  27.061  0.00  0.00    +0.139 C 
BRANCH  26  29
ATOM      1  F   UNL     1       0.686   5.107  23.630  0.00  0.00    -0.205 F 
ATOM     29  C   UNL     1      -2.516   4.431  26.146  0.00  0.00    -0.030 A 
ATOM     30  C   UNL     1      -2.495   5.564  25.334  0.00  0.00    +0.008 A 
ATOM     31  C   UNL     1      -1.456   3.525  26.108  0.00  0.00    +0.008 A 
ATOM     33  C   UNL     1      -1.413   5.792  24.484  0.00  0.00    +0.038 A 
ATOM     34  C   UNL     1      -0.375   3.754  25.258  0.00  0.00    +0.038 A 
ATOM     35  C   UNL     1      -0.352   4.887  24.446  0.00  0.00    +0.123 A 
ENDBRANCH  26  29
ENDBRANCH   6  26
ENDBRANCH  20  23
ENDBRANCH  15  20
TORSDOF 7
ENDMDL
