MODEL 1
REMARK VINA RESULT:      -4.1      0.000      0.000
REMARK  Name = 38027871
REMARK  13 active torsions:
REMARK  status: ('A' for Active; 'I' for Inactive)
REMARK    1  A    between atoms: O_3  and  C_31
REMARK    2  A    between atoms: O_3  and  C_32
REMARK    3  A    between atoms: N_4  and  C_13
REMARK    4  A    between atoms: N_5  and  C_25
REMARK    5  A    between atoms: C_6  and  C_10
REMARK    6  A    between atoms: C_7  and  C_13
REMARK    7  A    between atoms: C_9  and  C_14
REMARK    8  A    between atoms: C_10  and  C_16
REMARK    9  A    between atoms: C_10  and  C_17
REMARK   10  A    between atoms: C_11  and  C_20
REMARK   11  A    between atoms: C_14  and  C_24
REMARK   12  A    between atoms: C_15  and  C_23
REMARK   13  A    between atoms: C_25  and  C_26
REMARK                            x       y       z     vdW  Elec       q    Type
REMARK                         _______ _______ _______ _____ _____    ______ ____
ROOT
ATOM      6  C   UNL     1      -1.494   0.643  24.636  0.00  0.00    +0.000 C 
ATOM      7  C   UNL     1      -0.309  -0.268  24.227  0.00  0.00    +0.032 C 
ATOM      8  C   UNL     1      -2.321  -0.019  25.748  0.00  0.00    +0.012 C 
ATOM      9  C   UNL     1      -2.883  -1.388  25.319  0.00  0.00    +0.023 C 
ATOM     11  C   UNL     1      -1.826  -2.249  24.657  0.00  0.00    -0.073 C 
ATOM     12  C   UNL     1      -0.676  -1.733  24.189  0.00  0.00    -0.022 C 
ATOM     20  C   UNL     1      -2.101  -3.725  24.589  0.00  0.00    +0.039 C 
ENDROOT
BRANCH   6  10
ATOM     10  C   UNL     1      -1.017   2.024  25.098  0.00  0.00    -0.013 C 
ATOM     16  C   UNL     1      -0.169   1.899  26.360  0.00  0.00    +0.007 C 
ATOM     17  C   UNL     1      -0.234   2.717  23.987  0.00  0.00    +0.007 C 
ENDBRANCH   6  10
BRANCH   7  13
ATOM     13  C   UNL     1       0.268   0.150  22.871  0.00  0.00    +0.112 C 
BRANCH  13   4
ATOM      1  O   UNL     1       2.724   1.664  23.201  0.00  0.00    -0.276 OA
ATOM      4  N   UNL     1       1.608  -0.324  22.721  0.00  0.00    -0.315 N 
ATOM     23  C   UNL     1       2.736   0.474  22.899  0.00  0.00    +0.216 C 
ATOM     33  H   UNL     1       1.741  -1.315  22.539  0.00  0.00    +0.149 HD
BRANCH  23  15
ATOM     15  C   UNL     1       4.016  -0.280  22.705  0.00  0.00    +0.075 C 
ATOM     18  C   UNL     1       4.143  -1.390  23.754  0.00  0.00    +0.013 C 
ATOM     19  C   UNL     1       5.221   0.641  22.909  0.00  0.00    +0.013 C 
ATOM     21  C   UNL     1       5.467  -1.140  24.468  0.00  0.00    +0.001 C 
ATOM     22  C   UNL     1       5.686   0.356  24.330  0.00  0.00    +0.001 C 
ENDBRANCH  23  15
ENDBRANCH  13   4
ENDBRANCH   7  13
BRANCH   9  14
ATOM     14  C   UNL     1      -4.104  -1.222  24.407  0.00  0.00    +0.103 C 
BRANCH  14  24
ATOM      2  O   UNL     1      -3.908   0.898  23.258  0.00  0.00    -0.276 OA
ATOM      5  N   UNL     1      -5.377   0.698  25.048  0.00  0.00    -0.311 N 
ATOM     24  C   UNL     1      -4.428   0.232  24.150  0.00  0.00    +0.214 C 
ATOM     34  H   UNL     1      -5.752   0.068  25.752  0.00  0.00    +0.149 HD
BRANCH   5  25
ATOM     25  C   UNL     1      -5.874   2.055  25.039  0.00  0.00    +0.139 C 
BRANCH  25  26
ATOM     26  C   UNL     1      -4.762   3.060  25.128  0.00  0.00    -0.030 A 
ATOM     27  C   UNL     1      -4.167   3.335  26.359  0.00  0.00    +0.009 A 
ATOM     28  C   UNL     1      -4.325   3.719  23.979  0.00  0.00    +0.009 A 
ATOM     29  C   UNL     1      -3.134   4.269  26.442  0.00  0.00    +0.046 A 
ATOM     30  C   UNL     1      -3.293   4.654  24.062  0.00  0.00    +0.046 A 
ATOM     31  C   UNL     1      -2.697   4.928  25.293  0.00  0.00    +0.120 A 
BRANCH  31   3
ATOM      3  O   UNL     1      -1.689   5.839  25.373  0.00  0.00    -0.495 OA
ATOM     32  C   UNL     1      -0.528   5.594  24.580  0.00  0.00    +0.277 C 
ENDBRANCH  31   3
ENDBRANCH  25  26
ENDBRANCH   5  25
ENDBRANCH  14  24
ENDBRANCH   9  14
TORSDOF 9
ENDMDL
MODEL 2
REMARK VINA RESULT:      -2.7      1.791      7.142
REMARK  Name = 38027871
REMARK  13 active torsions:
REMARK  status: ('A' for Active; 'I' for Inactive)
REMARK    1  A    between atoms: O_3  and  C_31
REMARK    2  A    between atoms: O_3  and  C_32
REMARK    3  A    between atoms: N_4  and  C_13
REMARK    4  A    between atoms: N_5  and  C_25
REMARK    5  A    between atoms: C_6  and  C_10
REMARK    6  A    between atoms: C_7  and  C_13
REMARK    7  A    between atoms: C_9  and  C_14
REMARK    8  A    between atoms: C_10  and  C_16
REMARK    9  A    between atoms: C_10  and  C_17
REMARK   10  A    between atoms: C_11  and  C_20
REMARK   11  A    between atoms: C_14  and  C_24
REMARK   12  A    between atoms: C_15  and  C_23
REMARK   13  A    between atoms: C_25  and  C_26
REMARK                            x       y       z     vdW  Elec       q    Type
REMARK                         _______ _______ _______ _____ _____    ______ ____
ROOT
ATOM      6  C   UNL     1      -3.204   0.856  23.689  0.00  0.00    +0.000 C 
ATOM      7  C   UNL     1      -4.532   0.418  24.358  0.00  0.00    +0.032 C 
ATOM      8  C   UNL     1      -2.400  -0.373  23.238  0.00  0.00    +0.012 C 
ATOM      9  C   UNL     1      -2.068  -1.315  24.410  0.00  0.00    +0.023 C 
ATOM     11  C   UNL     1      -3.281  -1.581  25.280  0.00  0.00    -0.073 C 
ATOM     12  C   UNL     1      -4.378  -0.804  25.232  0.00  0.00    -0.022 C 
ATOM     20  C   UNL     1      -3.222  -2.789  26.172  0.00  0.00    +0.039 C 
ENDROOT
BRANCH   6  10
ATOM     10  C   UNL     1      -3.448   1.783  22.493  0.00  0.00    -0.013 C 
ATOM     16  C   UNL     1      -3.668   3.216  22.967  0.00  0.00    +0.007 C 
ATOM     17  C   UNL     1      -2.280   1.709  21.516  0.00  0.00    +0.007 C 
ENDBRANCH   6  10
BRANCH   7  13
ATOM     13  C   UNL     1      -5.141   1.560  25.179  0.00  0.00    +0.112 C 
BRANCH  13   4
ATOM      1  O   UNL     1      -5.321   4.434  25.546  0.00  0.00    -0.276 OA
ATOM      4  N   UNL     1      -4.122   2.439  25.659  0.00  0.00    -0.315 N 
ATOM     23  C   UNL     1      -4.293   3.814  25.806  0.00  0.00    +0.216 C 
ATOM     33  H   UNL     1      -3.248   2.025  25.971  0.00  0.00    +0.149 HD
BRANCH  23  15
ATOM     15  C   UNL     1      -3.075   4.495  26.352  0.00  0.00    +0.075 C 
ATOM     18  C   UNL     1      -2.616   5.606  25.400  0.00  0.00    +0.013 C 
ATOM     19  C   UNL     1      -1.908   3.512  26.456  0.00  0.00    +0.013 C 
ATOM     21  C   UNL     1      -1.163   5.290  25.061  0.00  0.00    +0.001 C 
ATOM     22  C   UNL     1      -1.066   3.783  25.218  0.00  0.00    +0.001 C 
ENDBRANCH  23  15
ENDBRANCH  13   4
ENDBRANCH   7  13
BRANCH   9  14
ATOM     14  C   UNL     1      -0.905  -0.768  25.246  0.00  0.00    +0.103 C 
BRANCH  14  24
ATOM      2  O   UNL     1       0.294   1.263  24.708  0.00  0.00    -0.276 OA
ATOM      5  N   UNL     1       0.517  -0.596  23.331  0.00  0.00    -0.311 N 
ATOM     24  C   UNL     1       0.024   0.099  24.426  0.00  0.00    +0.214 C 
ATOM     34  H   UNL     1       0.236  -1.561  23.182  0.00  0.00    +0.149 HD
BRANCH   5  25
ATOM     25  C   UNL     1       1.426  -0.013  22.371  0.00  0.00    +0.139 C 
BRANCH  25  26
ATOM     26  C   UNL     1       2.854  -0.098  22.828  0.00  0.00    -0.030 A 
ATOM     27  C   UNL     1       3.711   0.986  22.642  0.00  0.00    +0.009 A 
ATOM     28  C   UNL     1       3.322  -1.261  23.440  0.00  0.00    +0.009 A 
ATOM     29  C   UNL     1       5.038   0.907  23.067  0.00  0.00    +0.046 A 
ATOM     30  C   UNL     1       4.649  -1.339  23.864  0.00  0.00    +0.046 A 
ATOM     31  C   UNL     1       5.507  -0.255  23.678  0.00  0.00    +0.120 A 
BRANCH  31   3
ATOM      3  O   UNL     1       6.800  -0.332  24.094  0.00  0.00    -0.495 OA
ATOM     32  C   UNL     1       7.806  -0.364  23.083  0.00  0.00    +0.277 C 
ENDBRANCH  31   3
ENDBRANCH  25  26
ENDBRANCH   5  25
ENDBRANCH  14  24
ENDBRANCH   9  14
TORSDOF 9
ENDMDL
MODEL 3
REMARK VINA RESULT:      -1.7      1.557      7.088
REMARK  Name = 38027871
REMARK  13 active torsions:
REMARK  status: ('A' for Active; 'I' for Inactive)
REMARK    1  A    between atoms: O_3  and  C_31
REMARK    2  A    between atoms: O_3  and  C_32
REMARK    3  A    between atoms: N_4  and  C_13
REMARK    4  A    between atoms: N_5  and  C_25
REMARK    5  A    between atoms: C_6  and  C_10
REMARK    6  A    between atoms: C_7  and  C_13
REMARK    7  A    between atoms: C_9  and  C_14
REMARK    8  A    between atoms: C_10  and  C_16
REMARK    9  A    between atoms: C_10  and  C_17
REMARK   10  A    between atoms: C_11  and  C_20
REMARK   11  A    between atoms: C_14  and  C_24
REMARK   12  A    between atoms: C_15  and  C_23
REMARK   13  A    between atoms: C_25  and  C_26
REMARK                            x       y       z     vdW  Elec       q    Type
REMARK                         _______ _______ _______ _____ _____    ______ ____
ROOT
ATOM      6  C   UNL     1      -3.500   2.941  25.427  0.00  0.00    +0.000 C 
ATOM      7  C   UNL     1      -4.458   2.428  24.322  0.00  0.00    +0.032 C 
ATOM      8  C   UNL     1      -2.336   3.727  24.805  0.00  0.00    +0.012 C 
ATOM      9  C   UNL     1      -1.523   2.877  23.811  0.00  0.00    +0.023 C 
ATOM     11  C   UNL     1      -2.420   2.123  22.850  0.00  0.00    -0.073 C 
ATOM     12  C   UNL     1      -3.731   1.945  23.088  0.00  0.00    -0.022 C 
ATOM     20  C   UNL     1      -1.784   1.618  21.585  0.00  0.00    +0.039 C 
ENDROOT
BRANCH   6  10
ATOM     10  C   UNL     1      -4.229   3.817  26.450  0.00  0.00    -0.013 C 
ATOM     16  C   UNL     1      -3.308   4.922  26.958  0.00  0.00    +0.007 C 
ATOM     17  C   UNL     1      -5.496   4.408  25.839  0.00  0.00    +0.007 C 
ENDBRANCH   6  10
BRANCH   7  13
ATOM     13  C   UNL     1      -5.365   1.313  24.850  0.00  0.00    +0.112 C 
BRANCH  13   4
ATOM      1  O   UNL     1      -4.572  -1.149  23.530  0.00  0.00    -0.276 OA
ATOM      4  N   UNL     1      -4.591   0.244  25.398  0.00  0.00    -0.315 N 
ATOM     23  C   UNL     1      -4.253  -0.908  24.691  0.00  0.00    +0.216 C 
ATOM     33  H   UNL     1      -4.212   0.366  26.333  0.00  0.00    +0.149 HD
BRANCH  23  15
ATOM     15  C   UNL     1      -3.415  -1.856  25.493  0.00  0.00    +0.075 C 
ATOM     18  C   UNL     1      -2.188  -1.131  26.060  0.00  0.00    +0.013 C 
ATOM     19  C   UNL     1      -2.876  -2.981  24.609  0.00  0.00    +0.013 C 
ATOM     21  C   UNL     1      -0.977  -1.918  25.571  0.00  0.00    +0.001 C 
ATOM     22  C   UNL     1      -1.450  -2.562  24.281  0.00  0.00    +0.001 C 
ENDBRANCH  23  15
ENDBRANCH  13   4
ENDBRANCH   7  13
BRANCH   9  14
ATOM     14  C   UNL     1      -0.579   1.919  24.546  0.00  0.00    +0.103 C 
BRANCH  14  24
ATOM      2  O   UNL     1       1.619   2.153  23.563  0.00  0.00    -0.276 OA
ATOM      5  N   UNL     1       0.333   0.286  23.057  0.00  0.00    -0.311 N 
ATOM     24  C   UNL     1       0.588   1.497  23.683  0.00  0.00    +0.214 C 
ATOM     34  H   UNL     1      -0.552  -0.187  23.221  0.00  0.00    +0.149 HD
BRANCH   5  25
ATOM     25  C   UNL     1       1.273  -0.358  22.169  0.00  0.00    +0.139 C 
BRANCH  25  26
ATOM     26  C   UNL     1       2.676  -0.304  22.702  0.00  0.00    -0.030 A 
ATOM     27  C   UNL     1       3.171  -1.357  23.470  0.00  0.00    +0.009 A 
ATOM     28  C   UNL     1       3.484   0.799  22.428  0.00  0.00    +0.009 A 
ATOM     29  C   UNL     1       4.474  -1.308  23.965  0.00  0.00    +0.046 A 
ATOM     30  C   UNL     1       4.787   0.849  22.923  0.00  0.00    +0.046 A 
ATOM     31  C   UNL     1       5.282  -0.205  23.692  0.00  0.00    +0.120 A 
BRANCH  31   3
ATOM      3  O   UNL     1       6.554  -0.156  24.174  0.00  0.00    -0.495 OA
ATOM     32  C   UNL     1       7.612  -0.354  23.237  0.00  0.00    +0.277 C 
ENDBRANCH  31   3
ENDBRANCH  25  26
ENDBRANCH   5  25
ENDBRANCH  14  24
ENDBRANCH   9  14
TORSDOF 9
ENDMDL
MODEL 4
REMARK VINA RESULT:      -1.4      1.881      4.915
REMARK  Name = 38027871
REMARK  13 active torsions:
REMARK  status: ('A' for Active; 'I' for Inactive)
REMARK    1  A    between atoms: O_3  and  C_31
REMARK    2  A    between atoms: O_3  and  C_32
REMARK    3  A    between atoms: N_4  and  C_13
REMARK    4  A    between atoms: N_5  and  C_25
REMARK    5  A    between atoms: C_6  and  C_10
REMARK    6  A    between atoms: C_7  and  C_13
REMARK    7  A    between atoms: C_9  and  C_14
REMARK    8  A    between atoms: C_10  and  C_16
REMARK    9  A    between atoms: C_10  and  C_17
REMARK   10  A    between atoms: C_11  and  C_20
REMARK   11  A    between atoms: C_14  and  C_24
REMARK   12  A    between atoms: C_15  and  C_23
REMARK   13  A    between atoms: C_25  and  C_26
REMARK                            x       y       z     vdW  Elec       q    Type
REMARK                         _______ _______ _______ _____ _____    ______ ____
ROOT
ATOM      6  C   UNL     1      -2.217   2.342  23.571  0.00  0.00    +0.000 C 
ATOM      7  C   UNL     1      -0.821   2.950  23.862  0.00  0.00    +0.032 C 
ATOM      8  C   UNL     1      -3.215   3.447  23.193  0.00  0.00    +0.012 C 
ATOM      9  C   UNL     1      -3.365   4.503  24.305  0.00  0.00    +0.023 C 
ATOM     11  C   UNL     1      -2.020   4.957  24.835  0.00  0.00    -0.073 C 
ATOM     12  C   UNL     1      -0.893   4.258  24.615  0.00  0.00    -0.022 C 
ATOM     20  C   UNL     1      -1.993   6.260  25.585  0.00  0.00    +0.039 C 
ENDROOT
BRANCH   6  10
ATOM     10  C   UNL     1      -2.159   1.293  22.455  0.00  0.00    -0.013 C 
ATOM     16  C   UNL     1      -3.213   0.214  22.684  0.00  0.00    +0.007 C 
ATOM     17  C   UNL     1      -2.348   1.953  21.093  0.00  0.00    +0.007 C 
ENDBRANCH   6  10
BRANCH   7  13
ATOM     13  C   UNL     1       0.061   1.964  24.634  0.00  0.00    +0.112 C 
BRANCH  13   4
ATOM      1  O   UNL     1       0.547  -0.592  23.343  0.00  0.00    -0.276 OA
ATOM      4  N   UNL     1       1.199   1.585  23.857  0.00  0.00    -0.315 N 
ATOM     23  C   UNL     1       1.354   0.331  23.270  0.00  0.00    +0.216 C 
ATOM     33  H   UNL     1       1.902   2.296  23.671  0.00  0.00    +0.149 HD
BRANCH  23  15
ATOM     15  C   UNL     1       2.627   0.208  22.491  0.00  0.00    +0.075 C 
ATOM     18  C   UNL     1       3.416  -1.023  22.952  0.00  0.00    +0.013 C 
ATOM     19  C   UNL     1       3.533   1.415  22.743  0.00  0.00    +0.013 C 
ATOM     21  C   UNL     1       4.791  -0.507  23.362  0.00  0.00    +0.001 C 
ATOM     22  C   UNL     1       4.539   0.931  23.777  0.00  0.00    +0.001 C 
ENDBRANCH  23  15
ENDBRANCH  13   4
ENDBRANCH   7  13
BRANCH   9  14
ATOM     14  C   UNL     1      -4.255   3.985  25.441  0.00  0.00    +0.103 C 
BRANCH  14  24
ATOM      2  O   UNL     1      -5.815   2.582  24.236  0.00  0.00    -0.276 OA
ATOM      5  N   UNL     1      -4.421   1.632  25.834  0.00  0.00    -0.311 N 
ATOM     24  C   UNL     1      -4.932   2.681  25.082  0.00  0.00    +0.214 C 
ATOM     34  H   UNL     1      -3.686   1.813  26.511  0.00  0.00    +0.149 HD
BRANCH   5  25
ATOM     25  C   UNL     1      -4.884   0.270  25.704  0.00  0.00    +0.139 C 
BRANCH  25  26
ATOM     26  C   UNL     1      -3.749  -0.692  25.502  0.00  0.00    -0.030 A 
ATOM     27  C   UNL     1      -3.968  -1.900  24.841  0.00  0.00    +0.009 A 
ATOM     28  C   UNL     1      -2.475  -0.376  25.975  0.00  0.00    +0.009 A 
ATOM     29  C   UNL     1      -2.912  -2.793  24.652  0.00  0.00    +0.046 A 
ATOM     30  C   UNL     1      -1.421  -1.269  25.788  0.00  0.00    +0.046 A 
ATOM     31  C   UNL     1      -1.639  -2.478  25.126  0.00  0.00    +0.120 A 
BRANCH  31   3
ATOM      3  O   UNL     1      -0.609  -3.349  24.942  0.00  0.00    -0.495 OA
ATOM     32  C   UNL     1       0.655  -2.985  25.494  0.00  0.00    +0.277 C 
ENDBRANCH  31   3
ENDBRANCH  25  26
ENDBRANCH   5  25
ENDBRANCH  14  24
ENDBRANCH   9  14
TORSDOF 9
ENDMDL
MODEL 5
REMARK VINA RESULT:      -1.3      1.730      7.016
REMARK  Name = 38027871
REMARK  13 active torsions:
REMARK  status: ('A' for Active; 'I' for Inactive)
REMARK    1  A    between atoms: O_3  and  C_31
REMARK    2  A    between atoms: O_3  and  C_32
REMARK    3  A    between atoms: N_4  and  C_13
REMARK    4  A    between atoms: N_5  and  C_25
REMARK    5  A    between atoms: C_6  and  C_10
REMARK    6  A    between atoms: C_7  and  C_13
REMARK    7  A    between atoms: C_9  and  C_14
REMARK    8  A    between atoms: C_10  and  C_16
REMARK    9  A    between atoms: C_10  and  C_17
REMARK   10  A    between atoms: C_11  and  C_20
REMARK   11  A    between atoms: C_14  and  C_24
REMARK   12  A    between atoms: C_15  and  C_23
REMARK   13  A    between atoms: C_25  and  C_26
REMARK                            x       y       z     vdW  Elec       q    Type
REMARK                         _______ _______ _______ _____ _____    ______ ____
ROOT
ATOM      6  C   UNL     1      -3.650   3.073  25.534  0.00  0.00    +0.000 C 
ATOM      7  C   UNL     1      -3.670   3.080  23.985  0.00  0.00    +0.032 C 
ATOM      8  C   UNL     1      -2.824   4.254  26.066  0.00  0.00    +0.012 C 
ATOM      9  C   UNL     1      -1.370   4.223  25.559  0.00  0.00    +0.023 C 
ATOM     11  C   UNL     1      -1.299   3.963  24.067  0.00  0.00    -0.073 C 
ATOM     12  C   UNL     1      -2.341   3.465  23.379  0.00  0.00    -0.022 C 
ATOM     20  C   UNL     1      -0.016   4.332  23.377  0.00  0.00    +0.039 C 
ENDROOT
BRANCH   6  10
ATOM     10  C   UNL     1      -5.065   3.124  26.122  0.00  0.00    -0.013 C 
ATOM     16  C   UNL     1      -5.843   4.297  25.534  0.00  0.00    +0.007 C 
ATOM     17  C   UNL     1      -5.795   1.810  25.868  0.00  0.00    +0.007 C 
ENDBRANCH   6  10
BRANCH   7  13
ATOM     13  C   UNL     1      -4.109   1.720  23.431  0.00  0.00    +0.112 C 
BRANCH  13   4
ATOM      1  O   UNL     1      -5.178  -0.931  23.941  0.00  0.00    -0.276 OA
ATOM      4  N   UNL     1      -3.483   0.654  24.148  0.00  0.00    -0.315 N 
ATOM     23  C   UNL     1      -4.070  -0.594  24.347  0.00  0.00    +0.216 C 
ATOM     33  H   UNL     1      -2.530   0.797  24.472  0.00  0.00    +0.149 HD
BRANCH  23  15
ATOM     15  C   UNL     1      -3.188  -1.535  25.110  0.00  0.00    +0.075 C 
ATOM     18  C   UNL     1      -1.738  -1.413  24.627  0.00  0.00    +0.013 C 
ATOM     19  C   UNL     1      -3.602  -2.985  24.859  0.00  0.00    +0.013 C 
ATOM     21  C   UNL     1      -1.320  -2.817  24.206  0.00  0.00    +0.001 C 
ATOM     22  C   UNL     1      -2.622  -3.488  23.808  0.00  0.00    +0.001 C 
ENDBRANCH  23  15
ENDBRANCH  13   4
ENDBRANCH   7  13
BRANCH   9  14
ATOM     14  C   UNL     1      -0.537   3.196  26.335  0.00  0.00    +0.103 C 
BRANCH  14  24
ATOM      2  O   UNL     1      -1.190   0.882  26.061  0.00  0.00    -0.276 OA
ATOM      5  N   UNL     1       0.295   1.838  24.551  0.00  0.00    -0.311 N 
ATOM     24  C   UNL     1      -0.536   1.842  25.662  0.00  0.00    +0.214 C 
ATOM     34  H   UNL     1       0.795   2.685  24.296  0.00  0.00    +0.149 HD
BRANCH   5  25
ATOM     25  C   UNL     1       0.491   0.675  23.716  0.00  0.00    +0.139 C 
BRANCH  25  26
ATOM     26  C   UNL     1       1.946   0.418  23.445  0.00  0.00    -0.030 A 
ATOM     27  C   UNL     1       2.475  -0.858  23.632  0.00  0.00    +0.009 A 
ATOM     28  C   UNL     1       2.767   1.457  23.007  0.00  0.00    +0.009 A 
ATOM     29  C   UNL     1       3.826  -1.097  23.380  0.00  0.00    +0.046 A 
ATOM     30  C   UNL     1       4.118   1.218  22.756  0.00  0.00    +0.046 A 
ATOM     31  C   UNL     1       4.648  -0.059  22.942  0.00  0.00    +0.120 A 
BRANCH  31   3
ATOM      3  O   UNL     1       5.966  -0.292  22.695  0.00  0.00    -0.495 OA
ATOM     32  C   UNL     1       6.817  -0.469  23.825  0.00  0.00    +0.277 C 
ENDBRANCH  31   3
ENDBRANCH  25  26
ENDBRANCH   5  25
ENDBRANCH  14  24
ENDBRANCH   9  14
TORSDOF 9
ENDMDL
MODEL 6
REMARK VINA RESULT:      -0.7      1.597      3.388
REMARK  Name = 38027871
REMARK  13 active torsions:
REMARK  status: ('A' for Active; 'I' for Inactive)
REMARK    1  A    between atoms: O_3  and  C_31
REMARK    2  A    between atoms: O_3  and  C_32
REMARK    3  A    between atoms: N_4  and  C_13
REMARK    4  A    between atoms: N_5  and  C_25
REMARK    5  A    between atoms: C_6  and  C_10
REMARK    6  A    between atoms: C_7  and  C_13
REMARK    7  A    between atoms: C_9  and  C_14
REMARK    8  A    between atoms: C_10  and  C_16
REMARK    9  A    between atoms: C_10  and  C_17
REMARK   10  A    between atoms: C_11  and  C_20
REMARK   11  A    between atoms: C_14  and  C_24
REMARK   12  A    between atoms: C_15  and  C_23
REMARK   13  A    between atoms: C_25  and  C_26
REMARK                            x       y       z     vdW  Elec       q    Type
REMARK                         _______ _______ _______ _____ _____    ______ ____
ROOT
ATOM      6  C   UNL     1      -2.954  -0.965  24.884  0.00  0.00    +0.000 C 
ATOM      7  C   UNL     1      -1.916  -0.217  24.010  0.00  0.00    +0.032 C 
ATOM      8  C   UNL     1      -4.363  -0.817  24.289  0.00  0.00    +0.012 C 
ATOM      9  C   UNL     1      -4.795   0.657  24.173  0.00  0.00    +0.023 C 
ATOM     11  C   UNL     1      -3.707   1.516  23.561  0.00  0.00    -0.073 C 
ATOM     12  C   UNL     1      -2.430   1.103  23.484  0.00  0.00    -0.022 C 
ATOM     20  C   UNL     1      -4.131   2.843  22.996  0.00  0.00    +0.039 C 
ENDROOT
BRANCH   6  10
ATOM     10  C   UNL     1      -2.608  -2.451  25.032  0.00  0.00    -0.013 C 
ATOM     16  C   UNL     1      -3.785  -3.317  24.598  0.00  0.00    +0.007 C 
ATOM     17  C   UNL     1      -1.360  -2.789  24.223  0.00  0.00    +0.007 C 
ENDBRANCH   6  10
BRANCH   7  13
ATOM     13  C   UNL     1      -0.610   0.013  24.777  0.00  0.00    +0.112 C 
BRANCH  13   4
ATOM      1  O   UNL     1       1.551   1.690  23.804  0.00  0.00    -0.276 OA
ATOM      4  N   UNL     1       0.516  -0.389  23.995  0.00  0.00    -0.315 N 
ATOM     23  C   UNL     1       1.513   0.486  23.568  0.00  0.00    +0.216 C 
ATOM     33  H   UNL     1       0.625  -1.380  23.797  0.00  0.00    +0.149 HD
BRANCH  23  15
ATOM     15  C   UNL     1       2.590  -0.201  22.784  0.00  0.00    +0.075 C 
ATOM     18  C   UNL     1       3.278  -1.266  23.646  0.00  0.00    +0.013 C 
ATOM     19  C   UNL     1       3.681   0.792  22.381  0.00  0.00    +0.013 C 
ATOM     21  C   UNL     1       4.762  -0.917  23.634  0.00  0.00    +0.001 C 
ATOM     22  C   UNL     1       4.788   0.583  23.404  0.00  0.00    +0.001 C 
ENDBRANCH  23  15
ENDBRANCH  13   4
ENDBRANCH   7  13
BRANCH   9  14
ATOM     14  C   UNL     1      -5.231   1.212  25.534  0.00  0.00    +0.103 C 
BRANCH  14  24
ATOM      2  O   UNL     1      -5.586   3.600  25.363  0.00  0.00    -0.276 OA
ATOM      5  N   UNL     1      -3.601   2.800  26.270  0.00  0.00    -0.311 N 
ATOM     24  C   UNL     1      -4.859   2.669  25.698  0.00  0.00    +0.214 C 
ATOM     34  H   UNL     1      -3.074   1.967  26.517  0.00  0.00    +0.149 HD
BRANCH   5  25
ATOM     25  C   UNL     1      -2.987   4.079  26.542  0.00  0.00    +0.139 C 
BRANCH  25  26
ATOM     26  C   UNL     1      -1.894   4.397  25.563  0.00  0.00    -0.030 A 
ATOM     27  C   UNL     1      -0.981   3.410  25.193  0.00  0.00    +0.009 A 
ATOM     28  C   UNL     1      -1.792   5.679  25.023  0.00  0.00    +0.009 A 
ATOM     29  C   UNL     1       0.035   3.705  24.283  0.00  0.00    +0.046 A 
ATOM     30  C   UNL     1      -0.776   5.974  24.114  0.00  0.00    +0.046 A 
ATOM     31  C   UNL     1       0.137   4.987  23.744  0.00  0.00    +0.120 A 
BRANCH  31   3
ATOM      3  O   UNL     1       1.127   5.275  22.855  0.00  0.00    -0.495 OA
ATOM     32  C   UNL     1       0.772   6.059  21.718  0.00  0.00    +0.277 C 
ENDBRANCH  31   3
ENDBRANCH  25  26
ENDBRANCH   5  25
ENDBRANCH  14  24
ENDBRANCH   9  14
TORSDOF 9
ENDMDL
MODEL 7
REMARK VINA RESULT:      -0.2      1.741      7.402
REMARK  Name = 38027871
REMARK  13 active torsions:
REMARK  status: ('A' for Active; 'I' for Inactive)
REMARK    1  A    between atoms: O_3  and  C_31
REMARK    2  A    between atoms: O_3  and  C_32
REMARK    3  A    between atoms: N_4  and  C_13
REMARK    4  A    between atoms: N_5  and  C_25
REMARK    5  A    between atoms: C_6  and  C_10
REMARK    6  A    between atoms: C_7  and  C_13
REMARK    7  A    between atoms: C_9  and  C_14
REMARK    8  A    between atoms: C_10  and  C_16
REMARK    9  A    between atoms: C_10  and  C_17
REMARK   10  A    between atoms: C_11  and  C_20
REMARK   11  A    between atoms: C_14  and  C_24
REMARK   12  A    between atoms: C_15  and  C_23
REMARK   13  A    between atoms: C_25  and  C_26
REMARK                            x       y       z     vdW  Elec       q    Type
REMARK                         _______ _______ _______ _____ _____    ______ ____
ROOT
ATOM      6  C   UNL     1      -2.827   3.561  24.928  0.00  0.00    +0.000 C 
ATOM      7  C   UNL     1      -3.924   3.352  23.854  0.00  0.00    +0.032 C 
ATOM      8  C   UNL     1      -1.435   3.570  24.278  0.00  0.00    +0.012 C 
ATOM      9  C   UNL     1      -1.135   2.262  23.522  0.00  0.00    +0.023 C 
ATOM     11  C   UNL     1      -2.294   1.845  22.638  0.00  0.00    -0.073 C 
ATOM     12  C   UNL     1      -3.529   2.353  22.792  0.00  0.00    -0.022 C 
ATOM     20  C   UNL     1      -1.988   0.864  21.541  0.00  0.00    +0.039 C 
ENDROOT
BRANCH   6  10
ATOM     10  C   UNL     1      -3.040   4.859  25.715  0.00  0.00    -0.013 C 
ATOM     16  C   UNL     1      -3.132   4.566  27.209  0.00  0.00    +0.007 C 
ATOM     17  C   UNL     1      -1.914   5.847  25.426  0.00  0.00    +0.007 C 
ENDBRANCH   6  10
BRANCH   7  13
ATOM     13  C   UNL     1      -5.248   2.921  24.493  0.00  0.00    +0.112 C 
BRANCH  13   4
ATOM      1  O   UNL     1      -3.373   1.242  25.940  0.00  0.00    -0.276 OA
ATOM      4  N   UNL     1      -5.297   1.502  24.652  0.00  0.00    -0.315 N 
ATOM     23  C   UNL     1      -4.351   0.770  25.367  0.00  0.00    +0.216 C 
ATOM     33  H   UNL     1      -6.104   1.011  24.277  0.00  0.00    +0.149 HD
BRANCH  23  15
ATOM     15  C   UNL     1      -4.654  -0.697  25.397  0.00  0.00    +0.075 C 
ATOM     18  C   UNL     1      -3.568  -1.448  26.176  0.00  0.00    +0.013 C 
ATOM     19  C   UNL     1      -4.645  -1.279  23.983  0.00  0.00    +0.013 C 
ATOM     21  C   UNL     1      -3.032  -2.511  25.225  0.00  0.00    +0.001 C 
ATOM     22  C   UNL     1      -3.276  -1.930  23.844  0.00  0.00    +0.001 C 
ENDBRANCH  23  15
ENDBRANCH  13   4
ENDBRANCH   7  13
BRANCH   9  14
ATOM     14  C   UNL     1      -0.755   1.138  24.493  0.00  0.00    +0.103 C 
BRANCH  14  24
ATOM      2  O   UNL     1       0.090  -1.103  24.156  0.00  0.00    -0.276 OA
ATOM      5  N   UNL     1       0.878   0.629  22.822  0.00  0.00    -0.311 N 
ATOM     24  C   UNL     1       0.098   0.080  23.831  0.00  0.00    +0.214 C 
ATOM     34  H   UNL     1       0.812   1.623  22.623  0.00  0.00    +0.149 HD
BRANCH   5  25
ATOM     25  C   UNL     1       1.793  -0.150  22.021  0.00  0.00    +0.139 C 
BRANCH  25  26
ATOM     26  C   UNL     1       3.172  -0.181  22.615  0.00  0.00    -0.030 A 
ATOM     27  C   UNL     1       3.993   0.943  22.532  0.00  0.00    +0.009 A 
ATOM     28  C   UNL     1       3.631  -1.336  23.250  0.00  0.00    +0.009 A 
ATOM     29  C   UNL     1       5.274   0.914  23.084  0.00  0.00    +0.046 A 
ATOM     30  C   UNL     1       4.912  -1.365  23.801  0.00  0.00    +0.046 A 
ATOM     31  C   UNL     1       5.733  -0.240  23.719  0.00  0.00    +0.120 A 
BRANCH  31   3
ATOM      3  O   UNL     1       6.982  -0.269  24.259  0.00  0.00    -0.495 OA
ATOM     32  C   UNL     1       8.083  -0.243  23.351  0.00  0.00    +0.277 C 
ENDBRANCH  31   3
ENDBRANCH  25  26
ENDBRANCH   5  25
ENDBRANCH  14  24
ENDBRANCH   9  14
TORSDOF 9
ENDMDL
