MODEL 1
REMARK VINA RESULT:      -4.4      0.000      0.000
REMARK  Name = 11885997
REMARK  6 active torsions:
REMARK  status: ('A' for Active; 'I' for Inactive)
REMARK    1  A    between atoms: S_1  and  C_24
REMARK    2  A    between atoms: S_1  and  C_25
REMARK    3  A    between atoms: O_4  and  C_14
REMARK    4  A    between atoms: O_4  and  C_23
REMARK    5  A    between atoms: N_6  and  C_13
REMARK    6  A    between atoms: N_7  and  C_17
REMARK                            x       y       z     vdW  Elec       q    Type
REMARK                         _______ _______ _______ _____ _____    ______ ____
ROOT
ATOM      2  O   UNL     1      -1.335   2.194  26.001  0.00  0.00    -0.368 OA
ATOM      3  O   UNL     1      -1.508   4.877  24.473  0.00  0.00    -0.368 OA
ATOM     11  C   UNL     1      -2.384   3.728  24.519  0.00  0.00    +0.177 C 
ATOM     12  C   UNL     1      -1.495   2.503  24.607  0.00  0.00    +0.192 C 
ATOM     13  C   UNL     1      -3.157   3.732  25.824  0.00  0.00    +0.168 C 
ATOM     14  C   UNL     1      -0.203   2.985  23.991  0.00  0.00    +0.235 C 
ATOM     15  C   UNL     1      -2.201   3.031  26.783  0.00  0.00    +0.190 C 
ATOM     16  C   UNL     1      -0.148   4.422  24.451  0.00  0.00    +0.207 C 
ENDROOT
BRANCH  13   6
ATOM      6  N   UNL     1      -4.480   3.115  25.694  0.00  0.00    -0.212 N 
ATOM      8  N   UNL     1      -5.470   3.470  26.520  0.00  0.00    -0.043 NA
ATOM      9  N   UNL     1      -6.176   1.924  25.077  0.00  0.00    -0.101 NA
ATOM     10  N   UNL     1      -6.508   2.736  26.137  0.00  0.00    -0.022 NA
ATOM     24  C   UNL     1      -4.914   2.176  24.819  0.00  0.00    +0.214 A 
BRANCH  24   1
ATOM      1  S   UNL     1      -3.931   1.470  23.597  0.00  0.00    -0.049 S 
BRANCH   1  25
ATOM     25  C   UNL     1      -3.764  -0.186  24.269  0.00  0.00    +0.016 A 
ATOM     26  C   UNL     1      -4.047  -1.283  23.465  0.00  0.00    +0.015 A 
ATOM     27  C   UNL     1      -3.353  -0.354  25.586  0.00  0.00    +0.015 A 
ATOM     28  C   UNL     1      -3.916  -2.570  23.988  0.00  0.00    +0.001 A 
ATOM     29  C   UNL     1      -3.222  -1.641  26.107  0.00  0.00    +0.001 A 
ATOM     30  C   UNL     1      -3.504  -2.748  25.309  0.00  0.00    +0.000 A 
ENDBRANCH   1  25
ENDBRANCH  24   1
ENDBRANCH  13   6
BRANCH  14   4
ATOM      4  O   UNL     1       0.927   2.250  24.403  0.00  0.00    -0.442 OA
BRANCH   4  23
ATOM      5  O   UNL     1       0.611   0.375  23.115  0.00  0.00    -0.226 OA
ATOM      7  N   UNL     1       2.678   1.414  23.276  0.00  0.00    -0.278 N 
ATOM     23  C   UNL     1       1.336   1.260  23.555  0.00  0.00    +0.401 C 
ATOM     31  H   UNL     1       3.170   2.168  23.746  0.00  0.00    +0.152 HD
BRANCH   7  17
ATOM     17  C   UNL     1       3.424   0.530  22.407  0.00  0.00    +0.076 C 
ATOM     18  C   UNL     1       4.926   0.824  22.480  0.00  0.00    +0.022 C 
ATOM     19  C   UNL     1       3.129  -0.939  22.731  0.00  0.00    +0.022 C 
ATOM     20  C   UNL     1       5.546   0.377  23.804  0.00  0.00    +0.002 C 
ATOM     21  C   UNL     1       3.752  -1.382  24.055  0.00  0.00    +0.002 C 
ATOM     22  C   UNL     1       5.249  -1.089  24.099  0.00  0.00    +0.000 C 
ENDBRANCH   7  17
ENDBRANCH   4  23
ENDBRANCH  14   4
TORSDOF 6
ENDMDL
MODEL 2
REMARK VINA RESULT:      -2.8      2.377      6.985
REMARK  Name = 11885997
REMARK  6 active torsions:
REMARK  status: ('A' for Active; 'I' for Inactive)
REMARK    1  A    between atoms: S_1  and  C_24
REMARK    2  A    between atoms: S_1  and  C_25
REMARK    3  A    between atoms: O_4  and  C_14
REMARK    4  A    between atoms: O_4  and  C_23
REMARK    5  A    between atoms: N_6  and  C_13
REMARK    6  A    between atoms: N_7  and  C_17
REMARK                            x       y       z     vdW  Elec       q    Type
REMARK                         _______ _______ _______ _____ _____    ______ ____
ROOT
ATOM      2  O   UNL     1      -2.592   2.517  23.861  0.00  0.00    -0.368 OA
ATOM      3  O   UNL     1      -0.261   3.914  25.334  0.00  0.00    -0.368 OA
ATOM     11  C   UNL     1      -0.776   2.565  25.393  0.00  0.00    +0.177 C 
ATOM     12  C   UNL     1      -2.282   2.666  25.256  0.00  0.00    +0.192 C 
ATOM     13  C   UNL     1      -0.332   1.799  24.162  0.00  0.00    +0.168 C 
ATOM     14  C   UNL     1      -2.569   4.066  25.745  0.00  0.00    +0.235 C 
ATOM     15  C   UNL     1      -1.406   2.156  23.139  0.00  0.00    +0.190 C 
ATOM     16  C   UNL     1      -1.363   4.829  25.247  0.00  0.00    +0.207 C 
ENDROOT
BRANCH  13   6
ATOM      6  N   UNL     1      -0.164   0.367  24.423  0.00  0.00    -0.212 N 
ATOM      8  N   UNL     1      -0.726  -0.188  25.501  0.00  0.00    -0.043 NA
ATOM      9  N   UNL     1       0.389  -1.722  24.327  0.00  0.00    -0.101 NA
ATOM     10  N   UNL     1      -0.384  -1.470  25.438  0.00  0.00    -0.022 NA
ATOM     24  C   UNL     1       0.511  -0.568  23.712  0.00  0.00    +0.214 A 
BRANCH  24   1
ATOM      1  S   UNL     1       1.367  -0.240  22.257  0.00  0.00    -0.049 S 
BRANCH   1  25
ATOM     25  C   UNL     1       3.043  -0.209  22.897  0.00  0.00    +0.016 A 
ATOM     26  C   UNL     1       3.806   0.944  22.763  0.00  0.00    +0.015 A 
ATOM     27  C   UNL     1       3.560  -1.338  23.520  0.00  0.00    +0.015 A 
ATOM     28  C   UNL     1       5.109   0.968  23.260  0.00  0.00    +0.001 A 
ATOM     29  C   UNL     1       4.863  -1.313  24.017  0.00  0.00    +0.001 A 
ATOM     30  C   UNL     1       5.637  -0.161  23.888  0.00  0.00    +0.000 A 
ENDBRANCH   1  25
ENDBRANCH  24   1
ENDBRANCH  13   6
BRANCH  14   4
ATOM      4  O   UNL     1      -3.776   4.600  25.252  0.00  0.00    -0.442 OA
BRANCH   4  23
ATOM      5  O   UNL     1      -5.990   4.232  25.740  0.00  0.00    -0.226 OA
ATOM      7  N   UNL     1      -4.563   2.500  25.153  0.00  0.00    -0.278 N 
ATOM     23  C   UNL     1      -4.883   3.816  25.413  0.00  0.00    +0.401 C 
ATOM     31  H   UNL     1      -3.594   2.289  24.936  0.00  0.00    +0.152 HD
BRANCH   7  17
ATOM     17  C   UNL     1      -5.512   1.411  25.233  0.00  0.00    +0.076 C 
ATOM     18  C   UNL     1      -5.562   0.627  23.918  0.00  0.00    +0.022 C 
ATOM     19  C   UNL     1      -5.196   0.492  26.418  0.00  0.00    +0.022 C 
ATOM     20  C   UNL     1      -4.306  -0.215  23.692  0.00  0.00    +0.002 C 
ATOM     21  C   UNL     1      -3.941  -0.350  26.186  0.00  0.00    +0.002 C 
ATOM     22  C   UNL     1      -4.019  -1.130  24.877  0.00  0.00    +0.000 C 
ENDBRANCH   7  17
ENDBRANCH   4  23
ENDBRANCH  14   4
TORSDOF 6
ENDMDL
MODEL 3
REMARK VINA RESULT:      -2.2      1.217      1.661
REMARK  Name = 11885997
REMARK  6 active torsions:
REMARK  status: ('A' for Active; 'I' for Inactive)
REMARK    1  A    between atoms: S_1  and  C_24
REMARK    2  A    between atoms: S_1  and  C_25
REMARK    3  A    between atoms: O_4  and  C_14
REMARK    4  A    between atoms: O_4  and  C_23
REMARK    5  A    between atoms: N_6  and  C_13
REMARK    6  A    between atoms: N_7  and  C_17
REMARK                            x       y       z     vdW  Elec       q    Type
REMARK                         _______ _______ _______ _____ _____    ______ ____
ROOT
ATOM      2  O   UNL     1      -1.337   2.710  25.226  0.00  0.00    -0.368 OA
ATOM      3  O   UNL     1      -2.579   2.181  22.445  0.00  0.00    -0.368 OA
ATOM     11  C   UNL     1      -3.030   1.875  23.783  0.00  0.00    +0.177 C 
ATOM     12  C   UNL     1      -1.798   1.509  24.587  0.00  0.00    +0.192 C 
ATOM     13  C   UNL     1      -3.555   3.135  24.443  0.00  0.00    +0.168 C 
ATOM     14  C   UNL     1      -0.834   1.038  23.524  0.00  0.00    +0.235 C 
ATOM     15  C   UNL     1      -2.291   3.763  25.021  0.00  0.00    +0.190 C 
ATOM     16  C   UNL     1      -1.165   1.952  22.368  0.00  0.00    +0.207 C 
ENDROOT
BRANCH  13   6
ATOM      6  N   UNL     1      -4.619   2.860  25.411  0.00  0.00    -0.212 N 
ATOM      8  N   UNL     1      -4.714   3.588  26.529  0.00  0.00    -0.043 NA
ATOM      9  N   UNL     1      -6.327   2.050  26.463  0.00  0.00    -0.101 NA
ATOM     10  N   UNL     1      -5.763   3.087  27.170  0.00  0.00    -0.022 NA
ATOM     24  C   UNL     1      -5.601   1.928  25.375  0.00  0.00    +0.214 A 
BRANCH  24   1
ATOM      1  S   UNL     1      -5.812   0.800  24.094  0.00  0.00    -0.049 S 
BRANCH   1  25
ATOM     25  C   UNL     1      -4.677  -0.481  24.633  0.00  0.00    +0.016 A 
ATOM     26  C   UNL     1      -4.085  -0.388  25.887  0.00  0.00    +0.015 A 
ATOM     27  C   UNL     1      -4.401  -1.552  23.792  0.00  0.00    +0.015 A 
ATOM     28  C   UNL     1      -3.203  -1.384  26.306  0.00  0.00    +0.001 A 
ATOM     29  C   UNL     1      -3.520  -2.547  24.212  0.00  0.00    +0.001 A 
ATOM     30  C   UNL     1      -2.920  -2.463  25.468  0.00  0.00    +0.000 A 
ENDBRANCH   1  25
ENDBRANCH  24   1
ENDBRANCH  13   6
BRANCH  14   4
ATOM      4  O   UNL     1       0.518   1.132  23.907  0.00  0.00    -0.442 OA
BRANCH   4  23
ATOM      5  O   UNL     1       1.136  -0.399  22.312  0.00  0.00    -0.226 OA
ATOM      7  N   UNL     1       2.668   1.056  23.267  0.00  0.00    -0.278 N 
ATOM     23  C   UNL     1       1.415   0.509  23.087  0.00  0.00    +0.401 C 
ATOM     31  H   UNL     1       2.766   1.775  23.977  0.00  0.00    +0.152 HD
BRANCH   7  17
ATOM     17  C   UNL     1       3.845   0.622  22.548  0.00  0.00    +0.076 C 
ATOM     18  C   UNL     1       5.117   1.213  23.164  0.00  0.00    +0.022 C 
ATOM     19  C   UNL     1       3.918  -0.908  22.484  0.00  0.00    +0.022 C 
ATOM     20  C   UNL     1       5.460   0.583  24.514  0.00  0.00    +0.002 C 
ATOM     21  C   UNL     1       4.263  -1.534  23.836  0.00  0.00    +0.002 C 
ATOM     22  C   UNL     1       5.538  -0.937  24.424  0.00  0.00    +0.000 C 
ENDBRANCH   7  17
ENDBRANCH   4  23
ENDBRANCH  14   4
TORSDOF 6
ENDMDL
MODEL 4
REMARK VINA RESULT:      -1.5      2.365      7.443
REMARK  Name = 11885997
REMARK  6 active torsions:
REMARK  status: ('A' for Active; 'I' for Inactive)
REMARK    1  A    between atoms: S_1  and  C_24
REMARK    2  A    between atoms: S_1  and  C_25
REMARK    3  A    between atoms: O_4  and  C_14
REMARK    4  A    between atoms: O_4  and  C_23
REMARK    5  A    between atoms: N_6  and  C_13
REMARK    6  A    between atoms: N_7  and  C_17
REMARK                            x       y       z     vdW  Elec       q    Type
REMARK                         _______ _______ _______ _____ _____    ______ ____
ROOT
ATOM      2  O   UNL     1      -2.785   0.420  25.948  0.00  0.00    -0.368 OA
ATOM      3  O   UNL     1      -2.609  -1.479  23.514  0.00  0.00    -0.368 OA
ATOM     11  C   UNL     1      -2.120  -0.137  23.735  0.00  0.00    +0.177 C 
ATOM     12  C   UNL     1      -3.164   0.576  24.571  0.00  0.00    +0.192 C 
ATOM     13  C   UNL     1      -0.891  -0.185  24.621  0.00  0.00    +0.168 C 
ATOM     14  C   UNL     1      -4.427  -0.188  24.250  0.00  0.00    +0.235 C 
ATOM     15  C   UNL     1      -1.488  -0.190  26.025  0.00  0.00    +0.190 C 
ATOM     16  C   UNL     1      -3.914  -1.600  24.098  0.00  0.00    +0.207 C 
ENDROOT
BRANCH  13   6
ATOM      6  N   UNL     1       0.045   0.907  24.341  0.00  0.00    -0.212 N 
ATOM      8  N   UNL     1      -0.119   2.098  24.926  0.00  0.00    -0.043 NA
ATOM      9  N   UNL     1       1.667   2.126  23.591  0.00  0.00    -0.101 NA
ATOM     10  N   UNL     1       0.879   2.842  24.463  0.00  0.00    -0.022 NA
ATOM     24  C   UNL     1       1.131   0.929  23.531  0.00  0.00    +0.214 A 
BRANCH  24   1
ATOM      1  S   UNL     1       1.670  -0.417  22.606  0.00  0.00    -0.049 S 
BRANCH   1  25
ATOM     25  C   UNL     1       3.394  -0.450  23.102  0.00  0.00    +0.016 A 
ATOM     26  C   UNL     1       4.194   0.661  22.871  0.00  0.00    +0.015 A 
ATOM     27  C   UNL     1       3.910  -1.587  23.712  0.00  0.00    +0.015 A 
ATOM     28  C   UNL     1       5.534   0.635  23.257  0.00  0.00    +0.001 A 
ATOM     29  C   UNL     1       5.250  -1.612  24.098  0.00  0.00    +0.001 A 
ATOM     30  C   UNL     1       6.062  -0.502  23.870  0.00  0.00    +0.000 A 
ENDBRANCH   1  25
ENDBRANCH  24   1
ENDBRANCH  13   6
BRANCH  14   4
ATOM      4  O   UNL     1      -5.417  -0.086  25.248  0.00  0.00    -0.442 OA
BRANCH   4  23
ATOM      5  O   UNL     1      -6.616   1.459  26.451  0.00  0.00    -0.226 OA
ATOM      7  N   UNL     1      -4.934   2.090  24.985  0.00  0.00    -0.278 N 
ATOM     23  C   UNL     1      -5.740   1.183  25.639  0.00  0.00    +0.401 C 
ATOM     31  H   UNL     1      -4.277   1.725  24.302  0.00  0.00    +0.152 HD
BRANCH   7  17
ATOM     17  C   UNL     1      -5.018   3.522  25.175  0.00  0.00    +0.076 C 
ATOM     18  C   UNL     1      -4.354   3.943  26.490  0.00  0.00    +0.022 C 
ATOM     19  C   UNL     1      -4.414   4.271  23.982  0.00  0.00    +0.022 C 
ATOM     20  C   UNL     1      -2.830   3.834  26.436  0.00  0.00    +0.002 C 
ATOM     21  C   UNL     1      -2.890   4.161  23.933  0.00  0.00    +0.002 C 
ATOM     22  C   UNL     1      -2.251   4.597  25.249  0.00  0.00    +0.000 C 
ENDBRANCH   7  17
ENDBRANCH   4  23
ENDBRANCH  14   4
TORSDOF 6
ENDMDL
MODEL 5
REMARK VINA RESULT:      -0.9      1.482      2.191
REMARK  Name = 11885997
REMARK  6 active torsions:
REMARK  status: ('A' for Active; 'I' for Inactive)
REMARK    1  A    between atoms: S_1  and  C_24
REMARK    2  A    between atoms: S_1  and  C_25
REMARK    3  A    between atoms: O_4  and  C_14
REMARK    4  A    between atoms: O_4  and  C_23
REMARK    5  A    between atoms: N_6  and  C_13
REMARK    6  A    between atoms: N_7  and  C_17
REMARK                            x       y       z     vdW  Elec       q    Type
REMARK                         _______ _______ _______ _____ _____    ______ ____
ROOT
ATOM      2  O   UNL     1      -1.970   3.162  26.370  0.00  0.00    -0.368 OA
ATOM      3  O   UNL     1      -2.579   5.470  24.404  0.00  0.00    -0.368 OA
ATOM     11  C   UNL     1      -3.102   4.128  24.516  0.00  0.00    +0.177 C 
ATOM     12  C   UNL     1      -1.946   3.241  24.935  0.00  0.00    +0.192 C 
ATOM     13  C   UNL     1      -4.075   4.058  25.677  0.00  0.00    +0.168 C 
ATOM     14  C   UNL     1      -0.742   4.007  24.440  0.00  0.00    +0.235 C 
ATOM     15  C   UNL     1      -3.160   3.792  26.867  0.00  0.00    +0.190 C 
ATOM     16  C   UNL     1      -1.167   5.441  24.655  0.00  0.00    +0.207 C 
ENDROOT
BRANCH  13   6
ATOM      6  N   UNL     1      -5.132   3.066  25.463  0.00  0.00    -0.212 N 
ATOM      8  N   UNL     1      -6.309   3.195  26.085  0.00  0.00    -0.043 NA
ATOM      9  N   UNL     1      -6.299   1.366  24.808  0.00  0.00    -0.101 NA
ATOM     10  N   UNL     1      -7.021   2.149  25.680  0.00  0.00    -0.022 NA
ATOM     24  C   UNL     1      -5.131   1.954  24.688  0.00  0.00    +0.214 A 
BRANCH  24   1
ATOM      1  S   UNL     1      -3.795   1.449  23.730  0.00  0.00    -0.049 S 
BRANCH   1  25
ATOM     25  C   UNL     1      -3.619  -0.234  24.327  0.00  0.00    +0.016 A 
ATOM     26  C   UNL     1      -4.033  -1.291  23.527  0.00  0.00    +0.015 A 
ATOM     27  C   UNL     1      -3.071  -0.463  25.583  0.00  0.00    +0.015 A 
ATOM     28  C   UNL     1      -3.896  -2.600  23.991  0.00  0.00    +0.001 A 
ATOM     29  C   UNL     1      -2.934  -1.771  26.046  0.00  0.00    +0.001 A 
ATOM     30  C   UNL     1      -3.346  -2.839  25.251  0.00  0.00    +0.000 A 
ENDBRANCH   1  25
ENDBRANCH  24   1
ENDBRANCH  13   6
BRANCH  14   4
ATOM      4  O   UNL     1       0.448   3.695  25.128  0.00  0.00    -0.442 OA
BRANCH   4  23
ATOM      5  O   UNL     1       0.533   1.887  26.540  0.00  0.00    -0.226 OA
ATOM      7  N   UNL     1       0.964   1.686  24.270  0.00  0.00    -0.278 N 
ATOM     23  C   UNL     1       0.638   2.375  25.420  0.00  0.00    +0.401 C 
ATOM     31  H   UNL     1       1.061   2.225  23.415  0.00  0.00    +0.152 HD
BRANCH   7  17
ATOM     17  C   UNL     1       1.230   0.265  24.233  0.00  0.00    +0.076 C 
ATOM     18  C   UNL     1       0.049  -0.500  23.628  0.00  0.00    +0.022 C 
ATOM     19  C   UNL     1       2.530  -0.032  23.477  0.00  0.00    +0.022 C 
ATOM     20  C   UNL     1      -0.082  -0.278  22.121  0.00  0.00    +0.002 C 
ATOM     21  C   UNL     1       2.395   0.190  21.971  0.00  0.00    +0.002 C 
ATOM     22  C   UNL     1       1.220  -0.591  21.390  0.00  0.00    +0.000 C 
ENDBRANCH   7  17
ENDBRANCH   4  23
ENDBRANCH  14   4
TORSDOF 6
ENDMDL
MODEL 6
REMARK VINA RESULT:      -0.6      1.773      4.043
REMARK  Name = 11885997
REMARK  6 active torsions:
REMARK  status: ('A' for Active; 'I' for Inactive)
REMARK    1  A    between atoms: S_1  and  C_24
REMARK    2  A    between atoms: S_1  and  C_25
REMARK    3  A    between atoms: O_4  and  C_14
REMARK    4  A    between atoms: O_4  and  C_23
REMARK    5  A    between atoms: N_6  and  C_13
REMARK    6  A    between atoms: N_7  and  C_17
REMARK                            x       y       z     vdW  Elec       q    Type
REMARK                         _______ _______ _______ _____ _____    ______ ____
ROOT
ATOM      2  O   UNL     1      -2.146   0.421  24.480  0.00  0.00    -0.368 OA
ATOM      3  O   UNL     1      -4.021  -1.993  24.945  0.00  0.00    -0.368 OA
ATOM     11  C   UNL     1      -3.980  -0.670  25.525  0.00  0.00    +0.177 C 
ATOM     12  C   UNL     1      -2.517  -0.299  25.666  0.00  0.00    +0.192 C 
ATOM     13  C   UNL     1      -4.534   0.336  24.535  0.00  0.00    +0.168 C 
ATOM     14  C   UNL     1      -1.837  -1.646  25.737  0.00  0.00    +0.235 C 
ATOM     15  C   UNL     1      -3.314   0.679  23.686  0.00  0.00    +0.190 C 
ATOM     16  C   UNL     1      -2.679  -2.476  24.796  0.00  0.00    +0.207 C 
ENDROOT
BRANCH  13   6
ATOM      6  N   UNL     1      -5.181   1.473  25.193  0.00  0.00    -0.212 N 
ATOM      8  N   UNL     1      -6.007   1.270  26.225  0.00  0.00    -0.043 NA
ATOM      9  N   UNL     1      -5.846   3.448  25.773  0.00  0.00    -0.101 NA
ATOM     10  N   UNL     1      -6.413   2.485  26.577  0.00  0.00    -0.022 NA
ATOM     24  C   UNL     1      -5.086   2.798  24.923  0.00  0.00    +0.214 A 
BRANCH  24   1
ATOM      1  S   UNL     1      -4.116   3.457  23.665  0.00  0.00    -0.049 S 
BRANCH   1  25
ATOM     25  C   UNL     1      -2.525   3.478  24.494  0.00  0.00    +0.016 A 
ATOM     26  C   UNL     1      -1.362   3.597  23.743  0.00  0.00    +0.015 A 
ATOM     27  C   UNL     1      -2.472   3.376  25.879  0.00  0.00    +0.015 A 
ATOM     28  C   UNL     1      -0.126   3.614  24.388  0.00  0.00    +0.001 A 
ATOM     29  C   UNL     1      -1.235   3.393  26.523  0.00  0.00    +0.001 A 
ATOM     30  C   UNL     1      -0.063   3.512  25.779  0.00  0.00    +0.000 A 
ENDBRANCH   1  25
ENDBRANCH  24   1
ENDBRANCH  13   6
BRANCH  14   4
ATOM      4  O   UNL     1      -0.482  -1.615  25.352  0.00  0.00    -0.442 OA
BRANCH   4  23
ATOM      5  O   UNL     1      -0.696  -1.861  23.079  0.00  0.00    -0.226 OA
ATOM      7  N   UNL     1       0.589  -0.169  24.010  0.00  0.00    -0.278 N 
ATOM     23  C   UNL     1      -0.240  -1.271  24.052  0.00  0.00    +0.401 C 
ATOM     31  H   UNL     1       0.930   0.193  24.895  0.00  0.00    +0.152 HD
BRANCH   7  17
ATOM     17  C   UNL     1       1.039   0.451  22.784  0.00  0.00    +0.076 C 
ATOM     18  C   UNL     1       1.901   1.684  23.074  0.00  0.00    +0.022 C 
ATOM     19  C   UNL     1       1.786  -0.555  21.901  0.00  0.00    +0.022 C 
ATOM     20  C   UNL     1       3.276   1.317  23.632  0.00  0.00    +0.002 C 
ATOM     21  C   UNL     1       3.162  -0.917  22.462  0.00  0.00    +0.002 C 
ATOM     22  C   UNL     1       4.005   0.326  22.732  0.00  0.00    +0.000 C 
ENDBRANCH   7  17
ENDBRANCH   4  23
ENDBRANCH  14   4
TORSDOF 6
ENDMDL
