MODEL 1
REMARK VINA RESULT:      -4.8      0.000      0.000
REMARK  Name = 56774253
REMARK  11 active torsions:
REMARK  status: ('A' for Active; 'I' for Inactive)
REMARK    1  A    between atoms: N_2  and  C_8
REMARK    2  A    between atoms: N_2  and  C_14
REMARK    3  A    between atoms: N_5  and  C_19
REMARK    4  A    between atoms: N_5  and  C_23
REMARK    5  A    between atoms: N_5  and  C_24
REMARK    6  A    between atoms: C_6  and  C_11
REMARK    7  A    between atoms: C_6  and  C_12
REMARK    8  A    between atoms: C_7  and  C_10
REMARK    9  A    between atoms: C_10  and  C_13
REMARK   10  A    between atoms: C_14  and  C_16
REMARK   11  A    between atoms: C_17  and  C_19
REMARK                            x       y       z     vdW  Elec       q    Type
REMARK                         _______ _______ _______ _____ _____    ______ ____
ROOT
ATOM      6  C   UNL     1      -3.920   3.866  24.371  0.00  0.00    -0.016 C 
ATOM      7  C   UNL     1      -2.723   4.020  25.332  0.00  0.00    +0.004 C 
ATOM      8  C   UNL     1      -4.448   2.776  25.326  0.00  0.00    +0.060 C 
ATOM      9  C   UNL     1      -2.986   2.565  25.771  0.00  0.00    +0.023 C 
ATOM     11  C   UNL     1      -4.747   5.125  24.220  0.00  0.00    +0.013 C 
ATOM     12  C   UNL     1      -3.590   3.308  22.997  0.00  0.00    +0.013 C 
ENDROOT
BRANCH   8   2
ATOM      2  N   UNL     1      -4.896   1.595  24.588  0.00  0.00    -0.307 NA
ATOM     30  H   UNL     1      -4.274   1.341  23.819  0.00  0.00    +0.123 HD
BRANCH   2  14
ATOM     14  C   UNL     1      -4.993   0.459  25.497  0.00  0.00    +0.136 C 
BRANCH  14  16
ATOM      4  N   UNL     1      -2.862  -0.691  25.736  0.00  0.00    -0.259 NA
ATOM     16  C   UNL     1      -4.056  -0.654  25.106  0.00  0.00    +0.055 A 
ATOM     18  C   UNL     1      -4.453  -1.567  24.142  0.00  0.00    +0.024 A 
ATOM     20  C   UNL     1      -3.567  -2.583  23.804  0.00  0.00    +0.003 A 
ATOM     21  C   UNL     1      -2.026  -1.693  25.382  0.00  0.00    +0.111 A 
ATOM     22  C   UNL     1      -2.328  -2.654  24.432  0.00  0.00    +0.020 A 
ENDBRANCH  14  16
ENDBRANCH   2  14
ENDBRANCH   8   2
BRANCH   7  10
ATOM     10  C   UNL     1      -1.345   4.259  24.700  0.00  0.00    +0.063 C 
BRANCH  10  13
ATOM      1  O   UNL     1       0.979   1.572  25.059  0.00  0.00    -0.358 OA
ATOM      3  N   UNL     1       0.503   2.836  25.384  0.00  0.00    -0.083 NA
ATOM     13  C   UNL     1      -0.576   3.007  24.615  0.00  0.00    +0.084 A 
ATOM     15  C   UNL     1      -0.827   1.895  23.793  0.00  0.00    +0.072 A 
ATOM     17  C   UNL     1       0.178   1.021  24.112  0.00  0.00    +0.155 A 
BRANCH  17  19
ATOM     19  C   UNL     1       0.548  -0.359  23.638  0.00  0.00    +0.181 C 
BRANCH  19   5
ATOM      5  N   UNL     1       1.594  -0.324  22.636  0.00  0.00    -0.326 N 
ATOM     24  C   UNL     1       1.232  -0.363  21.234  0.00  0.00    +0.129 C 
BRANCH   5  23
ATOM     23  C   UNL     1       2.950  -0.261  23.022  0.00  0.00    +0.030 A 
ATOM     25  C   UNL     1       3.683   0.906  22.804  0.00  0.00    +0.023 A 
ATOM     26  C   UNL     1       3.557  -1.365  23.620  0.00  0.00    +0.023 A 
ATOM     27  C   UNL     1       5.024   0.968  23.185  0.00  0.00    +0.002 A 
ATOM     28  C   UNL     1       4.898  -1.302  24.001  0.00  0.00    +0.002 A 
ATOM     29  C   UNL     1       5.631  -0.136  23.783  0.00  0.00    +0.000 A 
ENDBRANCH   5  23
ENDBRANCH  19   5
ENDBRANCH  17  19
ENDBRANCH  10  13
ENDBRANCH   7  10
TORSDOF 8
ENDMDL
MODEL 2
REMARK VINA RESULT:      -3.6      1.870      7.112
REMARK  Name = 56774253
REMARK  11 active torsions:
REMARK  status: ('A' for Active; 'I' for Inactive)
REMARK    1  A    between atoms: N_2  and  C_8
REMARK    2  A    between atoms: N_2  and  C_14
REMARK    3  A    between atoms: N_5  and  C_19
REMARK    4  A    between atoms: N_5  and  C_23
REMARK    5  A    between atoms: N_5  and  C_24
REMARK    6  A    between atoms: C_6  and  C_11
REMARK    7  A    between atoms: C_6  and  C_12
REMARK    8  A    between atoms: C_7  and  C_10
REMARK    9  A    between atoms: C_10  and  C_13
REMARK   10  A    between atoms: C_14  and  C_16
REMARK   11  A    between atoms: C_17  and  C_19
REMARK                            x       y       z     vdW  Elec       q    Type
REMARK                         _______ _______ _______ _____ _____    ______ ____
ROOT
ATOM      6  C   UNL     1      -0.477  -1.943  24.977  0.00  0.00    -0.016 C 
ATOM      7  C   UNL     1      -1.440  -1.132  25.870  0.00  0.00    +0.004 C 
ATOM      8  C   UNL     1       0.107  -0.592  24.515  0.00  0.00    +0.060 C 
ATOM      9  C   UNL     1      -1.254   0.036  24.880  0.00  0.00    +0.023 C 
ATOM     11  C   UNL     1       0.434  -2.873  25.749  0.00  0.00    +0.013 C 
ATOM     12  C   UNL     1      -1.128  -2.703  23.834  0.00  0.00    +0.013 C 
ENDROOT
BRANCH   8   2
ATOM      2  N   UNL     1       0.273  -0.555  23.061  0.00  0.00    -0.307 NA
ATOM     30  H   UNL     1      -0.603  -0.405  22.559  0.00  0.00    +0.123 HD
BRANCH   2  14
ATOM     14  C   UNL     1       1.199   0.514  22.703  0.00  0.00    +0.136 C 
BRANCH  14  16
ATOM      4  N   UNL     1       2.848  -1.113  23.446  0.00  0.00    -0.259 NA
ATOM     16  C   UNL     1       2.625   0.150  23.022  0.00  0.00    +0.055 A 
ATOM     18  C   UNL     1       3.619   1.104  22.869  0.00  0.00    +0.024 A 
ATOM     20  C   UNL     1       4.925   0.736  23.170  0.00  0.00    +0.003 A 
ATOM     21  C   UNL     1       4.130  -1.434  23.730  0.00  0.00    +0.111 A 
ATOM     22  C   UNL     1       5.194  -0.555  23.609  0.00  0.00    +0.020 A 
ENDBRANCH  14  16
ENDBRANCH   2  14
ENDBRANCH   8   2
BRANCH   7  10
ATOM     10  C   UNL     1      -2.882  -1.645  25.990  0.00  0.00    +0.063 C 
BRANCH  10  13
ATOM      1  O   UNL     1      -5.217   0.180  23.999  0.00  0.00    -0.358 OA
ATOM      3  N   UNL     1      -4.376  -0.903  24.222  0.00  0.00    -0.083 NA
ATOM     13  C   UNL     1      -3.838  -0.680  25.425  0.00  0.00    +0.084 A 
ATOM     15  C   UNL     1      -4.299   0.516  26.003  0.00  0.00    +0.072 A 
ATOM     17  C   UNL     1      -5.163   1.017  25.067  0.00  0.00    +0.155 A 
BRANCH  17  19
ATOM     19  C   UNL     1      -6.020   2.253  24.996  0.00  0.00    +0.181 C 
BRANCH  19   5
ATOM      5  N   UNL     1      -5.241   3.462  25.176  0.00  0.00    -0.326 N 
ATOM     24  C   UNL     1      -5.906   4.673  25.611  0.00  0.00    +0.129 C 
BRANCH   5  23
ATOM     23  C   UNL     1      -3.852   3.460  24.924  0.00  0.00    +0.030 A 
ATOM     25  C   UNL     1      -3.366   2.993  23.703  0.00  0.00    +0.023 A 
ATOM     26  C   UNL     1      -2.967   3.923  25.898  0.00  0.00    +0.023 A 
ATOM     27  C   UNL     1      -1.993   2.991  23.455  0.00  0.00    +0.002 A 
ATOM     28  C   UNL     1      -1.594   3.922  25.649  0.00  0.00    +0.002 A 
ATOM     29  C   UNL     1      -1.108   3.455  24.428  0.00  0.00    +0.000 A 
ENDBRANCH   5  23
ENDBRANCH  19   5
ENDBRANCH  17  19
ENDBRANCH  10  13
ENDBRANCH   7  10
TORSDOF 8
ENDMDL
MODEL 3
REMARK VINA RESULT:      -3.5      1.677      6.921
REMARK  Name = 56774253
REMARK  11 active torsions:
REMARK  status: ('A' for Active; 'I' for Inactive)
REMARK    1  A    between atoms: N_2  and  C_8
REMARK    2  A    between atoms: N_2  and  C_14
REMARK    3  A    between atoms: N_5  and  C_19
REMARK    4  A    between atoms: N_5  and  C_23
REMARK    5  A    between atoms: N_5  and  C_24
REMARK    6  A    between atoms: C_6  and  C_11
REMARK    7  A    between atoms: C_6  and  C_12
REMARK    8  A    between atoms: C_7  and  C_10
REMARK    9  A    between atoms: C_10  and  C_13
REMARK   10  A    between atoms: C_14  and  C_16
REMARK   11  A    between atoms: C_17  and  C_19
REMARK                            x       y       z     vdW  Elec       q    Type
REMARK                         _______ _______ _______ _____ _____    ______ ____
ROOT
ATOM      6  C   UNL     1      -0.286   1.405  24.630  0.00  0.00    -0.016 C 
ATOM      7  C   UNL     1       0.259   2.847  24.571  0.00  0.00    +0.004 C 
ATOM      8  C   UNL     1       1.090   0.946  24.105  0.00  0.00    +0.060 C 
ATOM      9  C   UNL     1       1.238   2.351  23.487  0.00  0.00    +0.023 C 
ATOM     11  C   UNL     1      -0.689   0.961  26.020  0.00  0.00    +0.013 C 
ATOM     12  C   UNL     1      -1.403   1.086  23.652  0.00  0.00    +0.013 C 
ENDROOT
BRANCH   8   2
ATOM      2  N   UNL     1       0.947  -0.035  23.028  0.00  0.00    -0.307 NA
ATOM     30  H   UNL     1       0.096   0.091  22.479  0.00  0.00    +0.123 HD
BRANCH   2  14
ATOM     14  C   UNL     1       2.093   0.057  22.130  0.00  0.00    +0.136 C 
BRANCH  14  16
ATOM      4  N   UNL     1       3.571  -1.385  23.415  0.00  0.00    -0.259 NA
ATOM     16  C   UNL     1       3.393  -0.168  22.855  0.00  0.00    +0.055 A 
ATOM     18  C   UNL     1       4.325   0.856  22.913  0.00  0.00    +0.024 A 
ATOM     20  C   UNL     1       5.515   0.615  23.588  0.00  0.00    +0.003 A 
ATOM     21  C   UNL     1       4.741  -1.583  24.063  0.00  0.00    +0.111 A 
ATOM     22  C   UNL     1       5.735  -0.625  24.177  0.00  0.00    +0.020 A 
ENDBRANCH  14  16
ENDBRANCH   2  14
ENDBRANCH   8   2
BRANCH   7  10
ATOM     10  C   UNL     1      -0.710   3.942  24.104  0.00  0.00    +0.063 C 
BRANCH  10  13
ATOM      1  O   UNL     1      -3.673   3.859  26.096  0.00  0.00    -0.358 OA
ATOM      3  N   UNL     1      -2.349   4.221  25.877  0.00  0.00    -0.083 NA
ATOM     13  C   UNL     1      -2.055   3.737  24.667  0.00  0.00    +0.084 A 
ATOM     15  C   UNL     1      -3.143   3.068  24.080  0.00  0.00    +0.072 A 
ATOM     17  C   UNL     1      -4.134   3.174  25.019  0.00  0.00    +0.155 A 
BRANCH  17  19
ATOM     19  C   UNL     1      -5.562   2.701  25.084  0.00  0.00    +0.181 C 
BRANCH  19   5
ATOM      5  N   UNL     1      -5.681   1.438  25.784  0.00  0.00    -0.326 N 
ATOM     24  C   UNL     1      -6.599   1.332  26.900  0.00  0.00    +0.129 C 
BRANCH   5  23
ATOM     23  C   UNL     1      -4.907   0.326  25.388  0.00  0.00    +0.030 A 
ATOM     25  C   UNL     1      -4.065  -0.300  26.308  0.00  0.00    +0.023 A 
ATOM     26  C   UNL     1      -4.981  -0.144  24.077  0.00  0.00    +0.023 A 
ATOM     27  C   UNL     1      -3.300  -1.399  25.916  0.00  0.00    +0.002 A 
ATOM     28  C   UNL     1      -4.216  -1.242  23.686  0.00  0.00    +0.002 A 
ATOM     29  C   UNL     1      -3.374  -1.869  24.605  0.00  0.00    +0.000 A 
ENDBRANCH   5  23
ENDBRANCH  19   5
ENDBRANCH  17  19
ENDBRANCH  10  13
ENDBRANCH   7  10
TORSDOF 8
ENDMDL
MODEL 4
REMARK VINA RESULT:      -2.6      1.940      7.250
REMARK  Name = 56774253
REMARK  11 active torsions:
REMARK  status: ('A' for Active; 'I' for Inactive)
REMARK    1  A    between atoms: N_2  and  C_8
REMARK    2  A    between atoms: N_2  and  C_14
REMARK    3  A    between atoms: N_5  and  C_19
REMARK    4  A    between atoms: N_5  and  C_23
REMARK    5  A    between atoms: N_5  and  C_24
REMARK    6  A    between atoms: C_6  and  C_11
REMARK    7  A    between atoms: C_6  and  C_12
REMARK    8  A    between atoms: C_7  and  C_10
REMARK    9  A    between atoms: C_10  and  C_13
REMARK   10  A    between atoms: C_14  and  C_16
REMARK   11  A    between atoms: C_17  and  C_19
REMARK                            x       y       z     vdW  Elec       q    Type
REMARK                         _______ _______ _______ _____ _____    ______ ____
ROOT
ATOM      6  C   UNL     1      -1.543  -0.133  23.793  0.00  0.00    -0.016 C 
ATOM      7  C   UNL     1      -2.373  -1.404  24.065  0.00  0.00    +0.004 C 
ATOM      8  C   UNL     1      -0.405  -1.068  23.332  0.00  0.00    +0.060 C 
ATOM      9  C   UNL     1      -1.035  -2.151  24.233  0.00  0.00    +0.023 C 
ATOM     11  C   UNL     1      -2.155   0.787  22.758  0.00  0.00    +0.013 C 
ATOM     12  C   UNL     1      -1.155   0.672  25.021  0.00  0.00    +0.013 C 
ENDROOT
BRANCH   8   2
ATOM      2  N   UNL     1       0.880  -0.662  23.904  0.00  0.00    -0.307 NA
ATOM     30  H   UNL     1       1.393  -1.435  24.329  0.00  0.00    +0.123 HD
BRANCH   2  14
ATOM     14  C   UNL     1       1.713  -0.074  22.861  0.00  0.00    +0.136 C 
BRANCH  14  16
ATOM      4  N   UNL     1       3.905   0.967  23.022  0.00  0.00    -0.259 NA
ATOM     16  C   UNL     1       3.178  -0.157  23.201  0.00  0.00    +0.055 A 
ATOM     18  C   UNL     1       3.699  -1.352  23.671  0.00  0.00    +0.024 A 
ATOM     20  C   UNL     1       5.053  -1.395  23.978  0.00  0.00    +0.003 A 
ATOM     21  C   UNL     1       5.219   0.888  23.330  0.00  0.00    +0.111 A 
ATOM     22  C   UNL     1       5.835  -0.258  23.807  0.00  0.00    +0.020 A 
ENDBRANCH  14  16
ENDBRANCH   2  14
ENDBRANCH   8   2
BRANCH   7  10
ATOM     10  C   UNL     1      -3.266  -1.402  25.314  0.00  0.00    +0.063 C 
BRANCH  10  13
ATOM      1  O   UNL     1      -5.858   0.922  24.520  0.00  0.00    -0.358 OA
ATOM      3  N   UNL     1      -5.099  -0.210  24.252  0.00  0.00    -0.083 NA
ATOM     13  C   UNL     1      -4.239  -0.299  25.270  0.00  0.00    +0.084 A 
ATOM     15  C   UNL     1      -4.407   0.739  26.204  0.00  0.00    +0.072 A 
ATOM     17  C   UNL     1      -5.437   1.478  25.686  0.00  0.00    +0.155 A 
BRANCH  17  19
ATOM     19  C   UNL     1      -6.156   2.722  26.135  0.00  0.00    +0.181 C 
BRANCH  19   5
ATOM      5  N   UNL     1      -5.513   3.924  25.642  0.00  0.00    -0.326 N 
ATOM     24  C   UNL     1      -6.311   5.114  25.426  0.00  0.00    +0.129 C 
BRANCH   5  23
ATOM     23  C   UNL     1      -4.129   3.933  25.370  0.00  0.00    +0.030 A 
ATOM     25  C   UNL     1      -3.214   4.084  26.412  0.00  0.00    +0.023 A 
ATOM     26  C   UNL     1      -3.675   3.793  24.058  0.00  0.00    +0.023 A 
ATOM     27  C   UNL     1      -1.845   4.093  26.142  0.00  0.00    +0.002 A 
ATOM     28  C   UNL     1      -2.307   3.802  23.789  0.00  0.00    +0.002 A 
ATOM     29  C   UNL     1      -1.392   3.952  24.831  0.00  0.00    +0.000 A 
ENDBRANCH   5  23
ENDBRANCH  19   5
ENDBRANCH  17  19
ENDBRANCH  10  13
ENDBRANCH   7  10
TORSDOF 8
ENDMDL
MODEL 5
REMARK VINA RESULT:      -2.2      1.812      5.868
REMARK  Name = 56774253
REMARK  11 active torsions:
REMARK  status: ('A' for Active; 'I' for Inactive)
REMARK    1  A    between atoms: N_2  and  C_8
REMARK    2  A    between atoms: N_2  and  C_14
REMARK    3  A    between atoms: N_5  and  C_19
REMARK    4  A    between atoms: N_5  and  C_23
REMARK    5  A    between atoms: N_5  and  C_24
REMARK    6  A    between atoms: C_6  and  C_11
REMARK    7  A    between atoms: C_6  and  C_12
REMARK    8  A    between atoms: C_7  and  C_10
REMARK    9  A    between atoms: C_10  and  C_13
REMARK   10  A    between atoms: C_14  and  C_16
REMARK   11  A    between atoms: C_17  and  C_19
REMARK                            x       y       z     vdW  Elec       q    Type
REMARK                         _______ _______ _______ _____ _____    ______ ____
ROOT
ATOM      6  C   UNL     1      -0.750   3.468  24.734  0.00  0.00    -0.016 C 
ATOM      7  C   UNL     1      -2.127   3.368  24.046  0.00  0.00    +0.004 C 
ATOM      8  C   UNL     1      -0.207   2.568  23.604  0.00  0.00    +0.060 C 
ATOM      9  C   UNL     1      -1.645   2.033  23.443  0.00  0.00    +0.023 C 
ATOM     11  C   UNL     1      -0.213   4.881  24.823  0.00  0.00    +0.013 C 
ATOM     12  C   UNL     1      -0.647   2.799  26.094  0.00  0.00    +0.013 C 
ENDROOT
BRANCH   8   2
ATOM      2  N   UNL     1       0.641   1.501  24.137  0.00  0.00    -0.307 NA
ATOM     30  H   UNL     1       0.160   0.904  24.812  0.00  0.00    +0.123 HD
BRANCH   2  14
ATOM     14  C   UNL     1       1.120   0.665  23.042  0.00  0.00    +0.136 C 
BRANCH  14  16
ATOM      4  N   UNL     1       3.459   1.329  22.973  0.00  0.00    -0.259 NA
ATOM     16  C   UNL     1       2.579   0.327  23.192  0.00  0.00    +0.055 A 
ATOM     18  C   UNL     1       2.945  -0.964  23.541  0.00  0.00    +0.024 A 
ATOM     20  C   UNL     1       4.299  -1.243  23.673  0.00  0.00    +0.003 A 
ATOM     21  C   UNL     1       4.768   1.020  23.111  0.00  0.00    +0.111 A 
ATOM     22  C   UNL     1       5.235  -0.238  23.456  0.00  0.00    +0.020 A 
ENDBRANCH  14  16
ENDBRANCH   2  14
ENDBRANCH   8   2
BRANCH   7  10
ATOM     10  C   UNL     1      -3.357   3.252  24.957  0.00  0.00    +0.063 C 
BRANCH  10  13
ATOM      1  O   UNL     1      -5.506   0.402  25.067  0.00  0.00    -0.358 OA
ATOM      3  N   UNL     1      -5.148   1.686  25.458  0.00  0.00    -0.083 NA
ATOM     13  C   UNL     1      -4.025   1.952  24.784  0.00  0.00    +0.084 A 
ATOM     15  C   UNL     1      -3.632   0.883  23.959  0.00  0.00    +0.072 A 
ATOM     17  C   UNL     1      -4.596  -0.065  24.174  0.00  0.00    +0.155 A 
BRANCH  17  19
ATOM     19  C   UNL     1      -4.829  -1.453  23.639  0.00  0.00    +0.181 C 
BRANCH  19   5
ATOM      5  N   UNL     1      -3.881  -2.406  24.180  0.00  0.00    -0.326 N 
ATOM     24  C   UNL     1      -4.135  -3.824  24.019  0.00  0.00    +0.129 C 
BRANCH   5  23
ATOM     23  C   UNL     1      -2.729  -1.960  24.861  0.00  0.00    +0.030 A 
ATOM     25  C   UNL     1      -1.468  -2.155  24.299  0.00  0.00    +0.023 A 
ATOM     26  C   UNL     1      -2.852  -1.325  26.097  0.00  0.00    +0.023 A 
ATOM     27  C   UNL     1      -0.328  -1.714  24.973  0.00  0.00    +0.002 A 
ATOM     28  C   UNL     1      -1.713  -0.883  26.770  0.00  0.00    +0.002 A 
ATOM     29  C   UNL     1      -0.451  -1.079  26.208  0.00  0.00    +0.000 A 
ENDBRANCH   5  23
ENDBRANCH  19   5
ENDBRANCH  17  19
ENDBRANCH  10  13
ENDBRANCH   7  10
TORSDOF 8
ENDMDL
MODEL 6
REMARK VINA RESULT:      -1.1      1.902      5.909
REMARK  Name = 56774253
REMARK  11 active torsions:
REMARK  status: ('A' for Active; 'I' for Inactive)
REMARK    1  A    between atoms: N_2  and  C_8
REMARK    2  A    between atoms: N_2  and  C_14
REMARK    3  A    between atoms: N_5  and  C_19
REMARK    4  A    between atoms: N_5  and  C_23
REMARK    5  A    between atoms: N_5  and  C_24
REMARK    6  A    between atoms: C_6  and  C_11
REMARK    7  A    between atoms: C_6  and  C_12
REMARK    8  A    between atoms: C_7  and  C_10
REMARK    9  A    between atoms: C_10  and  C_13
REMARK   10  A    between atoms: C_14  and  C_16
REMARK   11  A    between atoms: C_17  and  C_19
REMARK                            x       y       z     vdW  Elec       q    Type
REMARK                         _______ _______ _______ _____ _____    ______ ____
ROOT
ATOM      6  C   UNL     1      -3.415  -1.614  24.544  0.00  0.00    -0.016 C 
ATOM      7  C   UNL     1      -4.065  -0.742  25.637  0.00  0.00    +0.004 C 
ATOM      8  C   UNL     1      -2.051  -1.202  25.135  0.00  0.00    +0.060 C 
ATOM      9  C   UNL     1      -2.751   0.065  25.669  0.00  0.00    +0.023 C 
ATOM     11  C   UNL     1      -3.798  -3.077  24.623  0.00  0.00    +0.013 C 
ATOM     12  C   UNL     1      -3.592  -1.119  23.119  0.00  0.00    +0.013 C 
ENDROOT
BRANCH   8   2
ATOM      2  N   UNL     1      -1.111  -0.817  24.081  0.00  0.00    -0.307 NA
ATOM     30  H   UNL     1      -1.086   0.189  23.911  0.00  0.00    +0.123 HD
BRANCH   2  14
ATOM     14  C   UNL     1       0.232  -1.258  24.441  0.00  0.00    +0.136 C 
BRANCH  14  16
ATOM      4  N   UNL     1       2.524  -0.636  23.913  0.00  0.00    -0.259 NA
ATOM     16  C   UNL     1       1.262  -0.781  23.451  0.00  0.00    +0.055 A 
ATOM     18  C   UNL     1       0.879  -0.519  22.146  0.00  0.00    +0.024 A 
ATOM     20  C   UNL     1       1.854  -0.082  21.257  0.00  0.00    +0.003 A 
ATOM     21  C   UNL     1       3.445  -0.209  23.020  0.00  0.00    +0.111 A 
ATOM     22  C   UNL     1       3.164   0.079  21.695  0.00  0.00    +0.020 A 
ENDBRANCH  14  16
ENDBRANCH   2  14
ENDBRANCH   8   2
BRANCH   7  10
ATOM     10  C   UNL     1      -5.305   0.071  25.238  0.00  0.00    +0.063 C 
BRANCH  10  13
ATOM      1  O   UNL     1      -5.041   3.614  25.598  0.00  0.00    -0.358 OA
ATOM      3  N   UNL     1      -5.547   2.375  25.973  0.00  0.00    -0.083 NA
ATOM     13  C   UNL     1      -4.988   1.504  25.128  0.00  0.00    +0.084 A 
ATOM     15  C   UNL     1      -4.128   2.128  24.208  0.00  0.00    +0.072 A 
ATOM     17  C   UNL     1      -4.196   3.453  24.547  0.00  0.00    +0.155 A 
BRANCH  17  19
ATOM     19  C   UNL     1      -3.551   4.702  24.007  0.00  0.00    +0.181 C 
BRANCH  19   5
ATOM      5  N   UNL     1      -2.310   5.007  24.689  0.00  0.00    -0.326 N 
ATOM     24  C   UNL     1      -2.023   6.380  25.053  0.00  0.00    +0.129 C 
BRANCH   5  23
ATOM     23  C   UNL     1      -1.389   3.981  24.989  0.00  0.00    +0.030 A 
ATOM     25  C   UNL     1      -1.303   3.479  26.288  0.00  0.00    +0.023 A 
ATOM     26  C   UNL     1      -0.564   3.470  23.988  0.00  0.00    +0.023 A 
ATOM     27  C   UNL     1      -0.392   2.465  26.585  0.00  0.00    +0.002 A 
ATOM     28  C   UNL     1       0.346   2.455  24.285  0.00  0.00    +0.002 A 
ATOM     29  C   UNL     1       0.433   1.954  25.583  0.00  0.00    +0.000 A 
ENDBRANCH   5  23
ENDBRANCH  19   5
ENDBRANCH  17  19
ENDBRANCH  10  13
ENDBRANCH   7  10
TORSDOF 8
ENDMDL
