MODEL 1
REMARK VINA RESULT:      -1.2      0.000      0.000
REMARK  Name = 25390480
REMARK  9 active torsions:
REMARK  status: ('A' for Active; 'I' for Inactive)
REMARK    1  A    between atoms: O_2  and  C_11
REMARK    2  A    between atoms: O_3  and  C_12
REMARK    3  A    between atoms: O_6  and  C_29
REMARK    4  A    between atoms: O_6  and  C_32
REMARK    5  A    between atoms: N_8  and  C_15
REMARK    6  A    between atoms: N_9  and  C_26
REMARK    7  A    between atoms: C_10  and  C_14
REMARK    8  A    between atoms: C_13  and  C_15
REMARK    9  A    between atoms: C_14  and  C_16
REMARK                            x       y       z     vdW  Elec       q    Type
REMARK                         _______ _______ _______ _____ _____    ______ ____
ROOT
ATOM      1  O   UNL     1      -3.157   3.891  26.613  0.00  0.00    -0.366 OA
ATOM     10  C   UNL     1      -1.802   3.801  26.119  0.00  0.00    +0.159 C 
ATOM     11  C   UNL     1      -1.788   4.509  24.768  0.00  0.00    +0.175 C 
ATOM     12  C   UNL     1      -3.212   4.305  24.293  0.00  0.00    +0.176 C 
ATOM     13  C   UNL     1      -3.991   4.459  25.588  0.00  0.00    +0.167 C 
ENDROOT
BRANCH  11   2
ATOM      2  O   UNL     1      -1.536   5.895  24.996  0.00  0.00    -0.387 OA
ATOM     33  H   UNL     1      -0.840   5.955  25.674  0.00  0.00    +0.210 HD
ENDBRANCH  11   2
BRANCH  12   3
ATOM      3  O   UNL     1      -3.615   5.243  23.317  0.00  0.00    -0.387 OA
ATOM     34  H   UNL     1      -4.285   5.818  23.725  0.00  0.00    +0.210 HD
ENDBRANCH  12   3
BRANCH  10  14
ATOM     14  C   UNL     1      -1.438   2.326  26.023  0.00  0.00    +0.130 C 
BRANCH  14  16
ATOM      4  O   UNL     1       0.885   2.791  25.931  0.00  0.00    -0.275 OA
ATOM      7  N   UNL     1       0.017   1.323  24.337  0.00  0.00    -0.271 N 
ATOM     16  C   UNL     1      -0.057   2.175  25.431  0.00  0.00    +0.222 C 
ATOM     17  C   UNL     1      -1.115   0.585  23.737  0.00  0.00    +0.118 C 
ATOM     18  C   UNL     1       1.184   1.015  23.607  0.00  0.00    +0.039 A 
ATOM     19  C   UNL     1      -0.569  -0.233  22.561  0.00  0.00    +0.056 C 
ATOM     20  C   UNL     1       0.881   0.123  22.577  0.00  0.00    -0.024 A 
ATOM     21  C   UNL     1       2.483   1.466  23.791  0.00  0.00    +0.024 A 
ATOM     22  C   UNL     1       1.862  -0.339  21.711  0.00  0.00    +0.005 A 
ATOM     24  C   UNL     1       3.477   1.006  22.922  0.00  0.00    +0.002 A 
ATOM     25  C   UNL     1       3.169   0.110  21.889  0.00  0.00    +0.000 A 
ENDBRANCH  14  16
ENDBRANCH  10  14
BRANCH  13  15
ATOM     15  C   UNL     1      -5.334   3.753  25.571  0.00  0.00    +0.140 C 
BRANCH  15   8
ATOM      5  O   UNL     1      -4.058   1.791  23.919  0.00  0.00    -0.253 OA
ATOM      8  N   UNL     1      -5.183   2.334  25.863  0.00  0.00    -0.297 N 
ATOM      9  N   UNL     1      -4.551   0.162  25.537  0.00  0.00    -0.269 N 
ATOM     23  C   UNL     1      -4.544   1.452  24.996  0.00  0.00    +0.304 C 
ATOM     35  H   UNL     1      -5.554   1.979  26.739  0.00  0.00    +0.150 HD
ATOM     36  H   UNL     1      -4.999   0.050  26.442  0.00  0.00    +0.156 HD
BRANCH   9  26
ATOM     26  C   UNL     1      -4.008  -1.017  24.977  0.00  0.00    +0.038 A 
ATOM     27  C   UNL     1      -2.770  -1.489  25.413  0.00  0.00    +0.069 A 
ATOM     28  C   UNL     1      -4.709  -1.707  23.988  0.00  0.00    +0.023 A 
ATOM     29  C   UNL     1      -2.233  -2.652  24.860  0.00  0.00    +0.122 A 
ATOM     30  C   UNL     1      -4.171  -2.870  23.436  0.00  0.00    +0.005 A 
ATOM     31  C   UNL     1      -2.934  -3.343  23.872  0.00  0.00    +0.046 A 
BRANCH  29   6
ATOM      6  O   UNL     1      -1.026  -3.114  25.286  0.00  0.00    -0.495 OA
ATOM     32  C   UNL     1       0.014  -2.151  25.459  0.00  0.00    +0.277 C 
ENDBRANCH  29   6
ENDBRANCH   9  26
ENDBRANCH  15   8
ENDBRANCH  13  15
TORSDOF 8
ENDMDL
MODEL 2
REMARK VINA RESULT:      -0.4      2.127      5.943
REMARK  Name = 25390480
REMARK  9 active torsions:
REMARK  status: ('A' for Active; 'I' for Inactive)
REMARK    1  A    between atoms: O_2  and  C_11
REMARK    2  A    between atoms: O_3  and  C_12
REMARK    3  A    between atoms: O_6  and  C_29
REMARK    4  A    between atoms: O_6  and  C_32
REMARK    5  A    between atoms: N_8  and  C_15
REMARK    6  A    between atoms: N_9  and  C_26
REMARK    7  A    between atoms: C_10  and  C_14
REMARK    8  A    between atoms: C_13  and  C_15
REMARK    9  A    between atoms: C_14  and  C_16
REMARK                            x       y       z     vdW  Elec       q    Type
REMARK                         _______ _______ _______ _____ _____    ______ ____
ROOT
ATOM      1  O   UNL     1      -3.366   3.201  23.755  0.00  0.00    -0.366 OA
ATOM     10  C   UNL     1      -3.604   3.887  25.005  0.00  0.00    +0.159 C 
ATOM     11  C   UNL     1      -2.239   4.327  25.523  0.00  0.00    +0.175 C 
ATOM     12  C   UNL     1      -1.325   3.270  24.935  0.00  0.00    +0.176 C 
ATOM     13  C   UNL     1      -1.947   3.058  23.566  0.00  0.00    +0.167 C 
ENDROOT
BRANCH  11   2
ATOM      2  O   UNL     1      -1.943   5.605  24.961  0.00  0.00    -0.387 OA
ATOM     33  H   UNL     1      -1.976   6.255  25.685  0.00  0.00    +0.210 HD
ENDBRANCH  11   2
BRANCH  12   3
ATOM      3  O   UNL     1       0.022   3.683  24.847  0.00  0.00    -0.387 OA
ATOM     34  H   UNL     1       0.577   2.906  25.033  0.00  0.00    +0.210 HD
ENDBRANCH  12   3
BRANCH  10  14
ATOM     14  C   UNL     1      -4.313   2.917  25.941  0.00  0.00    +0.130 C 
BRANCH  14  16
ATOM      4  O   UNL     1      -5.651   1.556  24.536  0.00  0.00    -0.275 OA
ATOM      7  N   UNL     1      -3.682   0.626  25.376  0.00  0.00    -0.271 N 
ATOM     16  C   UNL     1      -4.623   1.633  25.210  0.00  0.00    +0.222 C 
ATOM     17  C   UNL     1      -2.449   0.720  26.187  0.00  0.00    +0.118 C 
ATOM     18  C   UNL     1      -3.739  -0.661  24.803  0.00  0.00    +0.039 A 
ATOM     19  C   UNL     1      -1.713  -0.619  26.076  0.00  0.00    +0.056 C 
ATOM     20  C   UNL     1      -2.620  -1.404  25.187  0.00  0.00    -0.024 A 
ATOM     21  C   UNL     1      -4.702  -1.214  23.973  0.00  0.00    +0.024 A 
ATOM     22  C   UNL     1      -2.438  -2.710  24.753  0.00  0.00    +0.005 A 
ATOM     24  C   UNL     1      -4.527  -2.530  23.532  0.00  0.00    +0.002 A 
ATOM     25  C   UNL     1      -3.403  -3.273  23.919  0.00  0.00    +0.000 A 
ENDBRANCH  14  16
ENDBRANCH  10  14
BRANCH  13  15
ATOM     15  C   UNL     1      -1.646   1.693  22.973  0.00  0.00    +0.140 C 
BRANCH  15   8
ATOM      5  O   UNL     1       0.260  -0.060  24.197  0.00  0.00    -0.253 OA
ATOM      8  N   UNL     1      -0.235   1.569  22.635  0.00  0.00    -0.297 N 
ATOM      9  N   UNL     1       1.908   0.786  22.755  0.00  0.00    -0.269 N 
ATOM     23  C   UNL     1       0.620   0.685  23.288  0.00  0.00    +0.304 C 
ATOM     35  H   UNL     1       0.135   2.149  21.888  0.00  0.00    +0.150 HD
ATOM     36  H   UNL     1       2.039   1.458  22.003  0.00  0.00    +0.156 HD
BRANCH   9  26
ATOM     26  C   UNL     1       3.064   0.065  23.134  0.00  0.00    +0.038 A 
ATOM     27  C   UNL     1       4.314   0.685  23.103  0.00  0.00    +0.069 A 
ATOM     28  C   UNL     1       2.956  -1.265  23.537  0.00  0.00    +0.023 A 
ATOM     29  C   UNL     1       5.454  -0.025  23.476  0.00  0.00    +0.122 A 
ATOM     30  C   UNL     1       4.097  -1.976  23.910  0.00  0.00    +0.005 A 
ATOM     31  C   UNL     1       5.346  -1.356  23.880  0.00  0.00    +0.046 A 
BRANCH  29   6
ATOM      6  O   UNL     1       6.673   0.579  23.447  0.00  0.00    -0.495 OA
ATOM     32  C   UNL     1       7.791  -0.231  23.084  0.00  0.00    +0.277 C 
ENDBRANCH  29   6
ENDBRANCH   9  26
ENDBRANCH  15   8
ENDBRANCH  13  15
TORSDOF 8
ENDMDL
MODEL 3
REMARK VINA RESULT:       0.4      2.160      6.227
REMARK  Name = 25390480
REMARK  9 active torsions:
REMARK  status: ('A' for Active; 'I' for Inactive)
REMARK    1  A    between atoms: O_2  and  C_11
REMARK    2  A    between atoms: O_3  and  C_12
REMARK    3  A    between atoms: O_6  and  C_29
REMARK    4  A    between atoms: O_6  and  C_32
REMARK    5  A    between atoms: N_8  and  C_15
REMARK    6  A    between atoms: N_9  and  C_26
REMARK    7  A    between atoms: C_10  and  C_14
REMARK    8  A    between atoms: C_13  and  C_15
REMARK    9  A    between atoms: C_14  and  C_16
REMARK                            x       y       z     vdW  Elec       q    Type
REMARK                         _______ _______ _______ _____ _____    ______ ____
ROOT
ATOM      1  O   UNL     1      -4.343  -1.024  25.792  0.00  0.00    -0.366 OA
ATOM     10  C   UNL     1      -4.986  -1.329  24.534  0.00  0.00    +0.159 C 
ATOM     11  C   UNL     1      -4.055  -2.284  23.795  0.00  0.00    +0.175 C 
ATOM     12  C   UNL     1      -2.698  -1.883  24.337  0.00  0.00    +0.176 C 
ATOM     13  C   UNL     1      -3.024  -1.598  25.793  0.00  0.00    +0.167 C 
ENDROOT
BRANCH  11   2
ATOM      2  O   UNL     1      -4.375  -3.615  24.198  0.00  0.00    -0.387 OA
ATOM     33  H   UNL     1      -4.071  -3.721  25.117  0.00  0.00    +0.210 HD
ENDBRANCH  11   2
BRANCH  12   3
ATOM      3  O   UNL     1      -1.721  -2.892  24.200  0.00  0.00    -0.387 OA
ATOM     34  H   UNL     1      -2.060  -3.688  24.644  0.00  0.00    +0.210 HD
ENDBRANCH  12   3
BRANCH  10  14
ATOM     14  C   UNL     1      -5.205  -0.017  23.793  0.00  0.00    +0.130 C 
BRANCH  14  16
ATOM      4  O   UNL     1      -5.253   1.409  25.686  0.00  0.00    -0.275 OA
ATOM      7  N   UNL     1      -3.594   1.794  24.091  0.00  0.00    -0.271 N 
ATOM     16  C   UNL     1      -4.692   1.134  24.625  0.00  0.00    +0.222 C 
ATOM     17  C   UNL     1      -2.922   1.463  22.816  0.00  0.00    +0.118 C 
ATOM     18  C   UNL     1      -2.931   2.897  24.669  0.00  0.00    +0.039 A 
ATOM     19  C   UNL     1      -1.760   2.446  22.631  0.00  0.00    +0.056 C 
ATOM     20  C   UNL     1      -1.870   3.297  23.853  0.00  0.00    -0.024 A 
ATOM     21  C   UNL     1      -3.198   3.563  25.856  0.00  0.00    +0.024 A 
ATOM     22  C   UNL     1      -1.055   4.365  24.201  0.00  0.00    +0.005 A 
ATOM     24  C   UNL     1      -2.383   4.641  26.214  0.00  0.00    +0.002 A 
ATOM     25  C   UNL     1      -1.319   5.040  25.392  0.00  0.00    +0.000 A 
ENDBRANCH  14  16
ENDBRANCH  10  14
BRANCH  13  15
ATOM     15  C   UNL     1      -2.049  -0.640  26.453  0.00  0.00    +0.140 C 
BRANCH  15   8
ATOM      5  O   UNL     1       0.363  -1.490  25.162  0.00  0.00    -0.253 OA
ATOM      8  N   UNL     1      -1.288   0.100  25.455  0.00  0.00    -0.297 N 
ATOM      9  N   UNL     1       0.389   0.529  23.963  0.00  0.00    -0.269 N 
ATOM     23  C   UNL     1      -0.121  -0.396  24.880  0.00  0.00    +0.304 C 
ATOM     35  H   UNL     1      -1.630   1.012  25.166  0.00  0.00    +0.150 HD
ATOM     36  H   UNL     1      -0.135   1.393  23.848  0.00  0.00    +0.156 HD
BRANCH   9  26
ATOM     26  C   UNL     1       1.552   0.412  23.168  0.00  0.00    +0.038 A 
ATOM     27  C   UNL     1       2.785   0.828  23.672  0.00  0.00    +0.069 A 
ATOM     28  C   UNL     1       1.467  -0.116  21.880  0.00  0.00    +0.023 A 
ATOM     29  C   UNL     1       3.932   0.715  22.888  0.00  0.00    +0.122 A 
ATOM     30  C   UNL     1       2.616  -0.229  21.097  0.00  0.00    +0.005 A 
ATOM     31  C   UNL     1       3.849   0.186  21.600  0.00  0.00    +0.046 A 
BRANCH  29   6
ATOM      6  O   UNL     1       5.136   1.120  23.379  0.00  0.00    -0.495 OA
ATOM     32  C   UNL     1       5.820   0.215  24.246  0.00  0.00    +0.277 C 
ENDBRANCH  29   6
ENDBRANCH   9  26
ENDBRANCH  15   8
ENDBRANCH  13  15
TORSDOF 8
ENDMDL
MODEL 4
REMARK VINA RESULT:       0.8      1.811      5.123
REMARK  Name = 25390480
REMARK  9 active torsions:
REMARK  status: ('A' for Active; 'I' for Inactive)
REMARK    1  A    between atoms: O_2  and  C_11
REMARK    2  A    between atoms: O_3  and  C_12
REMARK    3  A    between atoms: O_6  and  C_29
REMARK    4  A    between atoms: O_6  and  C_32
REMARK    5  A    between atoms: N_8  and  C_15
REMARK    6  A    between atoms: N_9  and  C_26
REMARK    7  A    between atoms: C_10  and  C_14
REMARK    8  A    between atoms: C_13  and  C_15
REMARK    9  A    between atoms: C_14  and  C_16
REMARK                            x       y       z     vdW  Elec       q    Type
REMARK                         _______ _______ _______ _____ _____    ______ ____
ROOT
ATOM      1  O   UNL     1      -3.392   4.992  24.164  0.00  0.00    -0.366 OA
ATOM     10  C   UNL     1      -4.422   3.981  24.086  0.00  0.00    +0.159 C 
ATOM     11  C   UNL     1      -4.454   3.293  25.447  0.00  0.00    +0.175 C 
ATOM     12  C   UNL     1      -3.023   3.459  25.917  0.00  0.00    +0.176 C 
ATOM     13  C   UNL     1      -2.697   4.856  25.416  0.00  0.00    +0.167 C 
ENDROOT
BRANCH  11   2
ATOM      2  O   UNL     1      -5.339   4.027  26.293  0.00  0.00    -0.387 OA
ATOM     33  H   UNL     1      -5.436   3.522  27.119  0.00  0.00    +0.210 HD
ENDBRANCH  11   2
BRANCH  12   3
ATOM      3  O   UNL     1      -2.878   3.350  27.317  0.00  0.00    -0.387 OA
ATOM     34  H   UNL     1      -3.734   3.582  27.717  0.00  0.00    +0.210 HD
ENDBRANCH  12   3
BRANCH  10  14
ATOM     14  C   UNL     1      -4.060   3.034  22.949  0.00  0.00    +0.130 C 
BRANCH  14  16
ATOM      4  O   UNL     1      -1.849   2.296  23.380  0.00  0.00    -0.275 OA
ATOM      7  N   UNL     1      -3.592   0.830  23.891  0.00  0.00    -0.271 N 
ATOM     16  C   UNL     1      -3.048   2.021  23.427  0.00  0.00    +0.222 C 
ATOM     17  C   UNL     1      -5.032   0.500  23.946  0.00  0.00    +0.118 C 
ATOM     18  C   UNL     1      -2.865  -0.272  24.389  0.00  0.00    +0.039 A 
ATOM     19  C   UNL     1      -5.167  -0.909  24.533  0.00  0.00    +0.056 C 
ATOM     20  C   UNL     1      -3.742  -1.291  24.766  0.00  0.00    -0.024 A 
ATOM     21  C   UNL     1      -1.494  -0.432  24.530  0.00  0.00    +0.024 A 
ATOM     22  C   UNL     1      -3.274  -2.487  25.290  0.00  0.00    +0.005 A 
ATOM     24  C   UNL     1      -1.015  -1.635  25.056  0.00  0.00    +0.002 A 
ATOM     25  C   UNL     1      -1.898  -2.656  25.434  0.00  0.00    +0.000 A 
ENDBRANCH  14  16
ENDBRANCH  10  14
BRANCH  13  15
ATOM     15  C   UNL     1      -1.212   5.089  25.205  0.00  0.00    +0.140 C 
BRANCH  15   8
ATOM      5  O   UNL     1       0.164   3.878  23.004  0.00  0.00    -0.253 OA
ATOM      8  N   UNL     1      -0.477   3.832  25.223  0.00  0.00    -0.297 N 
ATOM      9  N   UNL     1       0.782   2.105  24.414  0.00  0.00    -0.269 N 
ATOM     23  C   UNL     1       0.163   3.319  24.098  0.00  0.00    +0.304 C 
ATOM     35  H   UNL     1      -0.428   3.315  26.096  0.00  0.00    +0.150 HD
ATOM     36  H   UNL     1       0.683   1.779  25.371  0.00  0.00    +0.156 HD
BRANCH   9  26
ATOM     26  C   UNL     1       1.534   1.266  23.559  0.00  0.00    +0.038 A 
ATOM     27  C   UNL     1       2.927   1.326  23.573  0.00  0.00    +0.069 A 
ATOM     28  C   UNL     1       0.882   0.380  22.702  0.00  0.00    +0.023 A 
ATOM     29  C   UNL     1       3.669   0.500  22.730  0.00  0.00    +0.122 A 
ATOM     30  C   UNL     1       1.625  -0.447  21.859  0.00  0.00    +0.005 A 
ATOM     31  C   UNL     1       3.018  -0.387  21.873  0.00  0.00    +0.046 A 
BRANCH  29   6
ATOM      6  O   UNL     1       5.029   0.558  22.744  0.00  0.00    -0.495 OA
ATOM     32  C   UNL     1       5.696  -0.112  23.813  0.00  0.00    +0.277 C 
ENDBRANCH  29   6
ENDBRANCH   9  26
ENDBRANCH  15   8
ENDBRANCH  13  15
TORSDOF 8
ENDMDL
MODEL 5
REMARK VINA RESULT:       1.9      1.648      4.976
REMARK  Name = 25390480
REMARK  9 active torsions:
REMARK  status: ('A' for Active; 'I' for Inactive)
REMARK    1  A    between atoms: O_2  and  C_11
REMARK    2  A    between atoms: O_3  and  C_12
REMARK    3  A    between atoms: O_6  and  C_29
REMARK    4  A    between atoms: O_6  and  C_32
REMARK    5  A    between atoms: N_8  and  C_15
REMARK    6  A    between atoms: N_9  and  C_26
REMARK    7  A    between atoms: C_10  and  C_14
REMARK    8  A    between atoms: C_13  and  C_15
REMARK    9  A    between atoms: C_14  and  C_16
REMARK                            x       y       z     vdW  Elec       q    Type
REMARK                         _______ _______ _______ _____ _____    ______ ____
ROOT
ATOM      1  O   UNL     1      -3.897   3.259  24.282  0.00  0.00    -0.366 OA
ATOM     10  C   UNL     1      -5.268   2.998  24.661  0.00  0.00    +0.159 C 
ATOM     11  C   UNL     1      -5.608   3.999  25.760  0.00  0.00    +0.175 C 
ATOM     12  C   UNL     1      -4.254   4.240  26.396  0.00  0.00    +0.176 C 
ATOM     13  C   UNL     1      -3.342   4.234  25.181  0.00  0.00    +0.167 C 
ENDROOT
BRANCH  11   2
ATOM      2  O   UNL     1      -6.083   5.193  25.140  0.00  0.00    -0.387 OA
ATOM     33  H   UNL     1      -5.439   5.897  25.334  0.00  0.00    +0.210 HD
ENDBRANCH  11   2
BRANCH  12   3
ATOM      3  O   UNL     1      -4.180   5.457  27.108  0.00  0.00    -0.387 OA
ATOM     34  H   UNL     1      -5.079   5.671  27.413  0.00  0.00    +0.210 HD
ENDBRANCH  12   3
BRANCH  10  14
ATOM     14  C   UNL     1      -5.355   1.550  25.125  0.00  0.00    +0.130 C 
BRANCH  14  16
ATOM      4  O   UNL     1      -3.149   1.685  25.981  0.00  0.00    -0.275 OA
ATOM      7  N   UNL     1      -3.745  -0.264  24.846  0.00  0.00    -0.271 N 
ATOM     16  C   UNL     1      -3.968   1.004  25.365  0.00  0.00    +0.222 C 
ATOM     17  C   UNL     1      -4.729  -1.082  24.105  0.00  0.00    +0.118 C 
ATOM     18  C   UNL     1      -2.539  -0.993  24.933  0.00  0.00    +0.039 A 
ATOM     19  C   UNL     1      -4.052  -2.405  23.731  0.00  0.00    +0.056 C 
ATOM     20  C   UNL     1      -2.682  -2.229  24.300  0.00  0.00    -0.024 A 
ATOM     21  C   UNL     1      -1.338  -0.640  25.528  0.00  0.00    +0.024 A 
ATOM     22  C   UNL     1      -1.635  -3.138  24.248  0.00  0.00    +0.005 A 
ATOM     24  C   UNL     1      -0.277  -1.549  25.479  0.00  0.00    +0.002 A 
ATOM     25  C   UNL     1      -0.424  -2.789  24.843  0.00  0.00    +0.000 A 
ENDBRANCH  14  16
ENDBRANCH  10  14
BRANCH  13  15
ATOM     15  C   UNL     1      -1.905   3.868  25.509  0.00  0.00    +0.140 C 
BRANCH  15   8
ATOM      5  O   UNL     1       0.477   2.283  25.629  0.00  0.00    -0.253 OA
ATOM      8  N   UNL     1      -1.285   3.144  24.408  0.00  0.00    -0.297 N 
ATOM      9  N   UNL     1       0.237   1.817  23.340  0.00  0.00    -0.269 N 
ATOM     23  C   UNL     1      -0.122   2.396  24.561  0.00  0.00    +0.304 C 
ATOM     35  H   UNL     1      -1.728   3.184  23.495  0.00  0.00    +0.150 HD
ATOM     36  H   UNL     1      -0.369   2.012  22.548  0.00  0.00    +0.156 HD
BRANCH   9  26
ATOM     26  C   UNL     1       1.348   0.986  23.066  0.00  0.00    +0.038 A 
ATOM     27  C   UNL     1       2.635   1.412  23.395  0.00  0.00    +0.069 A 
ATOM     28  C   UNL     1       1.157  -0.258  22.464  0.00  0.00    +0.023 A 
ATOM     29  C   UNL     1       3.731   0.594  23.123  0.00  0.00    +0.122 A 
ATOM     30  C   UNL     1       2.255  -1.076  22.193  0.00  0.00    +0.005 A 
ATOM     31  C   UNL     1       3.541  -0.650  22.523  0.00  0.00    +0.046 A 
BRANCH  29   6
ATOM      6  O   UNL     1       4.987   1.009  23.445  0.00  0.00    -0.495 OA
ATOM     32  C   UNL     1       5.809   0.089  24.163  0.00  0.00    +0.277 C 
ENDBRANCH  29   6
ENDBRANCH   9  26
ENDBRANCH  15   8
ENDBRANCH  13  15
TORSDOF 8
ENDMDL
