MODEL 1
REMARK VINA RESULT:      -3.5      0.000      0.000
REMARK  Name = 45784320
REMARK  4 active torsions:
REMARK  status: ('A' for Active; 'I' for Inactive)
REMARK    1  A    between atoms: N_2  and  C_11
REMARK    2  A    between atoms: C_6  and  C_10
REMARK    3  A    between atoms: C_11  and  C_12
REMARK    4  A    between atoms: C_19  and  C_24
REMARK                            x       y       z     vdW  Elec       q    Type
REMARK                         _______ _______ _______ _____ _____    ______ ____
ROOT
ATOM      2  N   UNL     1      -9.603  -9.826  11.988  0.00  0.00    -0.297 NA
ATOM      6  C   UNL     1      -7.493  -9.169  11.204  0.00  0.00    +0.070 C 
ATOM      7  C   UNL     1      -8.169 -10.077  10.162  0.00  0.00    +0.028 C 
ATOM      8  C   UNL     1      -8.300  -9.387  12.490  0.00  0.00    +0.096 C 
ATOM      9  C   UNL     1      -9.294 -10.773  10.918  0.00  0.00    +0.085 C 
ENDROOT
BRANCH   6  10
ATOM      3  N   UNL     1      -5.084  -8.707  10.673  0.00  0.00    -0.342 N 
ATOM      4  N   UNL     1      -5.452 -10.272  12.208  0.00  0.00    -0.232 NA
ATOM     10  C   UNL     1      -6.012  -9.410  11.389  0.00  0.00    +0.113 A 
ATOM     13  C   UNL     1      -3.841  -9.143  11.056  0.00  0.00    +0.067 A 
ATOM     14  C   UNL     1      -4.099 -10.119  12.015  0.00  0.00    +0.089 A 
ATOM     17  C   UNL     1      -2.554  -8.779  10.658  0.00  0.00    +0.046 A 
ATOM     18  C   UNL     1      -3.019 -10.781  12.624  0.00  0.00    +0.031 A 
ATOM     19  C   UNL     1      -1.492  -9.448  11.274  0.00  0.00    +0.054 A 
ATOM     20  C   UNL     1      -1.718 -10.432  12.240  0.00  0.00    +0.021 A 
ATOM     25  H   UNL     1      -5.275  -7.992   9.983  0.00  0.00    +0.167 HD
BRANCH  19  24
ATOM      5  N   UNL     1       0.940  -8.849  10.610  0.00  0.00    -0.191 NA
ATOM     24  C   UNL     1      -0.150  -9.117  10.908  0.00  0.00    +0.099 C 
ENDBRANCH  19  24
ENDBRANCH   6  10
BRANCH   2  11
ATOM     11  C   UNL     1     -10.430 -10.416  13.030  0.00  0.00    +0.119 C 
BRANCH  11  12
ATOM      1  F   UNL     1     -10.190  -7.471  17.827  0.00  0.00    -0.205 F 
ATOM     12  C   UNL     1     -10.365  -9.630  14.311  0.00  0.00    -0.033 A 
ATOM     15  C   UNL     1     -10.719  -8.280  14.320  0.00  0.00    +0.008 A 
ATOM     16  C   UNL     1      -9.952 -10.249  15.491  0.00  0.00    +0.008 A 
ATOM     21  C   UNL     1     -10.659  -7.551  15.507  0.00  0.00    +0.038 A 
ATOM     22  C   UNL     1      -9.892  -9.520  16.679  0.00  0.00    +0.038 A 
ATOM     23  C   UNL     1     -10.247  -8.171  16.687  0.00  0.00    +0.123 A 
ENDBRANCH  11  12
ENDBRANCH   2  11
TORSDOF 4
ENDMDL
MODEL 2
REMARK VINA RESULT:      -1.3     14.747     16.191
REMARK  Name = 45784320
REMARK  4 active torsions:
REMARK  status: ('A' for Active; 'I' for Inactive)
REMARK    1  A    between atoms: N_2  and  C_11
REMARK    2  A    between atoms: C_6  and  C_10
REMARK    3  A    between atoms: C_11  and  C_12
REMARK    4  A    between atoms: C_19  and  C_24
REMARK                            x       y       z     vdW  Elec       q    Type
REMARK                         _______ _______ _______ _____ _____    ______ ____
ROOT
ATOM      2  N   UNL     1      -3.668   2.100  25.028  0.00  0.00    -0.297 NA
ATOM      6  C   UNL     1      -1.419   2.457  24.472  0.00  0.00    +0.070 C 
ATOM      7  C   UNL     1      -2.321   3.113  23.413  0.00  0.00    +0.028 C 
ATOM      8  C   UNL     1      -2.347   1.505  25.236  0.00  0.00    +0.096 C 
ATOM      9  C   UNL     1      -3.691   2.480  23.616  0.00  0.00    +0.085 C 
ENDROOT
BRANCH   6  10
ATOM      3  N   UNL     1       1.055   2.034  24.416  0.00  0.00    -0.342 N 
ATOM      4  N   UNL     1      -0.156   0.878  22.955  0.00  0.00    -0.232 NA
ATOM     10  C   UNL     1      -0.192   1.768  23.921  0.00  0.00    +0.113 A 
ATOM     13  C   UNL     1       1.954   1.265  23.723  0.00  0.00    +0.067 A 
ATOM     14  C   UNL     1       1.173   0.553  22.818  0.00  0.00    +0.089 A 
ATOM     17  C   UNL     1       3.341   1.135  23.809  0.00  0.00    +0.046 A 
ATOM     18  C   UNL     1       1.796  -0.348  21.937  0.00  0.00    +0.031 A 
ATOM     19  C   UNL     1       3.945   0.235  22.925  0.00  0.00    +0.054 A 
ATOM     20  C   UNL     1       3.188  -0.495  22.004  0.00  0.00    +0.021 A 
ATOM     25  H   UNL     1       1.278   2.683  25.161  0.00  0.00    +0.167 HD
BRANCH  19  24
ATOM      5  N   UNL     1       6.514  -0.085  22.999  0.00  0.00    -0.191 NA
ATOM     24  C   UNL     1       5.363   0.058  22.966  0.00  0.00    +0.099 C 
ENDBRANCH  19  24
ENDBRANCH   6  10
BRANCH   2  11
ATOM     11  C   UNL     1      -4.749   1.189  25.375  0.00  0.00    +0.119 C 
BRANCH  11  12
ATOM      1  F   UNL     1      -3.408  -4.172  24.276  0.00  0.00    -0.205 F 
ATOM     12  C   UNL     1      -4.391  -0.243  25.082  0.00  0.00    -0.033 A 
ATOM     15  C   UNL     1      -4.767  -0.822  23.869  0.00  0.00    +0.008 A 
ATOM     16  C   UNL     1      -3.683  -0.993  26.021  0.00  0.00    +0.008 A 
ATOM     21  C   UNL     1      -4.435  -2.149  23.597  0.00  0.00    +0.038 A 
ATOM     22  C   UNL     1      -3.351  -2.320  25.749  0.00  0.00    +0.038 A 
ATOM     23  C   UNL     1      -3.727  -2.898  24.537  0.00  0.00    +0.123 A 
ENDBRANCH  11  12
ENDBRANCH   2  11
TORSDOF 4
ENDMDL
MODEL 3
REMARK VINA RESULT:      -1.1     15.742     16.985
REMARK  Name = 45784320
REMARK  4 active torsions:
REMARK  status: ('A' for Active; 'I' for Inactive)
REMARK    1  A    between atoms: N_2  and  C_11
REMARK    2  A    between atoms: C_6  and  C_10
REMARK    3  A    between atoms: C_11  and  C_12
REMARK    4  A    between atoms: C_19  and  C_24
REMARK                            x       y       z     vdW  Elec       q    Type
REMARK                         _______ _______ _______ _____ _____    ______ ____
ROOT
ATOM      2  N   UNL     1      -3.305  -0.334  24.691  0.00  0.00    -0.297 NA
ATOM      6  C   UNL     1      -1.233  -1.011  23.826  0.00  0.00    +0.070 C 
ATOM      7  C   UNL     1      -1.471  -1.692  25.185  0.00  0.00    +0.028 C 
ATOM      8  C   UNL     1      -2.257   0.130  23.780  0.00  0.00    +0.096 C 
ATOM      9  C   UNL     1      -2.587  -0.888  25.839  0.00  0.00    +0.085 C 
ENDROOT
BRANCH   6  10
ATOM      3  N   UNL     1       1.252  -1.361  23.828  0.00  0.00    -0.342 N 
ATOM      4  N   UNL     1       0.559   0.641  23.156  0.00  0.00    -0.232 NA
ATOM     10  C   UNL     1       0.184  -0.542  23.591  0.00  0.00    +0.113 A 
ATOM     13  C   UNL     1       2.393  -0.662  23.526  0.00  0.00    +0.067 A 
ATOM     14  C   UNL     1       1.932   0.584  23.109  0.00  0.00    +0.089 A 
ATOM     17  C   UNL     1       3.745  -1.001  23.579  0.00  0.00    +0.046 A 
ATOM     18  C   UNL     1       2.863   1.562  22.718  0.00  0.00    +0.031 A 
ATOM     19  C   UNL     1       4.657  -0.017  23.187  0.00  0.00    +0.054 A 
ATOM     20  C   UNL     1       4.226   1.243  22.764  0.00  0.00    +0.021 A 
ATOM     25  H   UNL     1       1.213  -2.314  24.166  0.00  0.00    +0.167 HD
BRANCH  19  24
ATOM      5  N   UNL     1       7.193  -0.542  23.248  0.00  0.00    -0.191 NA
ATOM     24  C   UNL     1       6.057  -0.307  23.220  0.00  0.00    +0.099 C 
ENDBRANCH  19  24
ENDBRANCH   6  10
BRANCH   2  11
ATOM     11  C   UNL     1      -4.222   0.730  25.072  0.00  0.00    +0.119 C 
BRANCH  11  12
ATOM      1  F   UNL     1      -1.677   5.755  25.176  0.00  0.00    -0.205 F 
ATOM     12  C   UNL     1      -3.543   2.073  25.100  0.00  0.00    -0.033 A 
ATOM     15  C   UNL     1      -2.305   2.215  25.729  0.00  0.00    +0.008 A 
ATOM     16  C   UNL     1      -4.149   3.175  24.497  0.00  0.00    +0.008 A 
ATOM     21  C   UNL     1      -1.676   3.459  25.755  0.00  0.00    +0.038 A 
ATOM     22  C   UNL     1      -3.519   4.419  24.524  0.00  0.00    +0.038 A 
ATOM     23  C   UNL     1      -2.282   4.561  25.152  0.00  0.00    +0.123 A 
ENDBRANCH  11  12
ENDBRANCH   2  11
TORSDOF 4
ENDMDL
MODEL 4
REMARK VINA RESULT:      -1.1     15.790     18.648
REMARK  Name = 45784320
REMARK  4 active torsions:
REMARK  status: ('A' for Active; 'I' for Inactive)
REMARK    1  A    between atoms: N_2  and  C_11
REMARK    2  A    between atoms: C_6  and  C_10
REMARK    3  A    between atoms: C_11  and  C_12
REMARK    4  A    between atoms: C_19  and  C_24
REMARK                            x       y       z     vdW  Elec       q    Type
REMARK                         _______ _______ _______ _____ _____    ______ ____
ROOT
ATOM      2  N   UNL     1       0.728  -0.745  23.528  0.00  0.00    -0.297 NA
ATOM      6  C   UNL     1      -1.109  -0.399  24.944  0.00  0.00    +0.070 C 
ATOM      7  C   UNL     1      -1.277  -1.735  24.200  0.00  0.00    +0.028 C 
ATOM      8  C   UNL     1      -0.016   0.343  24.165  0.00  0.00    +0.096 C 
ATOM      9  C   UNL     1      -0.298  -1.663  23.035  0.00  0.00    +0.085 C 
ENDROOT
BRANCH   6  10
ATOM      3  N   UNL     1      -2.352   1.774  25.113  0.00  0.00    -0.342 N 
ATOM      4  N   UNL     1      -3.599  -0.062  25.215  0.00  0.00    -0.232 NA
ATOM     10  C   UNL     1      -2.378   0.407  25.092  0.00  0.00    +0.113 A 
ATOM     13  C   UNL     1      -3.643   2.216  25.258  0.00  0.00    +0.067 A 
ATOM     14  C   UNL     1      -4.401   1.050  25.319  0.00  0.00    +0.089 A 
ATOM     17  C   UNL     1      -4.194   3.495  25.339  0.00  0.00    +0.046 A 
ATOM     18  C   UNL     1      -5.795   1.148  25.469  0.00  0.00    +0.031 A 
ATOM     19  C   UNL     1      -5.582   3.574  25.488  0.00  0.00    +0.054 A 
ATOM     20  C   UNL     1      -6.371   2.422  25.552  0.00  0.00    +0.021 A 
ATOM     25  H   UNL     1      -1.530   2.359  25.036  0.00  0.00    +0.167 HD
BRANCH  19  24
ATOM      5  N   UNL     1      -6.710   5.901  25.647  0.00  0.00    -0.191 NA
ATOM     24  C   UNL     1      -6.205   4.858  25.576  0.00  0.00    +0.099 C 
ENDBRANCH  19  24
ENDBRANCH   6  10
BRANCH   2  11
ATOM     11  C   UNL     1       1.605  -0.272  22.467  0.00  0.00    +0.119 C 
BRANCH  11  12
ATOM      1  F   UNL     1       6.987  -0.071  24.121  0.00  0.00    -0.205 F 
ATOM     12  C   UNL     1       3.042  -0.218  22.909  0.00  0.00    -0.033 A 
ATOM     15  C   UNL     1       3.626  -1.327  23.520  0.00  0.00    +0.008 A 
ATOM     16  C   UNL     1       3.792   0.941  22.708  0.00  0.00    +0.008 A 
ATOM     21  C   UNL     1       4.958  -1.277  23.930  0.00  0.00    +0.038 A 
ATOM     22  C   UNL     1       5.124   0.991  23.118  0.00  0.00    +0.038 A 
ATOM     23  C   UNL     1       5.707  -0.118  23.728  0.00  0.00    +0.123 A 
ENDBRANCH  11  12
ENDBRANCH   2  11
TORSDOF 4
ENDMDL
