MODEL 1
REMARK VINA RESULT:      -5.5      0.000      0.000
REMARK  Name = 75536648
REMARK  8 active torsions:
REMARK  status: ('A' for Active; 'I' for Inactive)
REMARK    1  A    between atoms: O_3  and  C_9
REMARK    2  A    between atoms: N_5  and  C_8
REMARK    3  A    between atoms: N_5  and  C_13
REMARK    4  A    between atoms: N_6  and  C_12
REMARK    5  A    between atoms: C_10  and  C_12
REMARK    6  A    between atoms: C_13  and  C_14
REMARK    7  A    between atoms: C_15  and  C_18
REMARK    8  A    between atoms: C_19  and  C_27
REMARK                            x       y       z     vdW  Elec       q    Type
REMARK                         _______ _______ _______ _____ _____    ______ ____
ROOT
ATOM      2  O   UNL     1      -1.998  -0.707  26.055  0.00  0.00    -0.371 OA
ATOM      8  C   UNL     1      -3.691  -1.588  24.653  0.00  0.00    +0.111 C 
ATOM      9  C   UNL     1      -2.347  -1.897  24.015  0.00  0.00    +0.164 C 
ATOM     10  C   UNL     1      -1.331  -1.117  24.847  0.00  0.00    +0.165 C 
ATOM     11  C   UNL     1      -3.295  -1.314  26.095  0.00  0.00    +0.181 C 
ENDROOT
BRANCH   9   3
ATOM      3  O   UNL     1      -2.103  -3.297  24.171  0.00  0.00    -0.388 OA
ATOM     29  H   UNL     1      -1.374  -3.395  24.806  0.00  0.00    +0.210 HD
ENDBRANCH   9   3
BRANCH   8   5
ATOM      5  N   UNL     1      -4.312  -0.409  24.054  0.00  0.00    -0.305 NA
ATOM     28  H   UNL     1      -3.583   0.237  23.750  0.00  0.00    +0.123 HD
BRANCH   5  13
ATOM     13  C   UNL     1      -5.167   0.279  25.014  0.00  0.00    +0.116 C 
BRANCH  13  14
ATOM     14  C   UNL     1      -4.803   1.733  25.150  0.00  0.00    -0.032 A 
ATOM     16  C   UNL     1      -3.478   2.139  24.996  0.00  0.00    +0.023 A 
ATOM     17  C   UNL     1      -5.793   2.676  25.429  0.00  0.00    +0.005 A 
ATOM     19  C   UNL     1      -3.141   3.487  25.121  0.00  0.00    +0.052 A 
ATOM     20  C   UNL     1      -5.456   4.024  25.554  0.00  0.00    +0.002 A 
ATOM     21  C   UNL     1      -4.131   4.429  25.400  0.00  0.00    +0.019 A 
BRANCH  19  27
ATOM      7  N   UNL     1      -0.681   4.241  24.834  0.00  0.00    -0.191 NA
ATOM     27  C   UNL     1      -1.783   3.903  24.963  0.00  0.00    +0.099 C 
ENDBRANCH  19  27
ENDBRANCH  13  14
ENDBRANCH   5  13
ENDBRANCH   8   5
BRANCH  10  12
ATOM     12  C   UNL     1      -0.799   0.125  24.150  0.00  0.00    +0.138 C 
BRANCH  12   6
ATOM      4  O   UNL     1       0.880  -0.411  21.883  0.00  0.00    -0.270 OA
ATOM      6  N   UNL     1       0.636   0.136  24.124  0.00  0.00    -0.309 N 
ATOM     15  C   UNL     1       1.371  -0.137  22.975  0.00  0.00    +0.244 C 
ATOM     30  H   UNL     1       1.105   0.273  25.013  0.00  0.00    +0.149 HD
BRANCH  15  18
ATOM      1  F   UNL     1       6.957  -0.042  23.527  0.00  0.00    -0.205 F 
ATOM     18  C   UNL     1       2.849  -0.112  23.120  0.00  0.00    +0.037 A 
ATOM     22  C   UNL     1       3.518  -1.223  23.634  0.00  0.00    +0.016 A 
ATOM     23  C   UNL     1       3.568   1.023  22.744  0.00  0.00    +0.016 A 
ATOM     24  C   UNL     1       4.906  -1.200  23.771  0.00  0.00    +0.039 A 
ATOM     25  C   UNL     1       4.956   1.046  22.882  0.00  0.00    +0.039 A 
ATOM     26  C   UNL     1       5.625  -0.065  23.395  0.00  0.00    +0.123 A 
ENDBRANCH  15  18
ENDBRANCH  12   6
ENDBRANCH  10  12
TORSDOF 8
ENDMDL
MODEL 2
REMARK VINA RESULT:      -5.2      3.399      7.003
REMARK  Name = 75536648
REMARK  8 active torsions:
REMARK  status: ('A' for Active; 'I' for Inactive)
REMARK    1  A    between atoms: O_3  and  C_9
REMARK    2  A    between atoms: N_5  and  C_8
REMARK    3  A    between atoms: N_5  and  C_13
REMARK    4  A    between atoms: N_6  and  C_12
REMARK    5  A    between atoms: C_10  and  C_12
REMARK    6  A    between atoms: C_13  and  C_14
REMARK    7  A    between atoms: C_15  and  C_18
REMARK    8  A    between atoms: C_19  and  C_27
REMARK                            x       y       z     vdW  Elec       q    Type
REMARK                         _______ _______ _______ _____ _____    ______ ____
ROOT
ATOM      2  O   UNL     1      -4.242   4.057  25.729  0.00  0.00    -0.371 OA
ATOM      8  C   UNL     1      -1.912   3.803  26.067  0.00  0.00    +0.111 C 
ATOM      9  C   UNL     1      -2.115   4.608  24.795  0.00  0.00    +0.164 C 
ATOM     10  C   UNL     1      -3.618   4.542  24.526  0.00  0.00    +0.165 C 
ATOM     11  C   UNL     1      -3.253   3.976  26.763  0.00  0.00    +0.181 C 
ENDROOT
BRANCH   9   3
ATOM      3  O   UNL     1      -1.750   5.961  25.074  0.00  0.00    -0.388 OA
ATOM     29  H   UNL     1      -2.154   6.519  24.388  0.00  0.00    +0.210 HD
ENDBRANCH   9   3
BRANCH   8   5
ATOM      5  N   UNL     1      -1.659   2.394  25.777  0.00  0.00    -0.305 NA
ATOM     28  H   UNL     1      -2.129   1.817  26.475  0.00  0.00    +0.123 HD
BRANCH   5  13
ATOM     13  C   UNL     1      -0.232   2.098  25.819  0.00  0.00    +0.116 C 
BRANCH  13  14
ATOM     14  C   UNL     1       0.183   1.173  24.705  0.00  0.00    -0.032 A 
ATOM     16  C   UNL     1       1.444   1.302  24.123  0.00  0.00    +0.023 A 
ATOM     17  C   UNL     1      -0.695   0.186  24.255  0.00  0.00    +0.005 A 
ATOM     19  C   UNL     1       1.827   0.444  23.091  0.00  0.00    +0.052 A 
ATOM     20  C   UNL     1      -0.312  -0.671  23.224  0.00  0.00    +0.002 A 
ATOM     21  C   UNL     1       0.949  -0.542  22.642  0.00  0.00    +0.019 A 
BRANCH  19  27
ATOM      7  N   UNL     1       4.168   0.682  22.011  0.00  0.00    -0.191 NA
ATOM     27  C   UNL     1       3.119   0.575  22.495  0.00  0.00    +0.099 C 
ENDBRANCH  19  27
ENDBRANCH  13  14
ENDBRANCH   5  13
ENDBRANCH   8   5
BRANCH  10  12
ATOM     12  C   UNL     1      -3.991   3.608  23.385  0.00  0.00    +0.138 C 
BRANCH  12   6
ATOM      4  O   UNL     1      -5.823   1.769  24.611  0.00  0.00    -0.270 OA
ATOM      6  N   UNL     1      -3.732   2.239  23.725  0.00  0.00    -0.309 N 
ATOM     15  C   UNL     1      -4.684   1.416  24.320  0.00  0.00    +0.244 C 
ATOM     30  H   UNL     1      -2.783   1.908  23.586  0.00  0.00    +0.149 HD
BRANCH  15  18
ATOM      1  F   UNL     1      -3.045  -3.821  25.502  0.00  0.00    -0.205 F 
ATOM     18  C   UNL     1      -4.250   0.031  24.632  0.00  0.00    +0.037 A 
ATOM     22  C   UNL     1      -4.304  -0.956  23.648  0.00  0.00    +0.016 A 
ATOM     23  C   UNL     1      -3.789  -0.284  25.911  0.00  0.00    +0.016 A 
ATOM     24  C   UNL     1      -3.896  -2.257  23.941  0.00  0.00    +0.039 A 
ATOM     25  C   UNL     1      -3.382  -1.586  26.205  0.00  0.00    +0.039 A 
ATOM     26  C   UNL     1      -3.435  -2.572  25.220  0.00  0.00    +0.123 A 
ENDBRANCH  15  18
ENDBRANCH  12   6
ENDBRANCH  10  12
TORSDOF 8
ENDMDL
MODEL 3
REMARK VINA RESULT:      -4.6      1.840      3.977
REMARK  Name = 75536648
REMARK  8 active torsions:
REMARK  status: ('A' for Active; 'I' for Inactive)
REMARK    1  A    between atoms: O_3  and  C_9
REMARK    2  A    between atoms: N_5  and  C_8
REMARK    3  A    between atoms: N_5  and  C_13
REMARK    4  A    between atoms: N_6  and  C_12
REMARK    5  A    between atoms: C_10  and  C_12
REMARK    6  A    between atoms: C_13  and  C_14
REMARK    7  A    between atoms: C_15  and  C_18
REMARK    8  A    between atoms: C_19  and  C_27
REMARK                            x       y       z     vdW  Elec       q    Type
REMARK                         _______ _______ _______ _____ _____    ______ ____
ROOT
ATOM      2  O   UNL     1      -2.616   2.435  22.831  0.00  0.00    -0.371 OA
ATOM      8  C   UNL     1      -2.948   3.220  25.040  0.00  0.00    +0.111 C 
ATOM      9  C   UNL     1      -1.452   3.099  24.807  0.00  0.00    +0.164 C 
ATOM     10  C   UNL     1      -1.322   2.387  23.462  0.00  0.00    +0.165 C 
ATOM     11  C   UNL     1      -3.483   3.262  23.618  0.00  0.00    +0.181 C 
ENDROOT
BRANCH   9   3
ATOM      3  O   UNL     1      -0.922   4.421  24.690  0.00  0.00    -0.388 OA
ATOM     29  H   UNL     1      -0.807   4.605  23.742  0.00  0.00    +0.210 HD
ENDBRANCH   9   3
BRANCH   8   5
ATOM      5  N   UNL     1      -3.477   2.063  25.758  0.00  0.00    -0.305 NA
ATOM     28  H   UNL     1      -2.704   1.453  26.027  0.00  0.00    +0.123 HD
BRANCH   5  13
ATOM     13  C   UNL     1      -4.398   1.302  24.922  0.00  0.00    +0.116 C 
BRANCH  13  14
ATOM     14  C   UNL     1      -3.921  -0.109  24.703  0.00  0.00    -0.032 A 
ATOM     16  C   UNL     1      -2.640  -0.485  25.105  0.00  0.00    +0.023 A 
ATOM     17  C   UNL     1      -4.763  -1.042  24.097  0.00  0.00    +0.005 A 
ATOM     19  C   UNL     1      -2.200  -1.793  24.902  0.00  0.00    +0.052 A 
ATOM     20  C   UNL     1      -4.324  -2.350  23.894  0.00  0.00    +0.002 A 
ATOM     21  C   UNL     1      -3.042  -2.726  24.297  0.00  0.00    +0.019 A 
BRANCH  19  27
ATOM      7  N   UNL     1       0.178  -2.492  25.650  0.00  0.00    -0.191 NA
ATOM     27  C   UNL     1      -0.887  -2.179  25.315  0.00  0.00    +0.099 C 
ENDBRANCH  19  27
ENDBRANCH  13  14
ENDBRANCH   5  13
ENDBRANCH   8   5
BRANCH  10  12
ATOM     12  C   UNL     1      -0.904   0.930  23.583  0.00  0.00    +0.138 C 
BRANCH  12   6
ATOM      4  O   UNL     1       0.806  -0.588  21.846  0.00  0.00    -0.270 OA
ATOM      6  N   UNL     1       0.522   0.803  23.680  0.00  0.00    -0.309 N 
ATOM     15  C   UNL     1       1.274   0.043  22.790  0.00  0.00    +0.244 C 
ATOM     30  H   UNL     1       0.962   1.232  24.488  0.00  0.00    +0.149 HD
BRANCH  15  18
ATOM      1  F   UNL     1       6.802  -0.151  23.751  0.00  0.00    -0.205 F 
ATOM     18  C   UNL     1       2.736  -0.008  23.044  0.00  0.00    +0.037 A 
ATOM     22  C   UNL     1       3.314  -1.167  23.563  0.00  0.00    +0.016 A 
ATOM     23  C   UNL     1       3.532   1.103  22.764  0.00  0.00    +0.016 A 
ATOM     24  C   UNL     1       4.688  -1.215  23.801  0.00  0.00    +0.039 A 
ATOM     25  C   UNL     1       4.906   1.055  23.003  0.00  0.00    +0.039 A 
ATOM     26  C   UNL     1       5.484  -0.104  23.521  0.00  0.00    +0.123 A 
ENDBRANCH  15  18
ENDBRANCH  12   6
ENDBRANCH  10  12
TORSDOF 8
ENDMDL
MODEL 4
REMARK VINA RESULT:      -4.5      2.738      5.135
REMARK  Name = 75536648
REMARK  8 active torsions:
REMARK  status: ('A' for Active; 'I' for Inactive)
REMARK    1  A    between atoms: O_3  and  C_9
REMARK    2  A    between atoms: N_5  and  C_8
REMARK    3  A    between atoms: N_5  and  C_13
REMARK    4  A    between atoms: N_6  and  C_12
REMARK    5  A    between atoms: C_10  and  C_12
REMARK    6  A    between atoms: C_13  and  C_14
REMARK    7  A    between atoms: C_15  and  C_18
REMARK    8  A    between atoms: C_19  and  C_27
REMARK                            x       y       z     vdW  Elec       q    Type
REMARK                         _______ _______ _______ _____ _____    ______ ____
ROOT
ATOM      2  O   UNL     1      -3.121   4.469  24.398  0.00  0.00    -0.371 OA
ATOM      8  C   UNL     1      -4.874   2.879  24.316  0.00  0.00    +0.111 C 
ATOM      9  C   UNL     1      -4.694   3.302  25.764  0.00  0.00    +0.164 C 
ATOM     10  C   UNL     1      -3.421   4.146  25.769  0.00  0.00    +0.165 C 
ATOM     11  C   UNL     1      -4.204   4.022  23.571  0.00  0.00    +0.181 C 
ENDROOT
BRANCH   9   3
ATOM      3  O   UNL     1      -5.805   4.130  26.116  0.00  0.00    -0.388 OA
ATOM     29  H   UNL     1      -6.601   3.727  25.731  0.00  0.00    +0.210 HD
ENDBRANCH   9   3
BRANCH   8   5
ATOM      5  N   UNL     1      -4.200   1.614  24.038  0.00  0.00    -0.305 NA
ATOM     28  H   UNL     1      -4.477   1.281  23.114  0.00  0.00    +0.123 HD
BRANCH   5  13
ATOM     13  C   UNL     1      -4.558   0.599  25.021  0.00  0.00    +0.116 C 
BRANCH  13  14
ATOM     14  C   UNL     1      -3.878  -0.716  24.746  0.00  0.00    -0.032 A 
ATOM     16  C   UNL     1      -2.566  -0.925  25.167  0.00  0.00    +0.023 A 
ATOM     17  C   UNL     1      -4.563  -1.725  24.068  0.00  0.00    +0.005 A 
ATOM     19  C   UNL     1      -1.937  -2.144  24.912  0.00  0.00    +0.052 A 
ATOM     20  C   UNL     1      -3.934  -2.944  23.814  0.00  0.00    +0.002 A 
ATOM     21  C   UNL     1      -2.622  -3.153  24.236  0.00  0.00    +0.019 A 
BRANCH  19  27
ATOM      7  N   UNL     1       0.500  -2.534  25.695  0.00  0.00    -0.191 NA
ATOM     27  C   UNL     1      -0.592  -2.359  25.344  0.00  0.00    +0.099 C 
ENDBRANCH  19  27
ENDBRANCH  13  14
ENDBRANCH   5  13
ENDBRANCH   8   5
BRANCH  10  12
ATOM     12  C   UNL     1      -2.219   3.430  26.364  0.00  0.00    +0.138 C 
BRANCH  12   6
ATOM      4  O   UNL     1       0.553   2.683  26.363  0.00  0.00    -0.270 OA
ATOM      6  N   UNL     1      -1.547   2.631  25.380  0.00  0.00    -0.309 N 
ATOM     15  C   UNL     1      -0.193   2.317  25.460  0.00  0.00    +0.244 C 
ATOM     30  H   UNL     1      -2.087   2.366  24.564  0.00  0.00    +0.149 HD
BRANCH  15  18
ATOM      1  F   UNL     1       1.890  -0.761  21.252  0.00  0.00    -0.205 F 
ATOM     18  C   UNL     1       0.357   1.503  24.347  0.00  0.00    +0.037 A 
ATOM     22  C   UNL     1       1.723   1.542  24.064  0.00  0.00    +0.016 A 
ATOM     23  C   UNL     1      -0.491   0.699  23.584  0.00  0.00    +0.016 A 
ATOM     24  C   UNL     1       2.240   0.777  23.019  0.00  0.00    +0.039 A 
ATOM     25  C   UNL     1       0.028  -0.066  22.539  0.00  0.00    +0.039 A 
ATOM     26  C   UNL     1       1.393  -0.027  22.256  0.00  0.00    +0.123 A 
ENDBRANCH  15  18
ENDBRANCH  12   6
ENDBRANCH  10  12
TORSDOF 8
ENDMDL
MODEL 5
REMARK VINA RESULT:      -3.3     15.854     18.095
REMARK  Name = 75536648
REMARK  8 active torsions:
REMARK  status: ('A' for Active; 'I' for Inactive)
REMARK    1  A    between atoms: O_3  and  C_9
REMARK    2  A    between atoms: N_5  and  C_8
REMARK    3  A    between atoms: N_5  and  C_13
REMARK    4  A    between atoms: N_6  and  C_12
REMARK    5  A    between atoms: C_10  and  C_12
REMARK    6  A    between atoms: C_13  and  C_14
REMARK    7  A    between atoms: C_15  and  C_18
REMARK    8  A    between atoms: C_19  and  C_27
REMARK                            x       y       z     vdW  Elec       q    Type
REMARK                         _______ _______ _______ _____ _____    ______ ____
ROOT
ATOM      2  O   UNL     1      -3.536 -10.430   9.334  0.00  0.00    -0.371 OA
ATOM      8  C   UNL     1      -5.487  -9.182   9.824  0.00  0.00    +0.111 C 
ATOM      9  C   UNL     1      -4.400  -8.750  10.793  0.00  0.00    +0.164 C 
ATOM     10  C   UNL     1      -3.259  -9.740  10.566  0.00  0.00    +0.165 C 
ATOM     11  C   UNL     1      -4.676  -9.824   8.711  0.00  0.00    +0.181 C 
ENDROOT
BRANCH   9   3
ATOM      3  O   UNL     1      -3.969  -7.443  10.409  0.00  0.00    -0.388 OA
ATOM     29  H   UNL     1      -4.734  -6.849  10.490  0.00  0.00    +0.210 HD
ENDBRANCH   9   3
BRANCH   8   5
ATOM      5  N   UNL     1      -6.393 -10.154  10.431  0.00  0.00    -0.305 NA
ATOM     28  H   UNL     1      -5.846 -10.882  10.892  0.00  0.00    +0.123 HD
BRANCH   5  13
ATOM     13  C   UNL     1      -7.241 -10.781   9.424  0.00  0.00    +0.116 C 
BRANCH  13  14
ATOM     14  C   UNL     1      -8.358  -9.872   8.985  0.00  0.00    -0.032 A 
ATOM     16  C   UNL     1      -8.164  -8.491   8.955  0.00  0.00    +0.023 A 
ATOM     17  C   UNL     1      -9.588 -10.412   8.607  0.00  0.00    +0.005 A 
ATOM     19  C   UNL     1      -9.200  -7.650   8.547  0.00  0.00    +0.052 A 
ATOM     20  C   UNL     1     -10.622  -9.571   8.199  0.00  0.00    +0.002 A 
ATOM     21  C   UNL     1     -10.428  -8.190   8.169  0.00  0.00    +0.019 A 
BRANCH  19  27
ATOM      7  N   UNL     1      -8.840  -5.086   8.490  0.00  0.00    -0.191 NA
ATOM     27  C   UNL     1      -9.001  -6.235   8.516  0.00  0.00    +0.099 C 
ENDBRANCH  19  27
ENDBRANCH  13  14
ENDBRANCH   5  13
ENDBRANCH   8   5
BRANCH  10  12
ATOM     12  C   UNL     1      -3.121 -10.774  11.672  0.00  0.00    +0.138 C 
BRANCH  12   6
ATOM      4  O   UNL     1      -2.635 -10.771  14.502  0.00  0.00    -0.270 OA
ATOM      6  N   UNL     1      -4.091 -10.563  12.708  0.00  0.00    -0.309 N 
ATOM     15  C   UNL     1      -3.765 -10.579  14.061  0.00  0.00    +0.244 C 
ATOM     30  H   UNL     1      -5.058 -10.481  12.415  0.00  0.00    +0.149 HD
BRANCH  15  18
ATOM      1  F   UNL     1      -8.014  -9.791  17.645  0.00  0.00    -0.205 F 
ATOM     18  C   UNL     1      -4.889 -10.370  15.009  0.00  0.00    +0.037 A 
ATOM     22  C   UNL     1      -4.653 -10.383  16.384  0.00  0.00    +0.016 A 
ATOM     23  C   UNL     1      -6.180 -10.162  14.524  0.00  0.00    +0.016 A 
ATOM     24  C   UNL     1      -5.708 -10.187  17.274  0.00  0.00    +0.039 A 
ATOM     25  C   UNL     1      -7.236  -9.966  15.415  0.00  0.00    +0.039 A 
ATOM     26  C   UNL     1      -7.000  -9.978  16.790  0.00  0.00    +0.123 A 
ENDBRANCH  15  18
ENDBRANCH  12   6
ENDBRANCH  10  12
TORSDOF 8
ENDMDL
MODEL 6
REMARK VINA RESULT:      -2.8      3.789      5.587
REMARK  Name = 75536648
REMARK  8 active torsions:
REMARK  status: ('A' for Active; 'I' for Inactive)
REMARK    1  A    between atoms: O_3  and  C_9
REMARK    2  A    between atoms: N_5  and  C_8
REMARK    3  A    between atoms: N_5  and  C_13
REMARK    4  A    between atoms: N_6  and  C_12
REMARK    5  A    between atoms: C_10  and  C_12
REMARK    6  A    between atoms: C_13  and  C_14
REMARK    7  A    between atoms: C_15  and  C_18
REMARK    8  A    between atoms: C_19  and  C_27
REMARK                            x       y       z     vdW  Elec       q    Type
REMARK                         _______ _______ _______ _____ _____    ______ ____
ROOT
ATOM      2  O   UNL     1       0.303   4.242  25.105  0.00  0.00    -0.371 OA
ATOM      8  C   UNL     1      -1.802   3.650  24.196  0.00  0.00    +0.111 C 
ATOM      9  C   UNL     1      -1.815   3.299  25.674  0.00  0.00    +0.164 C 
ATOM     10  C   UNL     1      -0.373   3.498  26.136  0.00  0.00    +0.165 C 
ATOM     11  C   UNL     1      -0.659   4.649  24.124  0.00  0.00    +0.181 C 
ENDROOT
BRANCH   9   3
ATOM      3  O   UNL     1      -2.655   4.246  26.338  0.00  0.00    -0.388 OA
ATOM     29  H   UNL     1      -3.357   4.498  25.716  0.00  0.00    +0.210 HD
ENDBRANCH   9   3
BRANCH   8   5
ATOM      5  N   UNL     1      -1.519   2.480  23.368  0.00  0.00    -0.305 NA
ATOM     28  H   UNL     1      -0.870   2.743  22.626  0.00  0.00    +0.123 HD
BRANCH   5  13
ATOM     13  C   UNL     1      -2.737   1.964  22.755  0.00  0.00    +0.116 C 
BRANCH  13  14
ATOM     14  C   UNL     1      -3.889   1.944  23.725  0.00  0.00    -0.032 A 
ATOM     16  C   UNL     1      -4.442   3.141  24.178  0.00  0.00    +0.023 A 
ATOM     17  C   UNL     1      -4.403   0.725  24.170  0.00  0.00    +0.005 A 
ATOM     19  C   UNL     1      -5.509   3.120  25.077  0.00  0.00    +0.052 A 
ATOM     20  C   UNL     1      -5.470   0.705  25.067  0.00  0.00    +0.002 A 
ATOM     21  C   UNL     1      -6.023   1.902  25.520  0.00  0.00    +0.019 A 
BRANCH  19  27
ATOM      7  N   UNL     1      -6.538   5.342  25.918  0.00  0.00    -0.191 NA
ATOM     27  C   UNL     1      -6.077   4.347  25.541  0.00  0.00    +0.099 C 
ENDBRANCH  19  27
ENDBRANCH  13  14
ENDBRANCH   5  13
ENDBRANCH   8   5
BRANCH  10  12
ATOM     12  C   UNL     1       0.381   2.197  26.358  0.00  0.00    +0.138 C 
BRANCH  12   6
ATOM      4  O   UNL     1       0.370   0.422  24.102  0.00  0.00    -0.270 OA
ATOM      6  N   UNL     1      -0.473   1.060  26.166  0.00  0.00    -0.309 N 
ATOM     15  C   UNL     1      -0.408   0.251  25.036  0.00  0.00    +0.244 C 
ATOM     30  H   UNL     1      -1.196   0.912  26.862  0.00  0.00    +0.149 HD
BRANCH  15  18
ATOM      1  F   UNL     1      -4.078  -3.992  24.810  0.00  0.00    -0.205 F 
ATOM     18  C   UNL     1      -1.379  -0.872  24.976  0.00  0.00    +0.037 A 
ATOM     22  C   UNL     1      -1.273  -1.833  23.971  0.00  0.00    +0.016 A 
ATOM     23  C   UNL     1      -2.398  -0.963  25.925  0.00  0.00    +0.016 A 
ATOM     24  C   UNL     1      -2.184  -2.888  23.916  0.00  0.00    +0.039 A 
ATOM     25  C   UNL     1      -3.310  -2.018  25.869  0.00  0.00    +0.039 A 
ATOM     26  C   UNL     1      -3.203  -2.981  24.864  0.00  0.00    +0.123 A 
ENDBRANCH  15  18
ENDBRANCH  12   6
ENDBRANCH  10  12
TORSDOF 8
ENDMDL
MODEL 7
REMARK VINA RESULT:      -2.6      3.321      4.360
REMARK  Name = 75536648
REMARK  8 active torsions:
REMARK  status: ('A' for Active; 'I' for Inactive)
REMARK    1  A    between atoms: O_3  and  C_9
REMARK    2  A    between atoms: N_5  and  C_8
REMARK    3  A    between atoms: N_5  and  C_13
REMARK    4  A    between atoms: N_6  and  C_12
REMARK    5  A    between atoms: C_10  and  C_12
REMARK    6  A    between atoms: C_13  and  C_14
REMARK    7  A    between atoms: C_15  and  C_18
REMARK    8  A    between atoms: C_19  and  C_27
REMARK                            x       y       z     vdW  Elec       q    Type
REMARK                         _______ _______ _______ _____ _____    ______ ____
ROOT
ATOM      2  O   UNL     1      -1.403  -2.242  26.156  0.00  0.00    -0.371 OA
ATOM      8  C   UNL     1      -3.595  -1.729  25.422  0.00  0.00    +0.111 C 
ATOM      9  C   UNL     1      -2.879  -2.447  24.291  0.00  0.00    +0.164 C 
ATOM     10  C   UNL     1      -1.425  -2.546  24.749  0.00  0.00    +0.165 C 
ATOM     11  C   UNL     1      -2.753  -2.123  26.624  0.00  0.00    +0.181 C 
ENDROOT
BRANCH   9   3
ATOM      3  O   UNL     1      -3.429  -3.763  24.193  0.00  0.00    -0.388 OA
ATOM     29  H   UNL     1      -4.380  -3.667  24.016  0.00  0.00    +0.210 HD
ENDBRANCH   9   3
BRANCH   8   5
ATOM      5  N   UNL     1      -3.582  -0.280  25.233  0.00  0.00    -0.305 NA
ATOM     28  H   UNL     1      -4.314   0.140  25.806  0.00  0.00    +0.123 HD
BRANCH   5  13
ATOM     13  C   UNL     1      -3.826   0.071  23.840  0.00  0.00    +0.116 C 
BRANCH  13  14
ATOM     14  C   UNL     1      -3.954   1.559  23.649  0.00  0.00    -0.032 A 
ATOM     16  C   UNL     1      -4.700   2.317  24.551  0.00  0.00    +0.023 A 
ATOM     17  C   UNL     1      -3.324   2.180  22.570  0.00  0.00    +0.005 A 
ATOM     19  C   UNL     1      -4.817   3.696  24.375  0.00  0.00    +0.052 A 
ATOM     20  C   UNL     1      -3.441   3.558  22.394  0.00  0.00    +0.002 A 
ATOM     21  C   UNL     1      -4.187   4.316  23.296  0.00  0.00    +0.019 A 
BRANCH  19  27
ATOM      7  N   UNL     1      -6.201   5.104  26.049  0.00  0.00    -0.191 NA
ATOM     27  C   UNL     1      -5.581   4.473  25.299  0.00  0.00    +0.099 C 
ENDBRANCH  19  27
ENDBRANCH  13  14
ENDBRANCH   5  13
ENDBRANCH   8   5
BRANCH  10  12
ATOM     12  C   UNL     1      -0.496  -1.576  24.037  0.00  0.00    +0.138 C 
BRANCH  12   6
ATOM      4  O   UNL     1       1.113   0.737  23.485  0.00  0.00    -0.270 OA
ATOM      6  N   UNL     1      -0.810  -0.215  24.363  0.00  0.00    -0.309 N 
ATOM     15  C   UNL     1       0.032   0.848  24.056  0.00  0.00    +0.244 C 
ATOM     30  H   UNL     1      -1.651  -0.063  24.911  0.00  0.00    +0.149 HD
BRANCH  15  18
ATOM      1  F   UNL     1      -1.701   5.935  25.681  0.00  0.00    -0.205 F 
ATOM     18  C   UNL     1      -0.426   2.194  24.486  0.00  0.00    +0.037 A 
ATOM     22  C   UNL     1      -0.060   3.323  23.753  0.00  0.00    +0.016 A 
ATOM     23  C   UNL     1      -1.223   2.329  25.624  0.00  0.00    +0.016 A 
ATOM     24  C   UNL     1      -0.492   4.586  24.156  0.00  0.00    +0.039 A 
ATOM     25  C   UNL     1      -1.654   3.593  26.027  0.00  0.00    +0.039 A 
ATOM     26  C   UNL     1      -1.288   4.722  25.293  0.00  0.00    +0.123 A 
ENDBRANCH  15  18
ENDBRANCH  12   6
ENDBRANCH  10  12
TORSDOF 8
ENDMDL
MODEL 8
REMARK VINA RESULT:      -2.1      1.428      2.096
REMARK  Name = 75536648
REMARK  8 active torsions:
REMARK  status: ('A' for Active; 'I' for Inactive)
REMARK    1  A    between atoms: O_3  and  C_9
REMARK    2  A    between atoms: N_5  and  C_8
REMARK    3  A    between atoms: N_5  and  C_13
REMARK    4  A    between atoms: N_6  and  C_12
REMARK    5  A    between atoms: C_10  and  C_12
REMARK    6  A    between atoms: C_13  and  C_14
REMARK    7  A    between atoms: C_15  and  C_18
REMARK    8  A    between atoms: C_19  and  C_27
REMARK                            x       y       z     vdW  Elec       q    Type
REMARK                         _______ _______ _______ _____ _____    ______ ____
ROOT
ATOM      2  O   UNL     1      -1.129  -2.084  25.626  0.00  0.00    -0.371 OA
ATOM      8  C   UNL     1      -3.478  -2.128  25.328  0.00  0.00    +0.111 C 
ATOM      9  C   UNL     1      -2.832  -2.144  23.953  0.00  0.00    +0.164 C 
ATOM     10  C   UNL     1      -1.348  -1.893  24.216  0.00  0.00    +0.165 C 
ATOM     11  C   UNL     1      -2.334  -2.590  26.216  0.00  0.00    +0.181 C 
ENDROOT
BRANCH   9   3
ATOM      3  O   UNL     1      -2.994  -3.457  23.411  0.00  0.00    -0.388 OA
ATOM     29  H   UNL     1      -3.018  -4.078  24.158  0.00  0.00    +0.210 HD
ENDBRANCH   9   3
BRANCH   8   5
ATOM      5  N   UNL     1      -3.914  -0.785  25.702  0.00  0.00    -0.305 NA
ATOM     28  H   UNL     1      -4.728  -0.854  26.313  0.00  0.00    +0.123 HD
BRANCH   5  13
ATOM     13  C   UNL     1      -4.282  -0.005  24.526  0.00  0.00    +0.116 C 
BRANCH  13  14
ATOM     14  C   UNL     1      -3.947   1.453  24.692  0.00  0.00    -0.032 A 
ATOM     16  C   UNL     1      -4.952   2.370  25.001  0.00  0.00    +0.023 A 
ATOM     17  C   UNL     1      -2.630   1.888  24.538  0.00  0.00    +0.005 A 
ATOM     19  C   UNL     1      -4.641   3.721  25.155  0.00  0.00    +0.052 A 
ATOM     20  C   UNL     1      -2.320   3.239  24.693  0.00  0.00    +0.002 A 
ATOM     21  C   UNL     1      -3.325   4.155  25.001  0.00  0.00    +0.019 A 
BRANCH  19  27
ATOM      7  N   UNL     1      -6.506   5.423  25.729  0.00  0.00    -0.191 NA
ATOM     27  C   UNL     1      -5.671   4.660  25.472  0.00  0.00    +0.099 C 
ENDBRANCH  19  27
ENDBRANCH  13  14
ENDBRANCH   5  13
ENDBRANCH   8   5
BRANCH  10  12
ATOM     12  C   UNL     1      -0.894  -0.489  23.849  0.00  0.00    +0.138 C 
BRANCH  12   6
ATOM      4  O   UNL     1       0.951  -0.443  21.650  0.00  0.00    -0.270 OA
ATOM      6  N   UNL     1       0.532  -0.363  23.930  0.00  0.00    -0.309 N 
ATOM     15  C   UNL     1       1.353  -0.350  22.807  0.00  0.00    +0.244 C 
ATOM     30  H   UNL     1       0.936  -0.366  24.861  0.00  0.00    +0.149 HD
BRANCH  15  18
ATOM      1  F   UNL     1       6.868   0.068  23.771  0.00  0.00    -0.205 F 
ATOM     18  C   UNL     1       2.812  -0.240  23.062  0.00  0.00    +0.037 A 
ATOM     22  C   UNL     1       3.489   0.939  22.745  0.00  0.00    +0.016 A 
ATOM     23  C   UNL     1       3.506  -1.315  23.618  0.00  0.00    +0.016 A 
ATOM     24  C   UNL     1       4.859   1.042  22.985  0.00  0.00    +0.039 A 
ATOM     25  C   UNL     1       4.877  -1.211  23.858  0.00  0.00    +0.039 A 
ATOM     26  C   UNL     1       5.553  -0.032  23.541  0.00  0.00    +0.123 A 
ENDBRANCH  15  18
ENDBRANCH  12   6
ENDBRANCH  10  12
TORSDOF 8
ENDMDL
MODEL 9
REMARK VINA RESULT:      -1.8     14.649     17.009
REMARK  Name = 75536648
REMARK  8 active torsions:
REMARK  status: ('A' for Active; 'I' for Inactive)
REMARK    1  A    between atoms: O_3  and  C_9
REMARK    2  A    between atoms: N_5  and  C_8
REMARK    3  A    between atoms: N_5  and  C_13
REMARK    4  A    between atoms: N_6  and  C_12
REMARK    5  A    between atoms: C_10  and  C_12
REMARK    6  A    between atoms: C_13  and  C_14
REMARK    7  A    between atoms: C_15  and  C_18
REMARK    8  A    between atoms: C_19  and  C_27
REMARK                            x       y       z     vdW  Elec       q    Type
REMARK                         _______ _______ _______ _____ _____    ______ ____
ROOT
ATOM      2  O   UNL     1      -3.143 -10.422   9.680  0.00  0.00    -0.371 OA
ATOM      8  C   UNL     1      -4.815  -9.051  10.646  0.00  0.00    +0.111 C 
ATOM      9  C   UNL     1      -3.483  -8.676  11.272  0.00  0.00    +0.164 C 
ATOM     10  C   UNL     1      -2.503  -9.736  10.772  0.00  0.00    +0.165 C 
ATOM     11  C   UNL     1      -4.373  -9.754   9.372  0.00  0.00    +0.181 C 
ENDROOT
BRANCH   9   3
ATOM      3  O   UNL     1      -3.100  -7.402  10.750  0.00  0.00    -0.388 OA
ATOM     29  H   UNL     1      -2.413  -7.042  11.336  0.00  0.00    +0.210 HD
ENDBRANCH   9   3
BRANCH   8   5
ATOM      5  N   UNL     1      -5.575  -9.959  11.501  0.00  0.00    -0.305 NA
ATOM     28  H   UNL     1      -4.956 -10.694  11.844  0.00  0.00    +0.123 HD
BRANCH   5  13
ATOM     13  C   UNL     1      -6.669 -10.581  10.765  0.00  0.00    +0.116 C 
BRANCH  13  14
ATOM     14  C   UNL     1      -7.988 -10.414  11.472  0.00  0.00    -0.032 A 
ATOM     16  C   UNL     1      -8.023  -9.932  12.781  0.00  0.00    +0.023 A 
ATOM     17  C   UNL     1      -9.176 -10.740  10.817  0.00  0.00    +0.005 A 
ATOM     19  C   UNL     1      -9.246  -9.777  13.435  0.00  0.00    +0.052 A 
ATOM     20  C   UNL     1     -10.397 -10.584  11.471  0.00  0.00    +0.002 A 
ATOM     21  C   UNL     1     -10.433 -10.103  12.779  0.00  0.00    +0.019 A 
BRANCH  19  27
ATOM      7  N   UNL     1      -9.312  -8.881  15.863  0.00  0.00    -0.191 NA
ATOM     27  C   UNL     1      -9.282  -9.283  14.775  0.00  0.00    +0.099 C 
ENDBRANCH  19  27
ENDBRANCH  13  14
ENDBRANCH   5  13
ENDBRANCH   8   5
BRANCH  10  12
ATOM     12  C   UNL     1      -2.128 -10.764  11.828  0.00  0.00    +0.138 C 
BRANCH  12   6
ATOM      4  O   UNL     1      -1.578  -9.949  14.525  0.00  0.00    -0.270 OA
ATOM      6  N   UNL     1      -3.053 -10.749  12.924  0.00  0.00    -0.309 N 
ATOM     15  C   UNL     1      -2.699 -10.335  14.205  0.00  0.00    +0.244 C 
ATOM     30  H   UNL     1      -3.974 -11.135  12.746  0.00  0.00    +0.149 HD
BRANCH  15  18
ATOM      1  F   UNL     1      -6.733 -10.596  18.100  0.00  0.00    -0.205 F 
ATOM     18  C   UNL     1      -3.766 -10.404  15.235  0.00  0.00    +0.037 A 
ATOM     22  C   UNL     1      -3.433 -10.636  16.570  0.00  0.00    +0.016 A 
ATOM     23  C   UNL     1      -5.102 -10.238  14.868  0.00  0.00    +0.016 A 
ATOM     24  C   UNL     1      -4.435 -10.700  17.537  0.00  0.00    +0.039 A 
ATOM     25  C   UNL     1      -6.104 -10.302  15.836  0.00  0.00    +0.039 A 
ATOM     26  C   UNL     1      -5.771 -10.533  17.171  0.00  0.00    +0.123 A 
ENDBRANCH  15  18
ENDBRANCH  12   6
ENDBRANCH  10  12
TORSDOF 8
ENDMDL
MODEL 10
REMARK VINA RESULT:      -1.5      4.078      6.005
REMARK  Name = 75536648
REMARK  8 active torsions:
REMARK  status: ('A' for Active; 'I' for Inactive)
REMARK    1  A    between atoms: O_3  and  C_9
REMARK    2  A    between atoms: N_5  and  C_8
REMARK    3  A    between atoms: N_5  and  C_13
REMARK    4  A    between atoms: N_6  and  C_12
REMARK    5  A    between atoms: C_10  and  C_12
REMARK    6  A    between atoms: C_13  and  C_14
REMARK    7  A    between atoms: C_15  and  C_18
REMARK    8  A    between atoms: C_19  and  C_27
REMARK                            x       y       z     vdW  Elec       q    Type
REMARK                         _______ _______ _______ _____ _____    ______ ____
ROOT
ATOM      2  O   UNL     1       0.651   3.366  24.891  0.00  0.00    -0.371 OA
ATOM      8  C   UNL     1      -1.554   3.561  24.050  0.00  0.00    +0.111 C 
ATOM      9  C   UNL     1      -1.642   3.369  25.554  0.00  0.00    +0.164 C 
ATOM     10  C   UNL     1      -0.217   3.033  25.990  0.00  0.00    +0.165 C 
ATOM     11  C   UNL     1      -0.118   4.030  23.879  0.00  0.00    +0.181 C 
ENDROOT
BRANCH   9   3
ATOM      3  O   UNL     1      -2.024   4.620  26.130  0.00  0.00    -0.388 OA
ATOM     29  H   UNL     1      -1.937   5.297  25.439  0.00  0.00    +0.210 HD
ENDBRANCH   9   3
BRANCH   8   5
ATOM      5  N   UNL     1      -1.778   2.308  23.333  0.00  0.00    -0.305 NA
ATOM     28  H   UNL     1      -1.170   2.276  22.514  0.00  0.00    +0.123 HD
BRANCH   5  13
ATOM     13  C   UNL     1      -3.161   2.198  22.886  0.00  0.00    +0.116 C 
BRANCH  13  14
ATOM     14  C   UNL     1      -4.118   2.836  23.859  0.00  0.00    -0.032 A 
ATOM     16  C   UNL     1      -4.817   2.045  24.770  0.00  0.00    +0.023 A 
ATOM     17  C   UNL     1      -4.303   4.219  23.849  0.00  0.00    +0.005 A 
ATOM     19  C   UNL     1      -5.703   2.637  25.671  0.00  0.00    +0.052 A 
ATOM     20  C   UNL     1      -5.188   4.810  24.750  0.00  0.00    +0.002 A 
ATOM     21  C   UNL     1      -5.888   4.019  25.661  0.00  0.00    +0.019 A 
BRANCH  19  27
ATOM      7  N   UNL     1      -7.002   1.171  27.364  0.00  0.00    -0.191 NA
ATOM     27  C   UNL     1      -6.420   1.828  26.605  0.00  0.00    +0.099 C 
ENDBRANCH  19  27
ENDBRANCH  13  14
ENDBRANCH   5  13
ENDBRANCH   8   5
BRANCH  10  12
ATOM     12  C   UNL     1      -0.015   1.565  26.329  0.00  0.00    +0.138 C 
BRANCH  12   6
ATOM      4  O   UNL     1      -0.874  -1.059  27.119  0.00  0.00    -0.270 OA
ATOM      6  N   UNL     1      -0.971   0.736  25.653  0.00  0.00    -0.309 N 
ATOM     15  C   UNL     1      -1.329  -0.529  26.110  0.00  0.00    +0.244 C 
ATOM     30  H   UNL     1      -1.324   1.080  24.766  0.00  0.00    +0.149 HD
BRANCH  15  18
ATOM      1  F   UNL     1      -5.051  -3.333  22.978  0.00  0.00    -0.205 F 
ATOM     18  C   UNL     1      -2.314  -1.271  25.281  0.00  0.00    +0.037 A 
ATOM     22  C   UNL     1      -3.560  -0.707  25.007  0.00  0.00    +0.016 A 
ATOM     23  C   UNL     1      -1.992  -2.532  24.778  0.00  0.00    +0.016 A 
ATOM     24  C   UNL     1      -4.484  -1.404  24.229  0.00  0.00    +0.039 A 
ATOM     25  C   UNL     1      -2.917  -3.228  23.999  0.00  0.00    +0.039 A 
ATOM     26  C   UNL     1      -4.163  -2.664  23.725  0.00  0.00    +0.123 A 
ENDBRANCH  15  18
ENDBRANCH  12   6
ENDBRANCH  10  12
TORSDOF 8
ENDMDL
