MODEL 1
REMARK VINA RESULT:       7.6      0.000      0.000
REMARK  Name = 71694011
REMARK  7 active torsions:
REMARK  status: ('A' for Active; 'I' for Inactive)
REMARK    1  A    between atoms: O_1  and  C_11
REMARK    2  A    between atoms: O_2  and  C_13
REMARK    3  A    between atoms: N_5  and  C_10
REMARK    4  A    between atoms: N_7  and  C_19
REMARK    5  A    between atoms: C_9  and  C_14
REMARK    6  A    between atoms: C_17  and  C_20
REMARK    7  A    between atoms: C_27  and  C_30
REMARK                            x       y       z     vdW  Elec       q    Type
REMARK                         _______ _______ _______ _____ _____    ______ ____
ROOT
ATOM      9  C   UNL     1      -1.776  -1.050  23.795  0.00  0.00    +0.046 C 
ATOM     10  C   UNL     1      -2.351  -0.583  25.150  0.00  0.00    +0.112 C 
ATOM     11  C   UNL     1      -3.588  -1.462  25.333  0.00  0.00    +0.164 C 
ATOM     12  C   UNL     1      -2.314  -2.487  23.579  0.00  0.00    +0.044 C 
ATOM     13  C   UNL     1      -3.122  -2.823  24.831  0.00  0.00    +0.145 C 
ENDROOT
BRANCH   9  14
ATOM      6  N   UNL     1       1.901  -1.613  24.535  0.00  0.00    -0.240 NA
ATOM     14  C   UNL     1      -0.268  -0.929  23.718  0.00  0.00    -0.024 A 
ATOM     15  C   UNL     1       0.336  -0.064  22.813  0.00  0.00    +0.009 A 
ATOM     16  C   UNL     1       0.551  -1.675  24.550  0.00  0.00    +0.116 A 
ATOM     18  C   UNL     1       1.723   0.028  22.767  0.00  0.00    +0.044 A 
ATOM     19  C   UNL     1       2.454  -0.761  23.642  0.00  0.00    +0.121 A 
BRANCH  19   7
ATOM      4  O   UNL     1       6.628  -0.523  23.196  0.00  0.00    -0.377 OA
ATOM      7  N   UNL     1       3.848  -0.658  23.584  0.00  0.00    -0.311 N 
ATOM     21  C   UNL     1       4.676  -1.858  23.740  0.00  0.00    +0.134 C 
ATOM     22  C   UNL     1       4.431   0.401  22.748  0.00  0.00    +0.134 C 
ATOM     23  C   UNL     1       6.094  -1.458  24.133  0.00  0.00    +0.178 C 
ATOM     24  C   UNL     1       5.861   0.681  23.196  0.00  0.00    +0.178 C 
ENDBRANCH  19   7
ENDBRANCH   9  14
BRANCH  10   5
ATOM      3  O   UNL     1      -0.555   1.609  25.611  0.00  0.00    -0.270 OA
ATOM      5  N   UNL     1      -2.684   0.819  25.144  0.00  0.00    -0.305 N 
ATOM     17  C   UNL     1      -1.743   1.812  25.378  0.00  0.00    +0.244 C 
ATOM     31  H   UNL     1      -3.657   1.059  24.981  0.00  0.00    +0.149 HD
BRANCH  17  20
ATOM     20  C   UNL     1      -2.250   3.208  25.362  0.00  0.00    +0.038 A 
ATOM     25  C   UNL     1      -3.619   3.455  25.462  0.00  0.00    +0.032 A 
ATOM     26  C   UNL     1      -1.356   4.273  25.247  0.00  0.00    +0.013 A 
ATOM     27  C   UNL     1      -4.095   4.766  25.448  0.00  0.00    +0.052 A 
ATOM     28  C   UNL     1      -1.832   5.584  25.231  0.00  0.00    +0.002 A 
ATOM     29  C   UNL     1      -3.201   5.832  25.332  0.00  0.00    +0.019 A 
BRANCH  27  30
ATOM      8  N   UNL     1      -6.636   5.225  25.638  0.00  0.00    -0.191 NA
ATOM     30  C   UNL     1      -5.497   5.020  25.553  0.00  0.00    +0.099 C 
ENDBRANCH  27  30
ENDBRANCH  17  20
ENDBRANCH  10   5
BRANCH  11   1
ATOM      1  O   UNL     1      -4.002  -1.531  26.685  0.00  0.00    -0.387 OA
ATOM     32  H   UNL     1      -3.690  -0.724  27.128  0.00  0.00    +0.210 HD
ENDBRANCH  11   1
BRANCH  13   2
ATOM      2  O   UNL     1      -2.260  -3.449  25.777  0.00  0.00    -0.389 OA
ATOM     33  H   UNL     1      -1.507  -3.820  25.286  0.00  0.00    +0.210 HD
ENDBRANCH  13   2
TORSDOF 7
ENDMDL
MODEL 2
REMARK VINA RESULT:       8.2      1.455      1.963
REMARK  Name = 71694011
REMARK  7 active torsions:
REMARK  status: ('A' for Active; 'I' for Inactive)
REMARK    1  A    between atoms: O_1  and  C_11
REMARK    2  A    between atoms: O_2  and  C_13
REMARK    3  A    between atoms: N_5  and  C_10
REMARK    4  A    between atoms: N_7  and  C_19
REMARK    5  A    between atoms: C_9  and  C_14
REMARK    6  A    between atoms: C_17  and  C_20
REMARK    7  A    between atoms: C_27  and  C_30
REMARK                            x       y       z     vdW  Elec       q    Type
REMARK                         _______ _______ _______ _____ _____    ______ ____
ROOT
ATOM      9  C   UNL     1      -1.928  -1.177  23.917  0.00  0.00    +0.046 C 
ATOM     10  C   UNL     1      -2.482  -0.811  25.312  0.00  0.00    +0.112 C 
ATOM     11  C   UNL     1      -3.678  -1.748  25.477  0.00  0.00    +0.164 C 
ATOM     12  C   UNL     1      -2.416  -2.621  23.633  0.00  0.00    +0.044 C 
ATOM     13  C   UNL     1      -3.174  -3.058  24.885  0.00  0.00    +0.145 C 
ENDROOT
BRANCH   9  14
ATOM      6  N   UNL     1       1.788  -1.638  24.520  0.00  0.00    -0.240 NA
ATOM     14  C   UNL     1      -0.429  -0.991  23.807  0.00  0.00    -0.024 A 
ATOM     15  C   UNL     1       0.115  -0.048  22.943  0.00  0.00    +0.009 A 
ATOM     16  C   UNL     1       0.443  -1.755  24.567  0.00  0.00    +0.116 A 
ATOM     18  C   UNL     1       1.496   0.102  22.866  0.00  0.00    +0.044 A 
ATOM     19  C   UNL     1       2.282  -0.711  23.669  0.00  0.00    +0.121 A 
BRANCH  19   7
ATOM      4  O   UNL     1       6.431  -0.302  23.132  0.00  0.00    -0.377 OA
ATOM      7  N   UNL     1       3.668  -0.548  23.580  0.00  0.00    -0.311 N 
ATOM     21  C   UNL     1       4.551  -1.708  23.744  0.00  0.00    +0.134 C 
ATOM     22  C   UNL     1       4.187   0.516  22.710  0.00  0.00    +0.134 C 
ATOM     23  C   UNL     1       5.958  -1.238  24.099  0.00  0.00    +0.178 C 
ATOM     24  C   UNL     1       5.612   0.868  23.122  0.00  0.00    +0.178 C 
ENDBRANCH  19   7
ENDBRANCH   9  14
BRANCH  10   5
ATOM      3  O   UNL     1      -5.045   0.297  24.643  0.00  0.00    -0.270 OA
ATOM      5  N   UNL     1      -2.869   0.574  25.394  0.00  0.00    -0.305 N 
ATOM     17  C   UNL     1      -4.137   1.019  25.048  0.00  0.00    +0.244 C 
ATOM     31  H   UNL     1      -2.158   1.232  25.699  0.00  0.00    +0.149 HD
BRANCH  17  20
ATOM     20  C   UNL     1      -4.370   2.481  25.164  0.00  0.00    +0.038 A 
ATOM     25  C   UNL     1      -3.299   3.369  25.070  0.00  0.00    +0.032 A 
ATOM     26  C   UNL     1      -5.663   2.966  25.368  0.00  0.00    +0.013 A 
ATOM     27  C   UNL     1      -3.519   4.742  25.179  0.00  0.00    +0.052 A 
ATOM     28  C   UNL     1      -5.883   4.339  25.478  0.00  0.00    +0.002 A 
ATOM     29  C   UNL     1      -4.812   5.228  25.383  0.00  0.00    +0.019 A 
BRANCH  27  30
ATOM      8  N   UNL     1      -1.532   6.391  24.999  0.00  0.00    -0.191 NA
ATOM     30  C   UNL     1      -2.423   5.652  25.080  0.00  0.00    +0.099 C 
ENDBRANCH  27  30
ENDBRANCH  17  20
ENDBRANCH  10   5
BRANCH  11   1
ATOM      1  O   UNL     1      -4.050  -1.910  26.832  0.00  0.00    -0.387 OA
ATOM     32  H   UNL     1      -3.338  -2.404  27.273  0.00  0.00    +0.210 HD
ENDBRANCH  11   1
BRANCH  13   2
ATOM      2  O   UNL     1      -2.262  -3.702  25.770  0.00  0.00    -0.389 OA
ATOM     33  H   UNL     1      -1.371  -3.369  25.565  0.00  0.00    +0.210 HD
ENDBRANCH  13   2
TORSDOF 7
ENDMDL
MODEL 3
REMARK VINA RESULT:       9.0      2.227      7.973
REMARK  Name = 71694011
REMARK  7 active torsions:
REMARK  status: ('A' for Active; 'I' for Inactive)
REMARK    1  A    between atoms: O_1  and  C_11
REMARK    2  A    between atoms: O_2  and  C_13
REMARK    3  A    between atoms: N_5  and  C_10
REMARK    4  A    between atoms: N_7  and  C_19
REMARK    5  A    between atoms: C_9  and  C_14
REMARK    6  A    between atoms: C_17  and  C_20
REMARK    7  A    between atoms: C_27  and  C_30
REMARK                            x       y       z     vdW  Elec       q    Type
REMARK                         _______ _______ _______ _____ _____    ______ ____
ROOT
ATOM      9  C   UNL     1      -2.104  -1.304  25.420  0.00  0.00    +0.046 C 
ATOM     10  C   UNL     1      -1.444  -1.785  24.108  0.00  0.00    +0.112 C 
ATOM     11  C   UNL     1      -1.534  -3.308  24.202  0.00  0.00    +0.164 C 
ATOM     12  C   UNL     1      -3.028  -2.461  25.878  0.00  0.00    +0.044 C 
ATOM     13  C   UNL     1      -2.919  -3.535  24.797  0.00  0.00    +0.145 C 
ENDROOT
BRANCH   9  14
ATOM      6  N   UNL     1      -2.652   2.444  25.234  0.00  0.00    -0.240 NA
ATOM     14  C   UNL     1      -2.802   0.032  25.276  0.00  0.00    -0.024 A 
ATOM     15  C   UNL     1      -4.174   0.105  25.066  0.00  0.00    +0.009 A 
ATOM     16  C   UNL     1      -2.092   1.220  25.352  0.00  0.00    +0.116 A 
ATOM     18  C   UNL     1      -4.787   1.348  24.939  0.00  0.00    +0.044 A 
ATOM     19  C   UNL     1      -3.989   2.477  25.031  0.00  0.00    +0.121 A 
BRANCH  19   7
ATOM      4  O   UNL     1      -6.086   6.081  24.491  0.00  0.00    -0.377 OA
ATOM      7  N   UNL     1      -4.620   3.719  24.902  0.00  0.00    -0.311 N 
ATOM     21  C   UNL     1      -4.389   4.535  23.705  0.00  0.00    +0.134 C 
ATOM     22  C   UNL     1      -5.932   3.899  25.538  0.00  0.00    +0.134 C 
ATOM     23  C   UNL     1      -4.751   5.987  23.995  0.00  0.00    +0.178 C 
ATOM     24  C   UNL     1      -6.210   5.385  25.731  0.00  0.00    +0.178 C 
ENDBRANCH  19   7
ENDBRANCH   9  14
BRANCH  10   5
ATOM      3  O   UNL     1      -0.511   0.490  22.626  0.00  0.00    -0.270 OA
ATOM      5  N   UNL     1      -0.080  -1.334  23.992  0.00  0.00    -0.305 N 
ATOM     17  C   UNL     1       0.277  -0.217  23.249  0.00  0.00    +0.244 C 
ATOM     31  H   UNL     1       0.628  -1.887  24.462  0.00  0.00    +0.149 HD
BRANCH  17  20
ATOM     20  C   UNL     1       1.727   0.102  23.207  0.00  0.00    +0.038 A 
ATOM     25  C   UNL     1       2.667  -0.881  23.514  0.00  0.00    +0.032 A 
ATOM     26  C   UNL     1       2.148   1.386  22.860  0.00  0.00    +0.013 A 
ATOM     27  C   UNL     1       4.029  -0.581  23.474  0.00  0.00    +0.052 A 
ATOM     28  C   UNL     1       3.509   1.687  22.820  0.00  0.00    +0.002 A 
ATOM     29  C   UNL     1       4.451   0.703  23.127  0.00  0.00    +0.019 A 
BRANCH  27  30
ATOM      8  N   UNL     1       5.777  -2.406  24.038  0.00  0.00    -0.191 NA
ATOM     30  C   UNL     1       4.993  -1.588  23.786  0.00  0.00    +0.099 C 
ENDBRANCH  27  30
ENDBRANCH  17  20
ENDBRANCH  10   5
BRANCH  11   1
ATOM      1  O   UNL     1      -1.413  -3.932  22.938  0.00  0.00    -0.387 OA
ATOM     32  H   UNL     1      -0.811  -3.389  22.401  0.00  0.00    +0.210 HD
ENDBRANCH  11   1
BRANCH  13   2
ATOM      2  O   UNL     1      -3.936  -3.309  23.825  0.00  0.00    -0.389 OA
ATOM     33  H   UNL     1      -4.153  -2.362  23.844  0.00  0.00    +0.210 HD
ENDBRANCH  13   2
TORSDOF 7
ENDMDL
