MODEL 1
REMARK VINA RESULT:      -5.0      0.000      0.000
REMARK  Name = 71693615
REMARK  6 active torsions:
REMARK  status: ('A' for Active; 'I' for Inactive)
REMARK    1  A    between atoms: O_2  and  C_10
REMARK    2  A    between atoms: N_5  and  C_13
REMARK    3  A    between atoms: N_6  and  C_18
REMARK    4  A    between atoms: C_7  and  C_10
REMARK    5  A    between atoms: C_8  and  C_9
REMARK    6  A    between atoms: C_19  and  C_20
REMARK                            x       y       z     vdW  Elec       q    Type
REMARK                         _______ _______ _______ _____ _____    ______ ____
ROOT
ATOM      1  O   UNL     1      -2.735   3.418  25.010  0.00  0.00    -0.361 OA
ATOM      3  O   UNL     1      -6.132   4.192  25.756  0.00  0.00    -0.273 OA
ATOM      5  N   UNL     1      -5.203   2.152  25.119  0.00  0.00    -0.295 N 
ATOM      7  C   UNL     1      -3.998   1.398  24.697  0.00  0.00    +0.134 C 
ATOM      8  C   UNL     1      -2.717   2.017  25.289  0.00  0.00    +0.171 C 
ATOM     11  C   UNL     1      -3.760   4.058  25.731  0.00  0.00    +0.256 C 
ATOM     12  C   UNL     1      -5.148   3.488  25.518  0.00  0.00    +0.242 C 
ATOM     13  C   UNL     1      -6.511   1.547  24.878  0.00  0.00    +0.132 C 
ENDROOT
BRANCH   8   9
ATOM      9  C   UNL     1      -1.432   1.466  24.707  0.00  0.00    -0.017 A 
ATOM     14  C   UNL     1      -0.394   2.334  24.366  0.00  0.00    +0.008 A 
ATOM     15  C   UNL     1      -1.286   0.093  24.512  0.00  0.00    +0.008 A 
ATOM     16  C   UNL     1       0.790   1.828  23.829  0.00  0.00    +0.023 A 
ATOM     17  C   UNL     1      -0.102  -0.413  23.975  0.00  0.00    +0.023 A 
ATOM     18  C   UNL     1       0.935   0.455  23.633  0.00  0.00    +0.033 A 
BRANCH  18   6
ATOM      4  O   UNL     1       3.542   1.826  23.007  0.00  0.00    -0.276 OA
ATOM      6  N   UNL     1       2.120  -0.053  23.097  0.00  0.00    -0.286 N 
ATOM     19  C   UNL     1       3.309   0.636  22.822  0.00  0.00    +0.214 C 
ATOM     20  C   UNL     1       4.362  -0.277  22.244  0.00  0.00    +0.109 C 
ATOM     22  H   UNL     1       2.108  -1.047  22.880  0.00  0.00    +0.155 HD
ENDBRANCH  18   6
ENDBRANCH   8   9
BRANCH   7  10
ATOM     10  C   UNL     1      -4.085  -0.096  25.042  0.00  0.00    +0.181 C 
BRANCH  10   2
ATOM      2  O   UNL     1      -4.287  -0.814  23.843  0.00  0.00    -0.393 OA
ATOM     21  H   UNL     1      -3.563  -1.459  23.769  0.00  0.00    +0.209 HD
ENDBRANCH  10   2
ENDBRANCH   7  10
TORSDOF 4
ENDMDL
MODEL 2
REMARK VINA RESULT:      -4.6      1.298      2.429
REMARK  Name = 71693615
REMARK  6 active torsions:
REMARK  status: ('A' for Active; 'I' for Inactive)
REMARK    1  A    between atoms: O_2  and  C_10
REMARK    2  A    between atoms: N_5  and  C_13
REMARK    3  A    between atoms: N_6  and  C_18
REMARK    4  A    between atoms: C_7  and  C_10
REMARK    5  A    between atoms: C_8  and  C_9
REMARK    6  A    between atoms: C_19  and  C_20
REMARK                            x       y       z     vdW  Elec       q    Type
REMARK                         _______ _______ _______ _____ _____    ______ ____
ROOT
ATOM      1  O   UNL     1      -3.579   0.497  25.011  0.00  0.00    -0.361 OA
ATOM      3  O   UNL     1      -6.856   1.610  25.863  0.00  0.00    -0.273 OA
ATOM      5  N   UNL     1      -4.970   2.877  25.343  0.00  0.00    -0.295 N 
ATOM      7  C   UNL     1      -3.527   2.899  25.003  0.00  0.00    +0.134 C 
ATOM      8  C   UNL     1      -3.109   1.617  24.258  0.00  0.00    +0.171 C 
ATOM     11  C   UNL     1      -4.985   0.434  24.988  0.00  0.00    +0.256 C 
ATOM     12  C   UNL     1      -5.692   1.688  25.462  0.00  0.00    +0.242 C 
ATOM     13  C   UNL     1      -5.587   4.120  25.800  0.00  0.00    +0.132 C 
ENDROOT
BRANCH   8   9
ATOM      9  C   UNL     1      -1.613   1.447  24.101  0.00  0.00    -0.017 A 
ATOM     14  C   UNL     1      -0.757   2.515  24.379  0.00  0.00    +0.008 A 
ATOM     15  C   UNL     1      -1.088   0.225  23.681  0.00  0.00    +0.008 A 
ATOM     16  C   UNL     1       0.622   2.360  24.234  0.00  0.00    +0.023 A 
ATOM     17  C   UNL     1       0.290   0.070  23.537  0.00  0.00    +0.023 A 
ATOM     18  C   UNL     1       1.145   1.137  23.813  0.00  0.00    +0.033 A 
BRANCH  18   6
ATOM      4  O   UNL     1       2.757   0.019  21.529  0.00  0.00    -0.276 OA
ATOM      6  N   UNL     1       2.525   0.981  23.669  0.00  0.00    -0.286 N 
ATOM     19  C   UNL     1       3.225   0.448  22.578  0.00  0.00    +0.214 C 
ATOM     20  C   UNL     1       4.714   0.452  22.815  0.00  0.00    +0.109 C 
ATOM     22  H   UNL     1       3.082   1.293  24.461  0.00  0.00    +0.155 HD
ENDBRANCH  18   6
ENDBRANCH   8   9
BRANCH   7  10
ATOM     10  C   UNL     1      -3.130   4.145  24.198  0.00  0.00    +0.181 C 
BRANCH  10   2
ATOM      2  O   UNL     1      -2.339   4.972  25.026  0.00  0.00    -0.393 OA
ATOM     21  H   UNL     1      -1.838   5.568  24.444  0.00  0.00    +0.209 HD
ENDBRANCH  10   2
ENDBRANCH   7  10
TORSDOF 4
ENDMDL
MODEL 3
REMARK VINA RESULT:      -4.2      1.745      2.652
REMARK  Name = 71693615
REMARK  6 active torsions:
REMARK  status: ('A' for Active; 'I' for Inactive)
REMARK    1  A    between atoms: O_2  and  C_10
REMARK    2  A    between atoms: N_5  and  C_13
REMARK    3  A    between atoms: N_6  and  C_18
REMARK    4  A    between atoms: C_7  and  C_10
REMARK    5  A    between atoms: C_8  and  C_9
REMARK    6  A    between atoms: C_19  and  C_20
REMARK                            x       y       z     vdW  Elec       q    Type
REMARK                         _______ _______ _______ _____ _____    ______ ____
ROOT
ATOM      1  O   UNL     1      -2.526  -0.066  25.160  0.00  0.00    -0.361 OA
ATOM      3  O   UNL     1      -5.898   0.844  25.866  0.00  0.00    -0.273 OA
ATOM      5  N   UNL     1      -4.242   2.084  24.793  0.00  0.00    -0.295 N 
ATOM      7  C   UNL     1      -2.831   2.172  24.344  0.00  0.00    +0.134 C 
ATOM      8  C   UNL     1      -2.256   0.777  24.039  0.00  0.00    +0.171 C 
ATOM     11  C   UNL     1      -3.906  -0.312  25.279  0.00  0.00    +0.256 C 
ATOM     12  C   UNL     1      -4.775   0.927  25.364  0.00  0.00    +0.242 C 
ATOM     13  C   UNL     1      -5.020   3.319  24.858  0.00  0.00    +0.132 C 
ENDROOT
BRANCH   8   9
ATOM      9  C   UNL     1      -0.757   0.755  23.821  0.00  0.00    -0.017 A 
ATOM     14  C   UNL     1      -0.173  -0.287  23.098  0.00  0.00    +0.008 A 
ATOM     15  C   UNL     1       0.039   1.776  24.340  0.00  0.00    +0.008 A 
ATOM     16  C   UNL     1       1.208  -0.308  22.898  0.00  0.00    +0.023 A 
ATOM     17  C   UNL     1       1.419   1.755  24.138  0.00  0.00    +0.023 A 
ATOM     18  C   UNL     1       2.003   0.713  23.418  0.00  0.00    +0.033 A 
BRANCH  18   6
ATOM      4  O   UNL     1       4.008  -1.493  23.839  0.00  0.00    -0.276 OA
ATOM      6  N   UNL     1       3.384   0.693  23.217  0.00  0.00    -0.286 N 
ATOM     19  C   UNL     1       4.274  -0.367  23.433  0.00  0.00    +0.214 C 
ATOM     20  C   UNL     1       5.693   0.017  23.094  0.00  0.00    +0.109 C 
ATOM     22  H   UNL     1       3.785   1.562  22.871  0.00  0.00    +0.155 HD
ENDBRANCH  18   6
ENDBRANCH   8   9
BRANCH   7  10
ATOM     10  C   UNL     1      -2.654   3.105  23.137  0.00  0.00    +0.181 C 
BRANCH  10   2
ATOM      2  O   UNL     1      -2.842   2.344  21.961  0.00  0.00    -0.393 OA
ATOM     21  H   UNL     1      -1.960   2.106  21.629  0.00  0.00    +0.209 HD
ENDBRANCH  10   2
ENDBRANCH   7  10
TORSDOF 4
ENDMDL
MODEL 4
REMARK VINA RESULT:      -3.5      1.214      2.391
REMARK  Name = 71693615
REMARK  6 active torsions:
REMARK  status: ('A' for Active; 'I' for Inactive)
REMARK    1  A    between atoms: O_2  and  C_10
REMARK    2  A    between atoms: N_5  and  C_13
REMARK    3  A    between atoms: N_6  and  C_18
REMARK    4  A    between atoms: C_7  and  C_10
REMARK    5  A    between atoms: C_8  and  C_9
REMARK    6  A    between atoms: C_19  and  C_20
REMARK                            x       y       z     vdW  Elec       q    Type
REMARK                         _______ _______ _______ _____ _____    ______ ____
ROOT
ATOM      1  O   UNL     1      -3.542   0.144  25.209  0.00  0.00    -0.361 OA
ATOM      3  O   UNL     1      -6.635   1.634  26.162  0.00  0.00    -0.273 OA
ATOM      5  N   UNL     1      -4.708   2.660  25.344  0.00  0.00    -0.295 N 
ATOM      7  C   UNL     1      -3.302   2.514  24.896  0.00  0.00    +0.134 C 
ATOM      8  C   UNL     1      -3.052   1.121  24.288  0.00  0.00    +0.171 C 
ATOM     11  C   UNL     1      -4.945   0.203  25.301  0.00  0.00    +0.256 C 
ATOM     12  C   UNL     1      -5.509   1.562  25.666  0.00  0.00    +0.242 C 
ATOM     13  C   UNL     1      -5.185   3.998  25.688  0.00  0.00    +0.132 C 
ENDROOT
BRANCH   8   9
ATOM      9  C   UNL     1      -1.593   0.802  24.041  0.00  0.00    -0.017 A 
ATOM     14  C   UNL     1      -1.185  -0.524  23.890  0.00  0.00    +0.008 A 
ATOM     15  C   UNL     1      -0.656   1.833  23.962  0.00  0.00    +0.008 A 
ATOM     16  C   UNL     1       0.159  -0.819  23.663  0.00  0.00    +0.023 A 
ATOM     17  C   UNL     1       0.688   1.538  23.733  0.00  0.00    +0.023 A 
ATOM     18  C   UNL     1       1.095   0.212  23.585  0.00  0.00    +0.033 A 
BRANCH  18   6
ATOM      4  O   UNL     1       3.382   2.007  22.801  0.00  0.00    -0.276 OA
ATOM      6  N   UNL     1       2.441  -0.082  23.356  0.00  0.00    -0.286 N 
ATOM     19  C   UNL     1       3.467   0.799  22.988  0.00  0.00    +0.214 C 
ATOM     20  C   UNL     1       4.787   0.084  22.836  0.00  0.00    +0.109 C 
ATOM     22  H   UNL     1       2.697  -1.060  23.470  0.00  0.00    +0.155 HD
ENDBRANCH  18   6
ENDBRANCH   8   9
BRANCH   7  10
ATOM     10  C   UNL     1      -2.880   3.616  23.913  0.00  0.00    +0.181 C 
BRANCH  10   2
ATOM      2  O   UNL     1      -3.614   3.444  22.718  0.00  0.00    -0.393 OA
ATOM     21  H   UNL     1      -3.230   4.044  22.056  0.00  0.00    +0.209 HD
ENDBRANCH  10   2
ENDBRANCH   7  10
TORSDOF 4
ENDMDL
MODEL 5
REMARK VINA RESULT:      -1.5      1.981      2.171
REMARK  Name = 71693615
REMARK  6 active torsions:
REMARK  status: ('A' for Active; 'I' for Inactive)
REMARK    1  A    between atoms: O_2  and  C_10
REMARK    2  A    between atoms: N_5  and  C_13
REMARK    3  A    between atoms: N_6  and  C_18
REMARK    4  A    between atoms: C_7  and  C_10
REMARK    5  A    between atoms: C_8  and  C_9
REMARK    6  A    between atoms: C_19  and  C_20
REMARK                            x       y       z     vdW  Elec       q    Type
REMARK                         _______ _______ _______ _____ _____    ______ ____
ROOT
ATOM      1  O   UNL     1      -1.230   2.694  25.617  0.00  0.00    -0.361 OA
ATOM      3  O   UNL     1      -4.465   4.158  25.922  0.00  0.00    -0.273 OA
ATOM      5  N   UNL     1      -3.500   3.115  24.075  0.00  0.00    -0.295 N 
ATOM      7  C   UNL     1      -2.309   2.459  23.483  0.00  0.00    +0.134 C 
ATOM      8  C   UNL     1      -1.464   1.757  24.564  0.00  0.00    +0.171 C 
ATOM     11  C   UNL     1      -2.427   2.993  26.294  0.00  0.00    +0.256 C 
ATOM     12  C   UNL     1      -3.554   3.500  25.415  0.00  0.00    +0.242 C 
ATOM     13  C   UNL     1      -4.545   3.586  23.169  0.00  0.00    +0.132 C 
ENDROOT
BRANCH   8   9
ATOM      9  C   UNL     1      -0.108   1.283  24.084  0.00  0.00    -0.017 A 
ATOM     14  C   UNL     1       0.933   2.199  23.924  0.00  0.00    +0.008 A 
ATOM     15  C   UNL     1       0.101  -0.067  23.804  0.00  0.00    +0.008 A 
ATOM     16  C   UNL     1       2.182   1.764  23.481  0.00  0.00    +0.023 A 
ATOM     17  C   UNL     1       1.351  -0.502  23.362  0.00  0.00    +0.023 A 
ATOM     18  C   UNL     1       2.391   0.413  23.201  0.00  0.00    +0.033 A 
BRANCH  18   6
ATOM      4  O   UNL     1       5.105   0.643  24.483  0.00  0.00    -0.276 OA
ATOM      6  N   UNL     1       3.641  -0.024  22.759  0.00  0.00    -0.286 N 
ATOM     19  C   UNL     1       4.880   0.114  23.400  0.00  0.00    +0.214 C 
ATOM     20  C   UNL     1       5.997  -0.496  22.590  0.00  0.00    +0.109 C 
ATOM     22  H   UNL     1       3.642  -0.497  21.859  0.00  0.00    +0.155 HD
ENDBRANCH  18   6
ENDBRANCH   8   9
BRANCH   7  10
ATOM     10  C   UNL     1      -2.674   1.476  22.361  0.00  0.00    +0.181 C 
BRANCH  10   2
ATOM      2  O   UNL     1      -2.306   2.059  21.128  0.00  0.00    -0.393 OA
ATOM     21  H   UNL     1      -1.454   1.669  20.868  0.00  0.00    +0.209 HD
ENDBRANCH  10   2
ENDBRANCH   7  10
TORSDOF 4
ENDMDL
