MODEL 1
REMARK VINA RESULT:      -2.2      0.000      0.000
REMARK  Name = 51137082
REMARK  5 active torsions:
REMARK  status: ('A' for Active; 'I' for Inactive)
REMARK    1  A    between atoms: O_2  and  C_18
REMARK    2  A    between atoms: O_2  and  C_23
REMARK    3  A    between atoms: N_3  and  C_9
REMARK    4  A    between atoms: C_5  and  C_10
REMARK    5  A    between atoms: C_9  and  C_11
REMARK                            x       y       z     vdW  Elec       q    Type
REMARK                         _______ _______ _______ _____ _____    ______ ____
ROOT
ATOM      3  N   UNL     1      -3.449  -1.075  24.684  0.00  0.00    -0.297 NA
ATOM      5  C   UNL     1      -1.147  -1.508  24.579  0.00  0.00    +0.060 C 
ATOM      6  C   UNL     1      -1.543  -1.180  26.030  0.00  0.00    +0.027 C 
ATOM      7  C   UNL     1      -2.335  -1.031  23.734  0.00  0.00    +0.095 C 
ATOM      8  C   UNL     1      -2.910  -0.516  25.923  0.00  0.00    +0.085 C 
ENDROOT
BRANCH   5  10
ATOM      1  S   UNL     1       0.206   0.698  23.561  0.00  0.00    -0.072 S 
ATOM      4  N   UNL     1       1.314  -1.556  24.145  0.00  0.00    -0.244 NA
ATOM     10  C   UNL     1       0.170  -0.914  24.132  0.00  0.00    +0.084 A 
ATOM     12  C   UNL     1       1.904   0.557  23.299  0.00  0.00    +0.039 A 
ATOM     13  C   UNL     1       2.319  -0.725  23.671  0.00  0.00    +0.078 A 
ATOM     16  C   UNL     1       2.804   1.512  22.800  0.00  0.00    +0.017 A 
ATOM     17  C   UNL     1       3.684  -1.060  23.538  0.00  0.00    +0.029 A 
ATOM     21  C   UNL     1       4.149   1.155  22.678  0.00  0.00    +0.001 A 
ATOM     22  C   UNL     1       4.585  -0.114  23.042  0.00  0.00    +0.002 A 
ENDBRANCH   5  10
BRANCH   3   9
ATOM      9  C   UNL     1      -4.615  -0.346  24.207  0.00  0.00    +0.119 C 
BRANCH   9  11
ATOM     11  C   UNL     1      -4.599   1.091  24.656  0.00  0.00    -0.030 A 
ATOM     14  C   UNL     1      -3.556   1.931  24.266  0.00  0.00    +0.050 A 
ATOM     15  C   UNL     1      -5.626   1.581  25.462  0.00  0.00    +0.005 A 
ATOM     18  C   UNL     1      -3.541   3.263  24.683  0.00  0.00    +0.120 A 
ATOM     19  C   UNL     1      -5.610   2.912  25.879  0.00  0.00    +0.004 A 
ATOM     20  C   UNL     1      -4.568   3.754  25.489  0.00  0.00    +0.045 A 
BRANCH  18   2
ATOM      2  O   UNL     1      -2.522   4.082  24.303  0.00  0.00    -0.495 OA
ATOM     23  C   UNL     1      -1.627   4.519  25.325  0.00  0.00    +0.277 C 
ENDBRANCH  18   2
ENDBRANCH   9  11
ENDBRANCH   3   9
TORSDOF 4
ENDMDL
MODEL 2
REMARK VINA RESULT:      -1.8      2.504      5.235
REMARK  Name = 51137082
REMARK  5 active torsions:
REMARK  status: ('A' for Active; 'I' for Inactive)
REMARK    1  A    between atoms: O_2  and  C_18
REMARK    2  A    between atoms: O_2  and  C_23
REMARK    3  A    between atoms: N_3  and  C_9
REMARK    4  A    between atoms: C_5  and  C_10
REMARK    5  A    between atoms: C_9  and  C_11
REMARK                            x       y       z     vdW  Elec       q    Type
REMARK                         _______ _______ _______ _____ _____    ______ ____
ROOT
ATOM      3  N   UNL     1      -0.216   3.651  25.362  0.00  0.00    -0.297 NA
ATOM      5  C   UNL     1      -0.252   1.307  25.291  0.00  0.00    +0.060 C 
ATOM      6  C   UNL     1       0.558   1.846  24.098  0.00  0.00    +0.027 C 
ATOM      7  C   UNL     1      -1.033   2.521  25.810  0.00  0.00    +0.095 C 
ATOM      8  C   UNL     1       0.171   3.315  23.992  0.00  0.00    +0.085 C 
ENDROOT
BRANCH   5  10
ATOM      1  S   UNL     1      -0.502  -1.456  25.106  0.00  0.00    -0.072 S 
ATOM      4  N   UNL     1      -2.393   0.223  24.593  0.00  0.00    -0.244 NA
ATOM     10  C   UNL     1      -1.141   0.126  24.973  0.00  0.00    +0.084 A 
ATOM     12  C   UNL     1      -2.024  -2.100  24.614  0.00  0.00    +0.039 A 
ATOM     13  C   UNL     1      -2.913  -1.046  24.384  0.00  0.00    +0.078 A 
ATOM     16  C   UNL     1      -2.403  -3.441  24.445  0.00  0.00    +0.017 A 
ATOM     17  C   UNL     1      -4.229  -1.349  23.970  0.00  0.00    +0.029 A 
ATOM     21  C   UNL     1      -3.711  -3.713  24.034  0.00  0.00    +0.001 A 
ATOM     22  C   UNL     1      -4.613  -2.681  23.799  0.00  0.00    +0.002 A 
ENDBRANCH   5  10
BRANCH   3   9
ATOM      9  C   UNL     1      -0.928   4.918  25.443  0.00  0.00    +0.119 C 
BRANCH   9  11
ATOM     11  C   UNL     1      -2.394   4.756  25.141  0.00  0.00    -0.030 A 
ATOM     14  C   UNL     1      -3.191   3.959  25.965  0.00  0.00    +0.050 A 
ATOM     15  C   UNL     1      -2.956   5.402  24.041  0.00  0.00    +0.005 A 
ATOM     18  C   UNL     1      -4.550   3.809  25.686  0.00  0.00    +0.120 A 
ATOM     19  C   UNL     1      -4.315   5.251  23.762  0.00  0.00    +0.004 A 
ATOM     20  C   UNL     1      -5.112   4.454  24.584  0.00  0.00    +0.045 A 
BRANCH  18   2
ATOM      2  O   UNL     1      -5.326   3.030  26.488  0.00  0.00    -0.495 OA
ATOM     23  C   UNL     1      -5.914   1.873  25.896  0.00  0.00    +0.277 C 
ENDBRANCH  18   2
ENDBRANCH   9  11
ENDBRANCH   3   9
TORSDOF 4
ENDMDL
MODEL 3
REMARK VINA RESULT:      -1.6      2.274      3.773
REMARK  Name = 51137082
REMARK  5 active torsions:
REMARK  status: ('A' for Active; 'I' for Inactive)
REMARK    1  A    between atoms: O_2  and  C_18
REMARK    2  A    between atoms: O_2  and  C_23
REMARK    3  A    between atoms: N_3  and  C_9
REMARK    4  A    between atoms: C_5  and  C_10
REMARK    5  A    between atoms: C_9  and  C_11
REMARK                            x       y       z     vdW  Elec       q    Type
REMARK                         _______ _______ _______ _____ _____    ______ ____
ROOT
ATOM      3  N   UNL     1      -2.691   4.401  25.839  0.00  0.00    -0.297 NA
ATOM      5  C   UNL     1      -0.624   3.347  25.499  0.00  0.00    +0.060 C 
ATOM      6  C   UNL     1      -0.529   4.819  25.060  0.00  0.00    +0.027 C 
ATOM      7  C   UNL     1      -2.129   3.069  25.604  0.00  0.00    +0.095 C 
ATOM      8  C   UNL     1      -1.974   5.280  24.915  0.00  0.00    +0.085 C 
ENDROOT
BRANCH   5  10
ATOM      1  S   UNL     1      -0.784   1.072  23.909  0.00  0.00    -0.072 S 
ATOM      4  N   UNL     1       1.370   2.437  24.296  0.00  0.00    -0.244 NA
ATOM     10  C   UNL     1       0.094   2.368  24.597  0.00  0.00    +0.084 A 
ATOM     12  C   UNL     1       0.652   0.529  23.123  0.00  0.00    +0.039 A 
ATOM     13  C   UNL     1       1.705   1.389  23.451  0.00  0.00    +0.078 A 
ATOM     16  C   UNL     1       0.834  -0.578  22.279  0.00  0.00    +0.017 A 
ATOM     17  C   UNL     1       2.983   1.129  22.912  0.00  0.00    +0.029 A 
ATOM     21  C   UNL     1       2.110  -0.812  21.760  0.00  0.00    +0.001 A 
ATOM     22  C   UNL     1       3.171   0.029  22.071  0.00  0.00    +0.002 A 
ENDBRANCH   5  10
BRANCH   3   9
ATOM      9  C   UNL     1      -4.131   4.439  25.635  0.00  0.00    +0.119 C 
BRANCH   9  11
ATOM     11  C   UNL     1      -4.709   3.060  25.461  0.00  0.00    -0.030 A 
ATOM     14  C   UNL     1      -4.077   2.141  24.623  0.00  0.00    +0.050 A 
ATOM     15  C   UNL     1      -5.876   2.702  26.135  0.00  0.00    +0.005 A 
ATOM     18  C   UNL     1      -4.612   0.862  24.461  0.00  0.00    +0.120 A 
ATOM     19  C   UNL     1      -6.411   1.424  25.972  0.00  0.00    +0.004 A 
ATOM     20  C   UNL     1      -5.780   0.504  25.135  0.00  0.00    +0.045 A 
BRANCH  18   2
ATOM      2  O   UNL     1      -3.995  -0.034  23.642  0.00  0.00    -0.495 OA
ATOM     23  C   UNL     1      -4.065  -1.409  24.017  0.00  0.00    +0.277 C 
ENDBRANCH  18   2
ENDBRANCH   9  11
ENDBRANCH   3   9
TORSDOF 4
ENDMDL
MODEL 4
REMARK VINA RESULT:      -1.5      2.688      4.855
REMARK  Name = 51137082
REMARK  5 active torsions:
REMARK  status: ('A' for Active; 'I' for Inactive)
REMARK    1  A    between atoms: O_2  and  C_18
REMARK    2  A    between atoms: O_2  and  C_23
REMARK    3  A    between atoms: N_3  and  C_9
REMARK    4  A    between atoms: C_5  and  C_10
REMARK    5  A    between atoms: C_9  and  C_11
REMARK                            x       y       z     vdW  Elec       q    Type
REMARK                         _______ _______ _______ _____ _____    ______ ____
ROOT
ATOM      3  N   UNL     1      -5.251   3.495  25.093  0.00  0.00    -0.297 NA
ATOM      5  C   UNL     1      -4.967   1.234  24.540  0.00  0.00    +0.060 C 
ATOM      6  C   UNL     1      -5.859   1.351  25.789  0.00  0.00    +0.027 C 
ATOM      7  C   UNL     1      -4.307   2.612  24.404  0.00  0.00    +0.095 C 
ATOM      8  C   UNL     1      -5.634   2.767  26.302  0.00  0.00    +0.085 C 
ENDROOT
BRANCH   5  10
ATOM      1  S   UNL     1      -4.409  -1.424  23.946  0.00  0.00    -0.072 S 
ATOM      4  N   UNL     1      -2.754   0.202  25.073  0.00  0.00    -0.244 NA
ATOM     10  C   UNL     1      -3.965   0.102  24.578  0.00  0.00    +0.084 A 
ATOM     12  C   UNL     1      -2.850  -2.036  24.357  0.00  0.00    +0.039 A 
ATOM     13  C   UNL     1      -2.102  -1.016  24.953  0.00  0.00    +0.078 A 
ATOM     16  C   UNL     1      -2.328  -3.325  24.165  0.00  0.00    +0.017 A 
ATOM     17  C   UNL     1      -0.783  -1.301  25.371  0.00  0.00    +0.029 A 
ATOM     21  C   UNL     1      -1.021  -3.579  24.589  0.00  0.00    +0.001 A 
ATOM     22  C   UNL     1      -0.257  -2.582  25.184  0.00  0.00    +0.002 A 
ENDBRANCH   5  10
BRANCH   3   9
ATOM      9  C   UNL     1      -4.676   4.799  25.389  0.00  0.00    +0.119 C 
BRANCH   9  11
ATOM     11  C   UNL     1      -3.175   4.790  25.269  0.00  0.00    -0.030 A 
ATOM     14  C   UNL     1      -2.452   3.662  25.657  0.00  0.00    +0.050 A 
ATOM     15  C   UNL     1      -2.508   5.909  24.770  0.00  0.00    +0.005 A 
ATOM     18  C   UNL     1      -1.061   3.653  25.546  0.00  0.00    +0.120 A 
ATOM     19  C   UNL     1      -1.118   5.900  24.660  0.00  0.00    +0.004 A 
ATOM     20  C   UNL     1      -0.394   4.773  25.048  0.00  0.00    +0.045 A 
BRANCH  18   2
ATOM      2  O   UNL     1      -0.356   2.552  25.926  0.00  0.00    -0.495 OA
ATOM     23  C   UNL     1       0.399   1.886  24.915  0.00  0.00    +0.277 C 
ENDBRANCH  18   2
ENDBRANCH   9  11
ENDBRANCH   3   9
TORSDOF 4
ENDMDL
MODEL 5
REMARK VINA RESULT:      -0.9      1.105      1.683
REMARK  Name = 51137082
REMARK  5 active torsions:
REMARK  status: ('A' for Active; 'I' for Inactive)
REMARK    1  A    between atoms: O_2  and  C_18
REMARK    2  A    between atoms: O_2  and  C_23
REMARK    3  A    between atoms: N_3  and  C_9
REMARK    4  A    between atoms: C_5  and  C_10
REMARK    5  A    between atoms: C_9  and  C_11
REMARK                            x       y       z     vdW  Elec       q    Type
REMARK                         _______ _______ _______ _____ _____    ______ ____
ROOT
ATOM      3  N   UNL     1      -3.076  -1.441  24.733  0.00  0.00    -0.297 NA
ATOM      5  C   UNL     1      -0.754  -1.766  24.675  0.00  0.00    +0.060 C 
ATOM      6  C   UNL     1      -1.181  -1.353  26.095  0.00  0.00    +0.027 C 
ATOM      7  C   UNL     1      -1.956  -1.411  23.790  0.00  0.00    +0.095 C 
ATOM      8  C   UNL     1      -2.577  -0.767  25.932  0.00  0.00    +0.085 C 
ENDROOT
BRANCH   5  10
ATOM      1  S   UNL     1       0.488   0.382  23.422  0.00  0.00    -0.072 S 
ATOM      4  N   UNL     1       1.720  -1.697  24.324  0.00  0.00    -0.244 NA
ATOM     10  C   UNL     1       0.537  -1.143  24.194  0.00  0.00    +0.084 A 
ATOM     12  C   UNL     1       2.201   0.329  23.231  0.00  0.00    +0.039 A 
ATOM     13  C   UNL     1       2.684  -0.864  23.777  0.00  0.00    +0.078 A 
ATOM     16  C   UNL     1       3.054   1.274  22.640  0.00  0.00    +0.017 A 
ATOM     17  C   UNL     1       4.073  -1.116  23.729  0.00  0.00    +0.029 A 
ATOM     21  C   UNL     1       4.424   0.999  22.605  0.00  0.00    +0.001 A 
ATOM     22  C   UNL     1       4.928  -0.180  23.142  0.00  0.00    +0.002 A 
ENDBRANCH   5  10
BRANCH   3   9
ATOM      9  C   UNL     1      -4.271  -0.806  24.196  0.00  0.00    +0.119 C 
BRANCH   9  11
ATOM     11  C   UNL     1      -4.163   0.695  24.213  0.00  0.00    -0.030 A 
ATOM     14  C   UNL     1      -4.902   1.437  25.135  0.00  0.00    +0.050 A 
ATOM     15  C   UNL     1      -3.325   1.345  23.307  0.00  0.00    +0.005 A 
ATOM     18  C   UNL     1      -4.803   2.829  25.151  0.00  0.00    +0.120 A 
ATOM     19  C   UNL     1      -3.226   2.736  23.322  0.00  0.00    +0.004 A 
ATOM     20  C   UNL     1      -3.965   3.479  24.244  0.00  0.00    +0.045 A 
BRANCH  18   2
ATOM      2  O   UNL     1      -5.525   3.551  26.050  0.00  0.00    -0.495 OA
ATOM     23  C   UNL     1      -6.114   4.764  25.583  0.00  0.00    +0.277 C 
ENDBRANCH  18   2
ENDBRANCH   9  11
ENDBRANCH   3   9
TORSDOF 4
ENDMDL
MODEL 6
REMARK VINA RESULT:      -0.6      2.418      6.674
REMARK  Name = 51137082
REMARK  5 active torsions:
REMARK  status: ('A' for Active; 'I' for Inactive)
REMARK    1  A    between atoms: O_2  and  C_18
REMARK    2  A    between atoms: O_2  and  C_23
REMARK    3  A    between atoms: N_3  and  C_9
REMARK    4  A    between atoms: C_5  and  C_10
REMARK    5  A    between atoms: C_9  and  C_11
REMARK                            x       y       z     vdW  Elec       q    Type
REMARK                         _______ _______ _______ _____ _____    ______ ____
ROOT
ATOM      3  N   UNL     1      -2.231  -2.088  24.965  0.00  0.00    -0.297 NA
ATOM      5  C   UNL     1      -4.041  -0.660  25.394  0.00  0.00    +0.060 C 
ATOM      6  C   UNL     1      -4.314  -1.467  24.112  0.00  0.00    +0.027 C 
ATOM      7  C   UNL     1      -2.537  -0.827  25.645  0.00  0.00    +0.095 C 
ATOM      8  C   UNL     1      -2.956  -2.018  23.697  0.00  0.00    +0.085 C 
ENDROOT
BRANCH   5  10
ATOM      1  S   UNL     1      -5.959   1.244  26.047  0.00  0.00    -0.072 S 
ATOM      4  N   UNL     1      -3.776   1.745  24.767  0.00  0.00    -0.244 NA
ATOM     10  C   UNL     1      -4.471   0.788  25.336  0.00  0.00    +0.084 A 
ATOM     12  C   UNL     1      -5.676   2.876  25.567  0.00  0.00    +0.039 A 
ATOM     13  C   UNL     1      -4.454   2.948  24.892  0.00  0.00    +0.078 A 
ATOM     16  C   UNL     1      -6.480   4.009  25.772  0.00  0.00    +0.017 A 
ATOM     17  C   UNL     1      -4.023   4.202  24.407  0.00  0.00    +0.029 A 
ATOM     21  C   UNL     1      -6.029   5.237  25.282  0.00  0.00    +0.001 A 
ATOM     22  C   UNL     1      -4.817   5.334  24.608  0.00  0.00    +0.002 A 
ENDBRANCH   5  10
BRANCH   3   9
ATOM      9  C   UNL     1      -0.801  -2.285  24.776  0.00  0.00    +0.119 C 
BRANCH   9  11
ATOM     11  C   UNL     1      -0.105  -1.005  24.399  0.00  0.00    -0.030 A 
ATOM     14  C   UNL     1       0.919  -1.022  23.450  0.00  0.00    +0.050 A 
ATOM     15  C   UNL     1      -0.482   0.197  24.996  0.00  0.00    +0.005 A 
ATOM     18  C   UNL     1       1.565   0.164  23.100  0.00  0.00    +0.120 A 
ATOM     19  C   UNL     1       0.165   1.383  24.647  0.00  0.00    +0.004 A 
ATOM     20  C   UNL     1       1.188   1.367  23.698  0.00  0.00    +0.045 A 
BRANCH  18   2
ATOM      2  O   UNL     1       2.564   0.146  22.176  0.00  0.00    -0.495 OA
ATOM     23  C   UNL     1       3.824   0.684  22.574  0.00  0.00    +0.277 C 
ENDBRANCH  18   2
ENDBRANCH   9  11
ENDBRANCH   3   9
TORSDOF 4
ENDMDL
MODEL 7
REMARK VINA RESULT:      -0.6      2.268      6.453
REMARK  Name = 51137082
REMARK  5 active torsions:
REMARK  status: ('A' for Active; 'I' for Inactive)
REMARK    1  A    between atoms: O_2  and  C_18
REMARK    2  A    between atoms: O_2  and  C_23
REMARK    3  A    between atoms: N_3  and  C_9
REMARK    4  A    between atoms: C_5  and  C_10
REMARK    5  A    between atoms: C_9  and  C_11
REMARK                            x       y       z     vdW  Elec       q    Type
REMARK                         _______ _______ _______ _____ _____    ______ ____
ROOT
ATOM      3  N   UNL     1      -2.278  -2.093  24.928  0.00  0.00    -0.297 NA
ATOM      5  C   UNL     1      -4.082  -0.659  25.362  0.00  0.00    +0.060 C 
ATOM      6  C   UNL     1      -4.360  -1.461  24.078  0.00  0.00    +0.027 C 
ATOM      7  C   UNL     1      -2.578  -0.833  25.611  0.00  0.00    +0.095 C 
ATOM      8  C   UNL     1      -3.005  -2.016  23.660  0.00  0.00    +0.085 C 
ENDROOT
BRANCH   5  10
ATOM      1  S   UNL     1      -5.970   1.258  26.062  0.00  0.00    -0.072 S 
ATOM      4  N   UNL     1      -3.824   1.741  24.714  0.00  0.00    -0.244 NA
ATOM     10  C   UNL     1      -4.507   0.791  25.309  0.00  0.00    +0.084 A 
ATOM     12  C   UNL     1      -5.694   2.886  25.564  0.00  0.00    +0.039 A 
ATOM     13  C   UNL     1      -4.492   2.949  24.852  0.00  0.00    +0.078 A 
ATOM     16  C   UNL     1      -6.485   4.024  25.787  0.00  0.00    +0.017 A 
ATOM     17  C   UNL     1      -4.069   4.197  24.347  0.00  0.00    +0.029 A 
ATOM     21  C   UNL     1      -6.043   5.248  25.276  0.00  0.00    +0.001 A 
ATOM     22  C   UNL     1      -4.852   5.335  24.565  0.00  0.00    +0.002 A 
ENDBRANCH   5  10
BRANCH   3   9
ATOM      9  C   UNL     1      -0.850  -2.295  24.737  0.00  0.00    +0.119 C 
BRANCH   9  11
ATOM     11  C   UNL     1      -0.150  -1.019  24.351  0.00  0.00    -0.030 A 
ATOM     14  C   UNL     1      -0.382   0.149  25.077  0.00  0.00    +0.050 A 
ATOM     15  C   UNL     1       0.728  -1.005  23.268  0.00  0.00    +0.005 A 
ATOM     18  C   UNL     1       0.265   1.333  24.719  0.00  0.00    +0.120 A 
ATOM     19  C   UNL     1       1.374   0.178  22.910  0.00  0.00    +0.004 A 
ATOM     20  C   UNL     1       1.144   1.347  23.635  0.00  0.00    +0.045 A 
BRANCH  18   2
ATOM      2  O   UNL     1       0.038   2.473  25.427  0.00  0.00    -0.495 OA
ATOM     23  C   UNL     1      -0.677   3.515  24.765  0.00  0.00    +0.277 C 
ENDBRANCH  18   2
ENDBRANCH   9  11
ENDBRANCH   3   9
TORSDOF 4
ENDMDL
MODEL 8
REMARK VINA RESULT:      -0.1      2.636      7.686
REMARK  Name = 51137082
REMARK  5 active torsions:
REMARK  status: ('A' for Active; 'I' for Inactive)
REMARK    1  A    between atoms: O_2  and  C_18
REMARK    2  A    between atoms: O_2  and  C_23
REMARK    3  A    between atoms: N_3  and  C_9
REMARK    4  A    between atoms: C_5  and  C_10
REMARK    5  A    between atoms: C_9  and  C_11
REMARK                            x       y       z     vdW  Elec       q    Type
REMARK                         _______ _______ _______ _____ _____    ______ ____
ROOT
ATOM      3  N   UNL     1       0.293  -0.881  23.785  0.00  0.00    -0.297 NA
ATOM      5  C   UNL     1      -1.356  -0.056  25.235  0.00  0.00    +0.060 C 
ATOM      6  C   UNL     1      -1.654  -1.529  24.902  0.00  0.00    +0.027 C 
ATOM      7  C   UNL     1      -0.335   0.383  24.177  0.00  0.00    +0.095 C 
ATOM      8  C   UNL     1      -0.814  -1.831  23.667  0.00  0.00    +0.085 C 
ENDROOT
BRANCH   5  10
ATOM      1  S   UNL     1      -4.128   0.142  25.170  0.00  0.00    -0.072 S 
ATOM      4  N   UNL     1      -2.524   2.146  25.419  0.00  0.00    -0.244 NA
ATOM     10  C   UNL     1      -2.572   0.841  25.288  0.00  0.00    +0.084 A 
ATOM     12  C   UNL     1      -4.832   1.710  25.306  0.00  0.00    +0.039 A 
ATOM     13  C   UNL     1      -3.813   2.659  25.431  0.00  0.00    +0.078 A 
ATOM     16  C   UNL     1      -6.188   2.074  25.301  0.00  0.00    +0.017 A 
ATOM     17  C   UNL     1      -4.167   4.020  25.557  0.00  0.00    +0.029 A 
ATOM     21  C   UNL     1      -6.511   3.428  25.426  0.00  0.00    +0.001 A 
ATOM     22  C   UNL     1      -5.515   4.389  25.552  0.00  0.00    +0.002 A 
ENDBRANCH   5  10
BRANCH   3   9
ATOM      9  C   UNL     1       1.056  -0.763  22.552  0.00  0.00    +0.119 C 
BRANCH   9  11
ATOM     11  C   UNL     1       2.440  -0.226  22.800  0.00  0.00    -0.030 A 
ATOM     14  C   UNL     1       3.394  -1.023  23.435  0.00  0.00    +0.050 A 
ATOM     15  C   UNL     1       2.770   1.067  22.394  0.00  0.00    +0.005 A 
ATOM     18  C   UNL     1       4.677  -0.525  23.665  0.00  0.00    +0.120 A 
ATOM     19  C   UNL     1       4.053   1.565  22.625  0.00  0.00    +0.004 A 
ATOM     20  C   UNL     1       5.006   0.769  23.261  0.00  0.00    +0.045 A 
BRANCH  18   2
ATOM      2  O   UNL     1       5.606  -1.302  24.286  0.00  0.00    -0.495 OA
ATOM     23  C   UNL     1       6.974  -0.932  24.122  0.00  0.00    +0.277 C 
ENDBRANCH  18   2
ENDBRANCH   9  11
ENDBRANCH   3   9
TORSDOF 4
ENDMDL
MODEL 9
REMARK VINA RESULT:      -0.0      2.436      5.749
REMARK  Name = 51137082
REMARK  5 active torsions:
REMARK  status: ('A' for Active; 'I' for Inactive)
REMARK    1  A    between atoms: O_2  and  C_18
REMARK    2  A    between atoms: O_2  and  C_23
REMARK    3  A    between atoms: N_3  and  C_9
REMARK    4  A    between atoms: C_5  and  C_10
REMARK    5  A    between atoms: C_9  and  C_11
REMARK                            x       y       z     vdW  Elec       q    Type
REMARK                         _______ _______ _______ _____ _____    ______ ____
ROOT
ATOM      3  N   UNL     1      -4.016  -1.788  24.993  0.00  0.00    -0.297 NA
ATOM      5  C   UNL     1      -4.315   0.504  25.391  0.00  0.00    +0.060 C 
ATOM      6  C   UNL     1      -5.103   0.092  24.135  0.00  0.00    +0.027 C 
ATOM      7  C   UNL     1      -3.344  -0.657  25.638  0.00  0.00    +0.095 C 
ATOM      8  C   UNL     1      -4.519  -1.255  23.728  0.00  0.00    +0.085 C 
ENDROOT
BRANCH   5  10
ATOM      1  S   UNL     1      -4.522   3.271  25.570  0.00  0.00    -0.072 S 
ATOM      4  N   UNL     1      -2.350   1.999  25.005  0.00  0.00    -0.244 NA
ATOM     10  C   UNL     1      -3.620   1.843  25.294  0.00  0.00    +0.084 A 
ATOM     12  C   UNL     1      -3.103   4.209  25.284  0.00  0.00    +0.039 A 
ATOM     13  C   UNL     1      -2.038   3.350  24.996  0.00  0.00    +0.078 A 
ATOM     16  C   UNL     1      -2.946   5.604  25.314  0.00  0.00    +0.017 A 
ATOM     17  C   UNL     1      -0.771   3.911  24.729  0.00  0.00    +0.029 A 
ATOM     21  C   UNL     1      -1.681   6.132  25.044  0.00  0.00    +0.001 A 
ATOM     22  C   UNL     1      -0.606   5.299  24.755  0.00  0.00    +0.002 A 
ENDBRANCH   5  10
BRANCH   3   9
ATOM      9  C   UNL     1      -3.129  -2.926  24.802  0.00  0.00    +0.119 C 
BRANCH   9  11
ATOM     11  C   UNL     1      -1.684  -2.506  24.746  0.00  0.00    -0.030 A 
ATOM     14  C   UNL     1      -1.299  -1.444  23.927  0.00  0.00    +0.050 A 
ATOM     15  C   UNL     1      -0.731  -3.178  25.511  0.00  0.00    +0.005 A 
ATOM     18  C   UNL     1       0.040  -1.055  23.875  0.00  0.00    +0.120 A 
ATOM     19  C   UNL     1       0.607  -2.790  25.457  0.00  0.00    +0.004 A 
ATOM     20  C   UNL     1       0.994  -1.728  24.639  0.00  0.00    +0.045 A 
BRANCH  18   2
ATOM      2  O   UNL     1       0.416  -0.019  23.075  0.00  0.00    -0.495 OA
ATOM     23  C   UNL     1       1.763  -0.019  22.604  0.00  0.00    +0.277 C 
ENDBRANCH  18   2
ENDBRANCH   9  11
ENDBRANCH   3   9
TORSDOF 4
ENDMDL
MODEL 10
REMARK VINA RESULT:       1.3      2.612      6.956
REMARK  Name = 51137082
REMARK  5 active torsions:
REMARK  status: ('A' for Active; 'I' for Inactive)
REMARK    1  A    between atoms: O_2  and  C_18
REMARK    2  A    between atoms: O_2  and  C_23
REMARK    3  A    between atoms: N_3  and  C_9
REMARK    4  A    between atoms: C_5  and  C_10
REMARK    5  A    between atoms: C_9  and  C_11
REMARK                            x       y       z     vdW  Elec       q    Type
REMARK                         _______ _______ _______ _____ _____    ______ ____
ROOT
ATOM      3  N   UNL     1       0.558   1.074  23.306  0.00  0.00    -0.297 NA
ATOM      5  C   UNL     1      -1.117   2.673  23.680  0.00  0.00    +0.060 C 
ATOM      6  C   UNL     1       0.040   2.898  24.670  0.00  0.00    +0.027 C 
ATOM      7  C   UNL     1      -0.883   1.262  23.124  0.00  0.00    +0.095 C 
ATOM      8  C   UNL     1       0.841   1.603  24.640  0.00  0.00    +0.085 C 
ENDROOT
BRANCH   5  10
ATOM      1  S   UNL     1      -3.073   4.436  24.572  0.00  0.00    -0.072 S 
ATOM      4  N   UNL     1      -3.309   1.867  24.570  0.00  0.00    -0.244 NA
ATOM     10  C   UNL     1      -2.498   2.854  24.267  0.00  0.00    +0.084 A 
ATOM     12  C   UNL     1      -4.550   3.774  25.166  0.00  0.00    +0.039 A 
ATOM     13  C   UNL     1      -4.490   2.379  25.086  0.00  0.00    +0.078 A 
ATOM     16  C   UNL     1      -5.679   4.441  25.667  0.00  0.00    +0.017 A 
ATOM     17  C   UNL     1      -5.603   1.629  25.524  0.00  0.00    +0.029 A 
ATOM     21  C   UNL     1      -6.766   3.674  26.094  0.00  0.00    +0.001 A 
ATOM     22  C   UNL     1      -6.730   2.286  26.025  0.00  0.00    +0.002 A 
ENDBRANCH   5  10
BRANCH   3   9
ATOM      9  C   UNL     1       0.959  -0.318  23.164  0.00  0.00    +0.119 C 
BRANCH   9  11
ATOM     11  C   UNL     1       0.065  -1.241  23.948  0.00  0.00    -0.030 A 
ATOM     14  C   UNL     1      -1.252  -1.450  23.537  0.00  0.00    +0.050 A 
ATOM     15  C   UNL     1       0.552  -1.886  25.084  0.00  0.00    +0.005 A 
ATOM     18  C   UNL     1      -2.081  -2.306  24.264  0.00  0.00    +0.120 A 
ATOM     19  C   UNL     1      -0.277  -2.740  25.811  0.00  0.00    +0.004 A 
ATOM     20  C   UNL     1      -1.594  -2.950  25.402  0.00  0.00    +0.045 A 
BRANCH  18   2
ATOM      2  O   UNL     1      -3.366  -2.509  23.864  0.00  0.00    -0.495 OA
ATOM     23  C   UNL     1      -4.275  -1.420  24.023  0.00  0.00    +0.277 C 
ENDBRANCH  18   2
ENDBRANCH   9  11
ENDBRANCH   3   9
TORSDOF 4
ENDMDL
