MODEL 1
REMARK VINA RESULT:       2.4      0.000      0.000
REMARK  Name = 7672419
REMARK  5 active torsions:
REMARK  status: ('A' for Active; 'I' for Inactive)
REMARK    1  A    between atoms: O_4  and  C_21
REMARK    2  A    between atoms: O_4  and  C_27
REMARK    3  A    between atoms: C_16  and  C_19
REMARK    4  A    between atoms: C_17  and  C_20
REMARK    5  A    between atoms: C_19  and  C_21
REMARK                            x       y       z     vdW  Elec       q    Type
REMARK                         _______ _______ _______ _____ _____    ______ ____
ROOT
ATOM      2  O   UNL     1       0.130   2.118  25.752  0.00  0.00    -0.267 OA
ATOM      3  O   UNL     1      -4.571  -0.281  26.608  0.00  0.00    -0.276 OA
ATOM      5  N   UNL     1      -4.803   1.458  25.084  0.00  0.00    -0.300 N 
ATOM      6  N   UNL     1      -1.856   2.602  24.628  0.00  0.00    -0.311 N 
ATOM      7  C   UNL     1      -3.873   3.666  25.791  0.00  0.00    +0.027 C 
ATOM      8  C   UNL     1      -3.999   3.104  23.401  0.00  0.00    +0.054 C 
ATOM      9  C   UNL     1      -4.195   4.231  24.412  0.00  0.00    +0.018 C 
ATOM     10  C   UNL     1      -4.808   2.490  26.124  0.00  0.00    +0.113 C 
ATOM     11  C   UNL     1      -2.396   3.258  25.826  0.00  0.00    +0.130 C 
ATOM     12  C   UNL     1      -4.977   1.955  23.712  0.00  0.00    +0.117 C 
ATOM     13  C   UNL     1      -2.573   2.586  23.428  0.00  0.00    +0.027 A 
ATOM     14  C   UNL     1      -2.012   2.087  22.315  0.00  0.00    +0.022 A 
ATOM     15  C   UNL     1      -0.546   2.092  24.723  0.00  0.00    +0.260 A 
ATOM     16  C   UNL     1      -4.717   0.114  25.448  0.00  0.00    +0.218 C 
ATOM     17  C   UNL     1       0.036   1.506  23.466  0.00  0.00    +0.053 A 
ATOM     18  C   UNL     1      -0.687   1.536  22.337  0.00  0.00    +0.016 A 
ENDROOT
BRANCH  17  20
ATOM      1  S   UNL     1       1.531  -0.744  23.753  0.00  0.00    -0.088 S 
ATOM     20  C   UNL     1       1.343   0.930  23.469  0.00  0.00    +0.026 A 
ATOM     22  C   UNL     1       2.560   1.549  23.265  0.00  0.00    +0.024 A 
ATOM     23  C   UNL     1       3.672   0.644  23.341  0.00  0.00    -0.010 A 
ATOM     24  C   UNL     1       3.246  -0.661  23.607  0.00  0.00    +0.020 A 
ATOM     25  C   UNL     1       5.061   0.879  23.193  0.00  0.00    +0.009 A 
ATOM     26  C   UNL     1       4.162  -1.724  23.726  0.00  0.00    +0.015 A 
ATOM     28  C   UNL     1       5.972  -0.174  23.311  0.00  0.00    +0.001 A 
ATOM     29  C   UNL     1       5.525  -1.461  23.575  0.00  0.00    +0.001 A 
ENDBRANCH  17  20
BRANCH  16  19
ATOM     19  C   UNL     1      -4.806  -0.894  24.330  0.00  0.00    +0.124 C 
BRANCH  19  21
ATOM     21  C   UNL     1      -3.604  -1.813  24.383  0.00  0.00    +0.168 C 
BRANCH  21   4
ATOM      4  O   UNL     1      -2.411  -1.042  24.302  0.00  0.00    -0.382 OA
ATOM     27  C   UNL     1      -1.465  -1.441  25.284  0.00  0.00    +0.194 C 
ENDBRANCH  21   4
ENDBRANCH  19  21
ENDBRANCH  16  19
TORSDOF 4
ENDMDL
