MODEL 1
REMARK VINA RESULT:      -2.0      0.000      0.000
REMARK  Name = 75536858
REMARK  7 active torsions:
REMARK  status: ('A' for Active; 'I' for Inactive)
REMARK    1  A    between atoms: S_1  and  N_10
REMARK    2  A    between atoms: S_1  and  C_18
REMARK    3  A    between atoms: O_6  and  C_14
REMARK    4  A    between atoms: O_6  and  C_21
REMARK    5  A    between atoms: C_19  and  C_22
REMARK    6  A    between atoms: C_20  and  C_23
REMARK    7  A    between atoms: C_26  and  C_28
REMARK                            x       y       z     vdW  Elec       q    Type
REMARK                         _______ _______ _______ _____ _____    ______ ____
ROOT
ATOM      5  O   UNL     1      -4.380  -2.093  23.277  0.00  0.00    -0.375 OA
ATOM     10  N   UNL     1      -2.242  -1.284  25.318  0.00  0.00    -0.171 NA
ATOM     13  C   UNL     1      -2.964  -0.087  24.790  0.00  0.00    +0.156 C 
ATOM     14  C   UNL     1      -4.466  -0.269  24.986  0.00  0.00    +0.216 C 
ATOM     15  C   UNL     1      -2.296  -2.475  24.418  0.00  0.00    +0.137 C 
ATOM     16  C   UNL     1      -5.147  -1.047  23.857  0.00  0.00    +0.205 C 
ATOM     17  C   UNL     1      -3.728  -2.949  24.207  0.00  0.00    +0.177 C 
ENDROOT
BRANCH  10   1
ATOM      1  S   UNL     1      -0.700  -0.968  26.002  0.00  0.00    +0.066 S 
ATOM      7  O   UNL     1       0.191  -2.056  25.670  0.00  0.00    -0.153 OA
ATOM      8  O   UNL     1      -0.877  -0.535  27.370  0.00  0.00    -0.153 OA
BRANCH   1  18
ATOM      9  O   UNL     1       0.304   2.510  24.420  0.00  0.00    -0.358 OA
ATOM     11  N   UNL     1       0.408   1.726  23.277  0.00  0.00    -0.081 NA
ATOM     18  C   UNL     1      -0.224   0.435  25.043  0.00  0.00    +0.170 A 
ATOM     19  C   UNL     1      -0.073   1.730  25.465  0.00  0.00    +0.161 A 
ATOM     20  C   UNL     1       0.089   0.492  23.674  0.00  0.00    +0.107 A 
ATOM     22  C   UNL     1      -0.232   2.408  26.759  0.00  0.00    +0.091 C 
ATOM     23  C   UNL     1       0.097  -0.610  22.697  0.00  0.00    +0.071 C 
ENDBRANCH   1  18
ENDBRANCH  10   1
BRANCH  14   6
ATOM      6  O   UNL     1      -5.077   1.017  25.087  0.00  0.00    -0.469 OA
BRANCH   6  21
ATOM     12  N   UNL     1      -4.086   2.845  26.113  0.00  0.00    -0.221 NA
ATOM     21  C   UNL     1      -4.243   2.098  24.997  0.00  0.00    +0.215 A 
ATOM     24  C   UNL     1      -3.616   2.365  23.791  0.00  0.00    +0.068 A 
ATOM     25  C   UNL     1      -2.773   3.469  23.725  0.00  0.00    +0.019 A 
ATOM     26  C   UNL     1      -2.587   4.262  24.852  0.00  0.00    +0.073 A 
ATOM     27  C   UNL     1      -3.260   3.911  26.010  0.00  0.00    +0.127 A 
BRANCH  26  28
ATOM      2  F   UNL     1      -1.946   6.336  25.822  0.00  0.00    -0.166 F 
ATOM      3  F   UNL     1      -0.364   5.143  24.927  0.00  0.00    -0.166 F 
ATOM      4  F   UNL     1      -1.789   6.176  23.659  0.00  0.00    -0.166 F 
ATOM     28  C   UNL     1      -1.693   5.450  24.814  0.00  0.00    +0.419 C 
ENDBRANCH  26  28
ENDBRANCH   6  21
ENDBRANCH  14   6
TORSDOF 5
ENDMDL
MODEL 2
REMARK VINA RESULT:      -1.6      2.335      4.497
REMARK  Name = 75536858
REMARK  7 active torsions:
REMARK  status: ('A' for Active; 'I' for Inactive)
REMARK    1  A    between atoms: S_1  and  N_10
REMARK    2  A    between atoms: S_1  and  C_18
REMARK    3  A    between atoms: O_6  and  C_14
REMARK    4  A    between atoms: O_6  and  C_21
REMARK    5  A    between atoms: C_19  and  C_22
REMARK    6  A    between atoms: C_20  and  C_23
REMARK    7  A    between atoms: C_26  and  C_28
REMARK                            x       y       z     vdW  Elec       q    Type
REMARK                         _______ _______ _______ _____ _____    ______ ____
ROOT
ATOM      5  O   UNL     1       2.084   0.923  23.106  0.00  0.00    -0.375 OA
ATOM     10  N   UNL     1      -0.224  -0.448  24.585  0.00  0.00    -0.171 NA
ATOM     13  C   UNL     1      -0.066   0.969  25.030  0.00  0.00    +0.156 C 
ATOM     14  C   UNL     1      -0.110   1.894  23.816  0.00  0.00    +0.216 C 
ATOM     15  C   UNL     1       1.009  -1.042  23.989  0.00  0.00    +0.137 C 
ATOM     16  C   UNL     1       1.244   2.069  23.124  0.00  0.00    +0.205 C 
ATOM     17  C   UNL     1       1.439  -0.290  22.736  0.00  0.00    +0.177 C 
ENDROOT
BRANCH  10   1
ATOM      1  S   UNL     1      -1.059  -1.472  25.683  0.00  0.00    +0.066 S 
ATOM      7  O   UNL     1      -1.348  -0.727  26.888  0.00  0.00    -0.153 OA
ATOM      8  O   UNL     1      -0.384  -2.748  25.734  0.00  0.00    -0.153 OA
BRANCH   1  18
ATOM      9  O   UNL     1      -4.658  -1.435  24.055  0.00  0.00    -0.358 OA
ATOM     11  N   UNL     1      -4.136  -2.529  23.375  0.00  0.00    -0.081 NA
ATOM     18  C   UNL     1      -2.573  -1.689  24.802  0.00  0.00    +0.170 A 
ATOM     19  C   UNL     1      -3.718  -0.944  24.902  0.00  0.00    +0.161 A 
ATOM     20  C   UNL     1      -2.890  -2.661  23.838  0.00  0.00    +0.107 A 
ATOM     22  C   UNL     1      -4.110   0.223  25.704  0.00  0.00    +0.091 C 
ATOM     23  C   UNL     1      -2.035  -3.743  23.321  0.00  0.00    +0.071 C 
ENDBRANCH   1  18
ENDBRANCH  10   1
BRANCH  14   6
ATOM      6  O   UNL     1      -0.581   3.176  24.230  0.00  0.00    -0.469 OA
BRANCH   6  21
ATOM     12  N   UNL     1      -2.810   2.801  23.713  0.00  0.00    -0.221 NA
ATOM     21  C   UNL     1      -1.896   3.255  24.600  0.00  0.00    +0.215 A 
ATOM     24  C   UNL     1      -2.214   3.784  25.840  0.00  0.00    +0.068 A 
ATOM     25  C   UNL     1      -3.558   3.853  26.192  0.00  0.00    +0.019 A 
ATOM     26  C   UNL     1      -4.527   3.397  25.306  0.00  0.00    +0.073 A 
ATOM     27  C   UNL     1      -4.105   2.885  24.091  0.00  0.00    +0.127 A 
BRANCH  26  28
ATOM      2  F   UNL     1      -6.758   2.770  24.772  0.00  0.00    -0.166 F 
ATOM      3  F   UNL     1      -6.265   2.933  26.884  0.00  0.00    -0.166 F 
ATOM      4  F   UNL     1      -6.481   4.726  25.682  0.00  0.00    -0.166 F 
ATOM     28  C   UNL     1      -5.972   3.457  25.654  0.00  0.00    +0.419 C 
ENDBRANCH  26  28
ENDBRANCH   6  21
ENDBRANCH  14   6
TORSDOF 5
ENDMDL
MODEL 3
REMARK VINA RESULT:      -1.5      2.437      4.606
REMARK  Name = 75536858
REMARK  7 active torsions:
REMARK  status: ('A' for Active; 'I' for Inactive)
REMARK    1  A    between atoms: S_1  and  N_10
REMARK    2  A    between atoms: S_1  and  C_18
REMARK    3  A    between atoms: O_6  and  C_14
REMARK    4  A    between atoms: O_6  and  C_21
REMARK    5  A    between atoms: C_19  and  C_22
REMARK    6  A    between atoms: C_20  and  C_23
REMARK    7  A    between atoms: C_26  and  C_28
REMARK                            x       y       z     vdW  Elec       q    Type
REMARK                         _______ _______ _______ _____ _____    ______ ____
ROOT
ATOM      5  O   UNL     1       2.477   1.205  23.166  0.00  0.00    -0.375 OA
ATOM     10  N   UNL     1      -0.054  -0.334  23.949  0.00  0.00    -0.171 NA
ATOM     13  C   UNL     1       0.112   0.891  24.786  0.00  0.00    +0.156 C 
ATOM     14  C   UNL     1       0.259   2.112  23.882  0.00  0.00    +0.216 C 
ATOM     15  C   UNL     1       1.216  -0.837  23.344  0.00  0.00    +0.137 C 
ATOM     16  C   UNL     1       1.694   2.365  23.414  0.00  0.00    +0.205 C 
ATOM     17  C   UNL     1       1.830   0.193  22.404  0.00  0.00    +0.177 C 
ENDROOT
BRANCH  10   1
ATOM      1  S   UNL     1      -1.063  -1.551  24.621  0.00  0.00    +0.066 S 
ATOM      7  O   UNL     1      -0.673  -1.774  25.995  0.00  0.00    -0.153 OA
ATOM      8  O   UNL     1      -1.161  -2.645  23.682  0.00  0.00    -0.153 OA
BRANCH   1  18
ATOM      9  O   UNL     1      -4.333   0.587  24.040  0.00  0.00    -0.358 OA
ATOM     11  N   UNL     1      -4.645   0.070  25.291  0.00  0.00    -0.081 NA
ATOM     18  C   UNL     1      -2.606  -0.696  24.626  0.00  0.00    +0.170 A 
ATOM     19  C   UNL     1      -3.117   0.124  23.655  0.00  0.00    +0.161 A 
ATOM     20  C   UNL     1      -3.600  -0.693  25.621  0.00  0.00    +0.107 A 
ATOM     22  C   UNL     1      -2.633   0.579  22.344  0.00  0.00    +0.091 C 
ATOM     23  C   UNL     1      -3.598  -1.406  26.910  0.00  0.00    +0.071 C 
ENDBRANCH   1  18
ENDBRANCH  10   1
BRANCH  14   6
ATOM      6  O   UNL     1      -0.201   3.265  24.586  0.00  0.00    -0.469 OA
BRANCH   6  21
ATOM     12  N   UNL     1      -2.381   3.433  23.813  0.00  0.00    -0.221 NA
ATOM     21  C   UNL     1      -1.540   3.318  24.865  0.00  0.00    +0.215 A 
ATOM     24  C   UNL     1      -1.954   3.250  26.186  0.00  0.00    +0.068 A 
ATOM     25  C   UNL     1      -3.319   3.305  26.443  0.00  0.00    +0.019 A 
ATOM     26  C   UNL     1      -4.216   3.425  25.388  0.00  0.00    +0.073 A 
ATOM     27  C   UNL     1      -3.700   3.484  24.103  0.00  0.00    +0.127 A 
BRANCH  26  28
ATOM      2  F   UNL     1      -6.039   2.971  26.845  0.00  0.00    -0.166 F 
ATOM      3  F   UNL     1      -6.191   4.756  25.612  0.00  0.00    -0.166 F 
ATOM      4  F   UNL     1      -6.423   2.796  24.712  0.00  0.00    -0.166 F 
ATOM     28  C   UNL     1      -5.682   3.486  25.631  0.00  0.00    +0.419 C 
ENDBRANCH  26  28
ENDBRANCH   6  21
ENDBRANCH  14   6
TORSDOF 5
ENDMDL
MODEL 4
REMARK VINA RESULT:      -1.5      1.777      4.002
REMARK  Name = 75536858
REMARK  7 active torsions:
REMARK  status: ('A' for Active; 'I' for Inactive)
REMARK    1  A    between atoms: S_1  and  N_10
REMARK    2  A    between atoms: S_1  and  C_18
REMARK    3  A    between atoms: O_6  and  C_14
REMARK    4  A    between atoms: O_6  and  C_21
REMARK    5  A    between atoms: C_19  and  C_22
REMARK    6  A    between atoms: C_20  and  C_23
REMARK    7  A    between atoms: C_26  and  C_28
REMARK                            x       y       z     vdW  Elec       q    Type
REMARK                         _______ _______ _______ _____ _____    ______ ____
ROOT
ATOM      5  O   UNL     1      -1.240  -3.111  25.010  0.00  0.00    -0.375 OA
ATOM     10  N   UNL     1      -3.285  -0.847  24.726  0.00  0.00    -0.171 NA
ATOM     13  C   UNL     1      -2.087  -0.396  25.495  0.00  0.00    +0.156 C 
ATOM     14  C   UNL     1      -0.826  -0.666  24.680  0.00  0.00    +0.216 C 
ATOM     15  C   UNL     1      -3.498  -2.325  24.739  0.00  0.00    +0.137 C 
ATOM     16  C   UNL     1      -0.272  -2.083  24.849  0.00  0.00    +0.205 C 
ATOM     17  C   UNL     1      -2.329  -3.060  24.097  0.00  0.00    +0.177 C 
ENDROOT
BRANCH  10   1
ATOM      1  S   UNL     1      -4.706   0.088  24.968  0.00  0.00    +0.066 S 
ATOM      7  O   UNL     1      -4.882   0.311  26.386  0.00  0.00    -0.153 OA
ATOM      8  O   UNL     1      -5.769  -0.462  24.158  0.00  0.00    -0.153 OA
BRANCH   1  18
ATOM      9  O   UNL     1      -3.221   3.117  22.914  0.00  0.00    -0.358 OA
ATOM     11  N   UNL     1      -3.968   3.841  23.836  0.00  0.00    -0.081 NA
ATOM     18  C   UNL     1      -4.195   1.611  24.238  0.00  0.00    +0.170 A 
ATOM     19  C   UNL     1      -3.365   1.791  23.163  0.00  0.00    +0.161 A 
ATOM     20  C   UNL     1      -4.541   2.920  24.616  0.00  0.00    +0.107 A 
ATOM     22  C   UNL     1      -2.635   0.879  22.273  0.00  0.00    +0.091 C 
ATOM     23  C   UNL     1      -5.417   3.346  25.719  0.00  0.00    +0.071 C 
ENDBRANCH   1  18
ENDBRANCH  10   1
BRANCH  14   6
ATOM      6  O   UNL     1       0.182   0.267  25.068  0.00  0.00    -0.469 OA
BRANCH   6  21
ATOM     12  N   UNL     1       0.216   2.309  23.968  0.00  0.00    -0.221 NA
ATOM     21  C   UNL     1      -0.168   1.590  25.047  0.00  0.00    +0.215 A 
ATOM     24  C   UNL     1      -0.885   2.111  26.112  0.00  0.00    +0.068 A 
ATOM     25  C   UNL     1      -1.230   3.458  26.067  0.00  0.00    +0.019 A 
ATOM     26  C   UNL     1      -0.852   4.230  24.975  0.00  0.00    +0.073 A 
ATOM     27  C   UNL     1      -0.137   3.614  23.961  0.00  0.00    +0.127 A 
BRANCH  26  28
ATOM      2  F   UNL     1      -0.119   6.492  25.029  0.00  0.00    -0.166 F 
ATOM      3  F   UNL     1      -1.790   6.034  23.715  0.00  0.00    -0.166 F 
ATOM      4  F   UNL     1      -2.084   6.078  25.864  0.00  0.00    -0.166 F 
ATOM     28  C   UNL     1      -1.205   5.673  24.898  0.00  0.00    +0.419 C 
ENDBRANCH  26  28
ENDBRANCH   6  21
ENDBRANCH  14   6
TORSDOF 5
ENDMDL
MODEL 5
REMARK VINA RESULT:      -1.5      3.876      6.398
REMARK  Name = 75536858
REMARK  7 active torsions:
REMARK  status: ('A' for Active; 'I' for Inactive)
REMARK    1  A    between atoms: S_1  and  N_10
REMARK    2  A    between atoms: S_1  and  C_18
REMARK    3  A    between atoms: O_6  and  C_14
REMARK    4  A    between atoms: O_6  and  C_21
REMARK    5  A    between atoms: C_19  and  C_22
REMARK    6  A    between atoms: C_20  and  C_23
REMARK    7  A    between atoms: C_26  and  C_28
REMARK                            x       y       z     vdW  Elec       q    Type
REMARK                         _______ _______ _______ _____ _____    ______ ____
ROOT
ATOM      5  O   UNL     1      -0.494  -0.914  25.653  0.00  0.00    -0.375 OA
ATOM     10  N   UNL     1      -2.402   0.775  23.951  0.00  0.00    -0.171 NA
ATOM     13  C   UNL     1      -0.998   0.882  23.452  0.00  0.00    +0.156 C 
ATOM     14  C   UNL     1      -0.444  -0.515  23.184  0.00  0.00    +0.216 C 
ATOM     15  C   UNL     1      -2.512   0.370  25.384  0.00  0.00    +0.137 C 
ATOM     16  C   UNL     1       0.157  -1.189  24.420  0.00  0.00    +0.205 C 
ATOM     17  C   UNL     1      -1.913  -1.011  25.620  0.00  0.00    +0.177 C 
ENDROOT
BRANCH  10   1
ATOM      1  S   UNL     1      -3.446   2.056  23.483  0.00  0.00    +0.066 S 
ATOM      7  O   UNL     1      -4.816   1.612  23.611  0.00  0.00    -0.153 OA
ATOM      8  O   UNL     1      -2.955   2.630  22.251  0.00  0.00    -0.153 OA
BRANCH   1  18
ATOM      9  O   UNL     1      -2.125   4.680  26.124  0.00  0.00    -0.358 OA
ATOM     11  N   UNL     1      -3.403   4.497  26.638  0.00  0.00    -0.081 NA
ATOM     18  C   UNL     1      -3.123   3.202  24.786  0.00  0.00    +0.170 A 
ATOM     19  C   UNL     1      -1.970   3.904  25.021  0.00  0.00    +0.161 A 
ATOM     20  C   UNL     1      -3.980   3.610  25.822  0.00  0.00    +0.107 A 
ATOM     22  C   UNL     1      -0.665   3.978  24.351  0.00  0.00    +0.091 C 
ATOM     23  C   UNL     1      -5.365   3.182  26.079  0.00  0.00    +0.071 C 
ENDBRANCH   1  18
ENDBRANCH  10   1
BRANCH  14   6
ATOM      6  O   UNL     1       0.563  -0.425  22.177  0.00  0.00    -0.469 OA
BRANCH   6  21
ATOM     12  N   UNL     1       2.452  -1.388  23.117  0.00  0.00    -0.221 NA
ATOM     21  C   UNL     1       1.853  -0.285  22.614  0.00  0.00    +0.215 A 
ATOM     24  C   UNL     1       2.464   0.954  22.517  0.00  0.00    +0.068 A 
ATOM     25  C   UNL     1       3.775   1.070  22.967  0.00  0.00    +0.019 A 
ATOM     26  C   UNL     1       4.424  -0.041  23.492  0.00  0.00    +0.073 A 
ATOM     27  C   UNL     1       3.726  -1.236  23.545  0.00  0.00    +0.127 A 
BRANCH  26  28
ATOM      2  F   UNL     1       6.148   1.300  24.433  0.00  0.00    -0.166 F 
ATOM      3  F   UNL     1       6.103  -0.793  25.022  0.00  0.00    -0.166 F 
ATOM      4  F   UNL     1       6.763  -0.244  23.030  0.00  0.00    -0.166 F 
ATOM     28  C   UNL     1       5.826   0.051  23.981  0.00  0.00    +0.419 C 
ENDBRANCH  26  28
ENDBRANCH   6  21
ENDBRANCH  14   6
TORSDOF 5
ENDMDL
MODEL 6
REMARK VINA RESULT:      -1.4      3.877      6.562
REMARK  Name = 75536858
REMARK  7 active torsions:
REMARK  status: ('A' for Active; 'I' for Inactive)
REMARK    1  A    between atoms: S_1  and  N_10
REMARK    2  A    between atoms: S_1  and  C_18
REMARK    3  A    between atoms: O_6  and  C_14
REMARK    4  A    between atoms: O_6  and  C_21
REMARK    5  A    between atoms: C_19  and  C_22
REMARK    6  A    between atoms: C_20  and  C_23
REMARK    7  A    between atoms: C_26  and  C_28
REMARK                            x       y       z     vdW  Elec       q    Type
REMARK                         _______ _______ _______ _____ _____    ______ ____
ROOT
ATOM      5  O   UNL     1      -0.719  -1.757  25.286  0.00  0.00    -0.375 OA
ATOM     10  N   UNL     1      -1.110   1.253  24.869  0.00  0.00    -0.171 NA
ATOM     13  C   UNL     1       0.145   0.778  24.213  0.00  0.00    +0.156 C 
ATOM     14  C   UNL     1      -0.178  -0.378  23.270  0.00  0.00    +0.216 C 
ATOM     15  C   UNL     1      -1.588   0.377  25.980  0.00  0.00    +0.137 C 
ATOM     16  C   UNL     1      -0.214  -1.745  23.957  0.00  0.00    +0.205 C 
ATOM     17  C   UNL     1      -1.922  -1.022  25.479  0.00  0.00    +0.177 C 
ENDROOT
BRANCH  10   1
ATOM      1  S   UNL     1      -1.169   2.937  25.204  0.00  0.00    +0.066 S 
ATOM      7  O   UNL     1      -0.446   3.644  24.171  0.00  0.00    -0.153 OA
ATOM      8  O   UNL     1      -0.873   3.144  26.603  0.00  0.00    -0.153 OA
BRANCH   1  18
ATOM      9  O   UNL     1      -4.935   3.312  24.073  0.00  0.00    -0.358 OA
ATOM     11  N   UNL     1      -5.036   3.907  25.324  0.00  0.00    -0.081 NA
ATOM     18  C   UNL     1      -2.891   3.234  24.961  0.00  0.00    +0.170 A 
ATOM     19  C   UNL     1      -3.653   2.915  23.868  0.00  0.00    +0.161 A 
ATOM     20  C   UNL     1      -3.804   3.848  25.836  0.00  0.00    +0.107 A 
ATOM     22  C   UNL     1      -3.372   2.263  22.582  0.00  0.00    +0.091 C 
ATOM     23  C   UNL     1      -3.547   4.399  27.177  0.00  0.00    +0.071 C 
ENDBRANCH   1  18
ENDBRANCH  10   1
BRANCH  14   6
ATOM      6  O   UNL     1       0.801  -0.414  22.233  0.00  0.00    -0.469 OA
BRANCH   6  21
ATOM     12  N   UNL     1       2.655  -1.351  23.263  0.00  0.00    -0.221 NA
ATOM     21  C   UNL     1       2.108  -0.294  22.621  0.00  0.00    +0.215 A 
ATOM     24  C   UNL     1       2.787   0.880  22.340  0.00  0.00    +0.068 A 
ATOM     25  C   UNL     1       4.115   0.977  22.745  0.00  0.00    +0.019 A 
ATOM     26  C   UNL     1       4.712  -0.088  23.409  0.00  0.00    +0.073 A 
ATOM     27  C   UNL     1       3.946  -1.219  23.642  0.00  0.00    +0.127 A 
BRANCH  26  28
ATOM      2  F   UNL     1       6.406  -0.873  24.882  0.00  0.00    -0.166 F 
ATOM      3  F   UNL     1       7.032  -0.324  22.873  0.00  0.00    -0.166 F 
ATOM      4  F   UNL     1       6.505   1.221  24.302  0.00  0.00    -0.166 F 
ATOM     28  C   UNL     1       6.129  -0.016  23.854  0.00  0.00    +0.419 C 
ENDBRANCH  26  28
ENDBRANCH   6  21
ENDBRANCH  14   6
TORSDOF 5
ENDMDL
MODEL 7
REMARK VINA RESULT:      -1.2      2.933      5.260
REMARK  Name = 75536858
REMARK  7 active torsions:
REMARK  status: ('A' for Active; 'I' for Inactive)
REMARK    1  A    between atoms: S_1  and  N_10
REMARK    2  A    between atoms: S_1  and  C_18
REMARK    3  A    between atoms: O_6  and  C_14
REMARK    4  A    between atoms: O_6  and  C_21
REMARK    5  A    between atoms: C_19  and  C_22
REMARK    6  A    between atoms: C_20  and  C_23
REMARK    7  A    between atoms: C_26  and  C_28
REMARK                            x       y       z     vdW  Elec       q    Type
REMARK                         _______ _______ _______ _____ _____    ______ ____
ROOT
ATOM      5  O   UNL     1      -3.796  -2.852  24.450  0.00  0.00    -0.375 OA
ATOM     10  N   UNL     1      -4.186   0.185  24.573  0.00  0.00    -0.171 NA
ATOM     13  C   UNL     1      -3.112  -0.258  25.511  0.00  0.00    +0.156 C 
ATOM     14  C   UNL     1      -2.068  -1.067  24.746  0.00  0.00    +0.216 C 
ATOM     15  C   UNL     1      -5.164  -0.886  24.215  0.00  0.00    +0.137 C 
ATOM     16  C   UNL     1      -2.416  -2.552  24.610  0.00  0.00    +0.205 C 
ATOM     17  C   UNL     1      -4.482  -2.045  23.500  0.00  0.00    +0.177 C 
ENDROOT
BRANCH  10   1
ATOM      1  S   UNL     1      -4.888   1.711  24.930  0.00  0.00    +0.066 S 
ATOM      7  O   UNL     1      -5.252   1.742  26.329  0.00  0.00    -0.153 OA
ATOM      8  O   UNL     1      -5.847   2.036  23.899  0.00  0.00    -0.153 OA
BRANCH   1  18
ATOM      9  O   UNL     1      -1.656   3.719  23.871  0.00  0.00    -0.358 OA
ATOM     11  N   UNL     1      -1.895   4.343  25.090  0.00  0.00    -0.081 NA
ATOM     18  C   UNL     1      -3.479   2.751  24.713  0.00  0.00    +0.170 A 
ATOM     19  C   UNL     1      -2.606   2.774  23.658  0.00  0.00    +0.161 A 
ATOM     20  C   UNL     1      -2.989   3.749  25.574  0.00  0.00    +0.107 A 
ATOM     22  C   UNL     1      -2.499   2.015  22.405  0.00  0.00    +0.091 C 
ATOM     23  C   UNL     1      -3.531   4.174  26.875  0.00  0.00    +0.071 C 
ENDBRANCH   1  18
ENDBRANCH  10   1
BRANCH  14   6
ATOM      6  O   UNL     1      -0.814  -0.953  25.418  0.00  0.00    -0.469 OA
BRANCH   6  21
ATOM     12  N   UNL     1       1.115  -1.408  24.214  0.00  0.00    -0.221 NA
ATOM     21  C   UNL     1       0.237  -0.488  24.675  0.00  0.00    +0.215 A 
ATOM     24  C   UNL     1       0.344   0.873  24.439  0.00  0.00    +0.068 A 
ATOM     25  C   UNL     1       1.421   1.319  23.680  0.00  0.00    +0.019 A 
ATOM     26  C   UNL     1       2.345   0.404  23.190  0.00  0.00    +0.073 A 
ATOM     27  C   UNL     1       2.149  -0.935  23.482  0.00  0.00    +0.127 A 
BRANCH  26  28
ATOM      2  F   UNL     1       3.761   2.187  22.504  0.00  0.00    -0.166 F 
ATOM      3  F   UNL     1       4.681   0.227  22.702  0.00  0.00    -0.166 F 
ATOM      4  F   UNL     1       3.356   0.637  21.034  0.00  0.00    -0.166 F 
ATOM     28  C   UNL     1       3.507   0.850  22.376  0.00  0.00    +0.419 C 
ENDBRANCH  26  28
ENDBRANCH   6  21
ENDBRANCH  14   6
TORSDOF 5
ENDMDL
MODEL 8
REMARK VINA RESULT:      -1.2      3.713      6.810
REMARK  Name = 75536858
REMARK  7 active torsions:
REMARK  status: ('A' for Active; 'I' for Inactive)
REMARK    1  A    between atoms: S_1  and  N_10
REMARK    2  A    between atoms: S_1  and  C_18
REMARK    3  A    between atoms: O_6  and  C_14
REMARK    4  A    between atoms: O_6  and  C_21
REMARK    5  A    between atoms: C_19  and  C_22
REMARK    6  A    between atoms: C_20  and  C_23
REMARK    7  A    between atoms: C_26  and  C_28
REMARK                            x       y       z     vdW  Elec       q    Type
REMARK                         _______ _______ _______ _____ _____    ______ ____
ROOT
ATOM      5  O   UNL     1       0.159   4.656  25.092  0.00  0.00    -0.375 OA
ATOM     10  N   UNL     1      -2.511   3.377  24.303  0.00  0.00    -0.171 NA
ATOM     13  C   UNL     1      -1.408   2.371  24.290  0.00  0.00    +0.156 C 
ATOM     14  C   UNL     1      -0.700   2.372  25.642  0.00  0.00    +0.216 C 
ATOM     15  C   UNL     1      -2.051   4.790  24.149  0.00  0.00    +0.137 C 
ATOM     16  C   UNL     1       0.403   3.426  25.761  0.00  0.00    +0.205 C 
ATOM     17  C   UNL     1      -1.138   5.204  25.295  0.00  0.00    +0.177 C 
ENDROOT
BRANCH  10   1
ATOM      1  S   UNL     1      -3.891   2.964  23.368  0.00  0.00    +0.066 S 
ATOM      7  O   UNL     1      -3.593   1.782  22.591  0.00  0.00    -0.153 OA
ATOM      8  O   UNL     1      -4.406   4.161  22.742  0.00  0.00    -0.153 OA
BRANCH   1  18
ATOM      9  O   UNL     1      -6.284   1.309  26.039  0.00  0.00    -0.358 OA
ATOM     11  N   UNL     1      -6.430   2.635  26.427  0.00  0.00    -0.081 NA
ATOM     18  C   UNL     1      -5.003   2.500  24.657  0.00  0.00    +0.170 A 
ATOM     19  C   UNL     1      -5.432   1.241  24.985  0.00  0.00    +0.161 A 
ATOM     20  C   UNL     1      -5.656   3.328  25.587  0.00  0.00    +0.107 A 
ATOM     22  C   UNL     1      -5.167  -0.100  24.448  0.00  0.00    +0.091 C 
ATOM     23  C   UNL     1      -5.573   4.793  25.717  0.00  0.00    +0.071 C 
ENDBRANCH   1  18
ENDBRANCH  10   1
BRANCH  14   6
ATOM      6  O   UNL     1      -0.127   1.084  25.863  0.00  0.00    -0.469 OA
BRANCH   6  21
ATOM     12  N   UNL     1      -2.021  -0.224  26.143  0.00  0.00    -0.221 NA
ATOM     21  C   UNL     1      -0.872   0.007  25.468  0.00  0.00    +0.215 A 
ATOM     24  C   UNL     1      -0.420  -0.774  24.417  0.00  0.00    +0.068 A 
ATOM     25  C   UNL     1      -1.196  -1.863  24.034  0.00  0.00    +0.019 A 
ATOM     26  C   UNL     1      -2.383  -2.134  24.705  0.00  0.00    +0.073 A 
ATOM     27  C   UNL     1      -2.747  -1.292  25.743  0.00  0.00    +0.127 A 
BRANCH  26  28
ATOM      2  F   UNL     1      -4.342  -2.919  23.611  0.00  0.00    -0.166 F 
ATOM      3  F   UNL     1      -2.593  -4.209  23.533  0.00  0.00    -0.166 F 
ATOM      4  F   UNL     1      -3.708  -4.007  25.383  0.00  0.00    -0.166 F 
ATOM     28  C   UNL     1      -3.234  -3.290  24.319  0.00  0.00    +0.419 C 
ENDBRANCH  26  28
ENDBRANCH   6  21
ENDBRANCH  14   6
TORSDOF 5
ENDMDL
MODEL 9
REMARK VINA RESULT:      -1.1      2.429      4.411
REMARK  Name = 75536858
REMARK  7 active torsions:
REMARK  status: ('A' for Active; 'I' for Inactive)
REMARK    1  A    between atoms: S_1  and  N_10
REMARK    2  A    between atoms: S_1  and  C_18
REMARK    3  A    between atoms: O_6  and  C_14
REMARK    4  A    between atoms: O_6  and  C_21
REMARK    5  A    between atoms: C_19  and  C_22
REMARK    6  A    between atoms: C_20  and  C_23
REMARK    7  A    between atoms: C_26  and  C_28
REMARK                            x       y       z     vdW  Elec       q    Type
REMARK                         _______ _______ _______ _____ _____    ______ ____
ROOT
ATOM      5  O   UNL     1       2.412   1.228  23.192  0.00  0.00    -0.375 OA
ATOM     10  N   UNL     1      -0.064  -0.410  23.954  0.00  0.00    -0.171 NA
ATOM     13  C   UNL     1       0.091   0.779  24.845  0.00  0.00    +0.156 C 
ATOM     14  C   UNL     1       0.188   2.044  23.996  0.00  0.00    +0.216 C 
ATOM     15  C   UNL     1       1.204  -0.851  23.300  0.00  0.00    +0.137 C 
ATOM     16  C   UNL     1       1.606   2.354  23.511  0.00  0.00    +0.205 C 
ATOM     17  C   UNL     1       1.772   0.236  22.397  0.00  0.00    +0.177 C 
ENDROOT
BRANCH  10   1
ATOM      1  S   UNL     1      -1.027  -1.682  24.588  0.00  0.00    +0.066 S 
ATOM      7  O   UNL     1      -0.562  -2.000  25.920  0.00  0.00    -0.153 OA
ATOM      8  O   UNL     1      -1.170  -2.707  23.579  0.00  0.00    -0.153 OA
BRANCH   1  18
ATOM      9  O   UNL     1      -4.520  -0.090  25.521  0.00  0.00    -0.358 OA
ATOM     11  N   UNL     1      -4.374   0.462  24.255  0.00  0.00    -0.081 NA
ATOM     18  C   UNL     1      -2.573  -0.845  24.739  0.00  0.00    +0.170 A 
ATOM     19  C   UNL     1      -3.441  -0.866  25.798  0.00  0.00    +0.161 A 
ATOM     20  C   UNL     1      -3.204  -0.002  23.807  0.00  0.00    +0.107 A 
ATOM     22  C   UNL     1      -3.437  -1.530  27.108  0.00  0.00    +0.091 C 
ATOM     23  C   UNL     1      -2.730   0.392  22.470  0.00  0.00    +0.071 C 
ENDBRANCH   1  18
ENDBRANCH  10   1
BRANCH  14   6
ATOM      6  O   UNL     1      -0.284   3.150  24.763  0.00  0.00    -0.469 OA
BRANCH   6  21
ATOM     12  N   UNL     1      -2.086   3.100  26.223  0.00  0.00    -0.221 NA
ATOM     21  C   UNL     1      -1.637   3.230  24.954  0.00  0.00    +0.215 A 
ATOM     24  C   UNL     1      -2.459   3.437  23.858  0.00  0.00    +0.068 A 
ATOM     25  C   UNL     1      -3.830   3.514  24.078  0.00  0.00    +0.019 A 
ATOM     26  C   UNL     1      -4.330   3.384  25.368  0.00  0.00    +0.073 A 
ATOM     27  C   UNL     1      -3.424   3.180  26.397  0.00  0.00    +0.127 A 
BRANCH  26  28
ATOM      2  F   UNL     1      -6.262   4.745  25.625  0.00  0.00    -0.166 F 
ATOM      3  F   UNL     1      -6.555   2.788  24.723  0.00  0.00    -0.166 F 
ATOM      4  F   UNL     1      -6.158   2.951  26.850  0.00  0.00    -0.166 F 
ATOM     28  C   UNL     1      -5.790   3.463  25.636  0.00  0.00    +0.419 C 
ENDBRANCH  26  28
ENDBRANCH   6  21
ENDBRANCH  14   6
TORSDOF 5
ENDMDL
MODEL 10
REMARK VINA RESULT:      -1.0      4.026      7.182
REMARK  Name = 75536858
REMARK  7 active torsions:
REMARK  status: ('A' for Active; 'I' for Inactive)
REMARK    1  A    between atoms: S_1  and  N_10
REMARK    2  A    between atoms: S_1  and  C_18
REMARK    3  A    between atoms: O_6  and  C_14
REMARK    4  A    between atoms: O_6  and  C_21
REMARK    5  A    between atoms: C_19  and  C_22
REMARK    6  A    between atoms: C_20  and  C_23
REMARK    7  A    between atoms: C_26  and  C_28
REMARK                            x       y       z     vdW  Elec       q    Type
REMARK                         _______ _______ _______ _____ _____    ______ ____
ROOT
ATOM      5  O   UNL     1       0.550   2.722  25.880  0.00  0.00    -0.375 OA
ATOM     10  N   UNL     1      -2.155   2.604  24.445  0.00  0.00    -0.171 NA
ATOM     13  C   UNL     1      -1.034   2.303  23.506  0.00  0.00    +0.156 C 
ATOM     14  C   UNL     1      -0.189   1.163  24.068  0.00  0.00    +0.216 C 
ATOM     15  C   UNL     1      -1.750   3.393  25.646  0.00  0.00    +0.137 C 
ATOM     16  C   UNL     1       0.894   1.622  25.048  0.00  0.00    +0.205 C 
ATOM     17  C   UNL     1      -0.732   2.636  26.491  0.00  0.00    +0.177 C 
ENDROOT
BRANCH  10   1
ATOM      1  S   UNL     1      -3.614   3.122  23.702  0.00  0.00    +0.066 S 
ATOM      7  O   UNL     1      -3.760   2.443  22.434  0.00  0.00    -0.153 OA
ATOM      8  O   UNL     1      -3.699   4.562  23.795  0.00  0.00    -0.153 OA
BRANCH   1  18
ATOM      9  O   UNL     1      -5.981   0.996  26.044  0.00  0.00    -0.358 OA
ATOM     11  N   UNL     1      -6.469   2.260  26.352  0.00  0.00    -0.081 NA
ATOM     18  C   UNL     1      -4.788   2.433  24.825  0.00  0.00    +0.170 A 
ATOM     19  C   UNL     1      -4.980   1.112  25.134  0.00  0.00    +0.161 A 
ATOM     20  C   UNL     1      -5.741   3.102  25.613  0.00  0.00    +0.107 A 
ATOM     22  C   UNL     1      -4.351  -0.141  24.696  0.00  0.00    +0.091 C 
ATOM     23  C   UNL     1      -5.998   4.549  25.695  0.00  0.00    +0.071 C 
ENDBRANCH   1  18
ENDBRANCH  10   1
BRANCH  14   6
ATOM      6  O   UNL     1       0.437   0.476  22.985  0.00  0.00    -0.469 OA
BRANCH   6  21
ATOM     12  N   UNL     1       2.225  -0.931  23.435  0.00  0.00    -0.221 NA
ATOM     21  C   UNL     1       1.791   0.298  23.075  0.00  0.00    +0.215 A 
ATOM     24  C   UNL     1       2.629   1.365  22.797  0.00  0.00    +0.068 A 
ATOM     25  C   UNL     1       4.001   1.159  22.895  0.00  0.00    +0.019 A 
ATOM     26  C   UNL     1       4.485  -0.091  23.263  0.00  0.00    +0.073 A 
ATOM     27  C   UNL     1       3.564  -1.093  23.520  0.00  0.00    +0.127 A 
BRANCH  26  28
ATOM      2  F   UNL     1       6.238  -1.430  24.152  0.00  0.00    -0.166 F 
ATOM      3  F   UNL     1       6.559  -0.582  22.176  0.00  0.00    -0.166 F 
ATOM      4  F   UNL     1       6.645   0.694  23.928  0.00  0.00    -0.166 F 
ATOM     28  C   UNL     1       5.946  -0.344  23.376  0.00  0.00    +0.419 C 
ENDBRANCH  26  28
ENDBRANCH   6  21
ENDBRANCH  14   6
TORSDOF 5
ENDMDL
