MODEL 1
REMARK VINA RESULT:       2.9      0.000      0.000
REMARK  Name = 11887247
REMARK  5 active torsions:
REMARK  status: ('A' for Active; 'I' for Inactive)
REMARK    1  A    between atoms: N_6  and  C_13
REMARK    2  A    between atoms: N_7  and  C_14
REMARK    3  A    between atoms: C_17  and  C_19
REMARK    4  A    between atoms: C_18  and  C_20
REMARK    5  A    between atoms: C_30  and  C_32
REMARK                            x       y       z     vdW  Elec       q    Type
REMARK                         _______ _______ _______ _____ _____    ______ ____
ROOT
ATOM      1  O   UNL     1      -3.114  -0.346  23.242  0.00  0.00    -0.370 OA
ATOM      2  O   UNL     1      -1.862  -0.764  26.098  0.00  0.00    -0.370 OA
ATOM     11  C   UNL     1      -2.068   0.387  25.256  0.00  0.00    +0.176 C 
ATOM     12  C   UNL     1      -1.833  -0.059  23.825  0.00  0.00    +0.171 C 
ATOM     13  C   UNL     1      -3.527   0.799  25.296  0.00  0.00    +0.168 C 
ATOM     14  C   UNL     1      -1.019  -1.326  23.957  0.00  0.00    +0.130 C 
ATOM     15  C   UNL     1      -4.150  -0.034  24.182  0.00  0.00    +0.190 C 
ATOM     16  C   UNL     1      -1.506  -1.887  25.280  0.00  0.00    +0.185 C 
ENDROOT
BRANCH  13   6
ATOM      6  N   UNL     1      -3.704   2.248  25.160  0.00  0.00    -0.217 N 
ATOM      8  N   UNL     1      -4.834   2.748  24.649  0.00  0.00    -0.043 NA
ATOM      9  N   UNL     1      -3.429   4.392  25.192  0.00  0.00    -0.108 NA
ATOM     10  N   UNL     1      -4.660   4.065  24.671  0.00  0.00    -0.023 NA
ATOM     17  C   UNL     1      -2.854   3.249  25.489  0.00  0.00    +0.182 A 
BRANCH  17  19
ATOM      4  O   UNL     1       0.193   2.658  29.273  0.00  0.00    -0.453 OA
ATOM      5  O   UNL     1       2.121   2.520  27.833  0.00  0.00    -0.453 OA
ATOM     19  C   UNL     1      -1.548   3.060  26.064  0.00  0.00    +0.024 A 
ATOM     21  C   UNL     1      -1.406   2.957  27.452  0.00  0.00    +0.061 A 
ATOM     22  C   UNL     1      -0.420   2.979  25.227  0.00  0.00    +0.015 A 
ATOM     25  C   UNL     1      -0.134   2.777  27.956  0.00  0.00    +0.167 A 
ATOM     26  C   UNL     1       0.856   2.795  25.763  0.00  0.00    +0.050 A 
ATOM     27  C   UNL     1       0.966   2.697  27.135  0.00  0.00    +0.166 A 
ATOM     31  C   UNL     1       1.623   2.496  29.186  0.00  0.00    +0.466 C 
ENDBRANCH  17  19
ENDBRANCH  13   6
BRANCH  14   7
ATOM      3  O   UNL     1       0.596  -0.347  21.794  0.00  0.00    -0.270 OA
ATOM      7  N   UNL     1       0.394  -1.039  23.999  0.00  0.00    -0.304 N 
ATOM     18  C   UNL     1       1.092  -0.566  22.896  0.00  0.00    +0.244 C 
ATOM     33  H   UNL     1       0.890  -1.306  24.842  0.00  0.00    +0.149 HD
BRANCH  18  20
ATOM     20  C   UNL     1       2.547  -0.345  23.095  0.00  0.00    +0.037 A 
ATOM     23  C   UNL     1       3.296  -1.336  23.695  0.00  0.00    +0.013 A 
ATOM     24  C   UNL     1       3.104   0.844  22.672  0.00  0.00    +0.013 A 
ATOM     28  C   UNL     1       4.663  -1.129  23.881  0.00  0.00    +0.004 A 
ATOM     29  C   UNL     1       4.472   1.051  22.857  0.00  0.00    +0.004 A 
ATOM     30  C   UNL     1       5.251   0.065  23.461  0.00  0.00    -0.050 A 
ATOM     32  C   UNL     1       6.712   0.285  23.660  0.00  0.00    +0.044 C 
ENDBRANCH  18  20
ENDBRANCH  14   7
TORSDOF 4
ENDMDL
MODEL 2
REMARK VINA RESULT:       6.7      3.199      5.410
REMARK  Name = 11887247
REMARK  5 active torsions:
REMARK  status: ('A' for Active; 'I' for Inactive)
REMARK    1  A    between atoms: N_6  and  C_13
REMARK    2  A    between atoms: N_7  and  C_14
REMARK    3  A    between atoms: C_17  and  C_19
REMARK    4  A    between atoms: C_18  and  C_20
REMARK    5  A    between atoms: C_30  and  C_32
REMARK                            x       y       z     vdW  Elec       q    Type
REMARK                         _______ _______ _______ _____ _____    ______ ____
ROOT
ATOM      1  O   UNL     1      -3.358   4.901  24.241  0.00  0.00    -0.370 OA
ATOM      2  O   UNL     1      -1.371   2.510  23.762  0.00  0.00    -0.370 OA
ATOM     11  C   UNL     1      -2.573   2.669  24.540  0.00  0.00    +0.176 C 
ATOM     12  C   UNL     1      -2.556   4.078  25.103  0.00  0.00    +0.171 C 
ATOM     13  C   UNL     1      -3.785   2.633  23.630  0.00  0.00    +0.168 C 
ATOM     14  C   UNL     1      -1.105   4.495  25.026  0.00  0.00    +0.130 C 
ATOM     15  C   UNL     1      -3.948   4.091  23.216  0.00  0.00    +0.190 C 
ATOM     16  C   UNL     1      -0.611   3.725  23.816  0.00  0.00    +0.185 C 
ENDROOT
BRANCH  13   6
ATOM      6  N   UNL     1      -4.957   2.038  24.279  0.00  0.00    -0.217 N 
ATOM      8  N   UNL     1      -6.069   2.756  24.461  0.00  0.00    -0.043 NA
ATOM      9  N   UNL     1      -6.334   0.692  25.261  0.00  0.00    -0.108 NA
ATOM     10  N   UNL     1      -6.911   1.926  25.065  0.00  0.00    -0.023 NA
ATOM     17  C   UNL     1      -5.122   0.785  24.765  0.00  0.00    +0.182 A 
BRANCH  17  19
ATOM      4  O   UNL     1      -0.691  -1.018  25.798  0.00  0.00    -0.453 OA
ATOM      5  O   UNL     1      -1.171  -3.109  24.699  0.00  0.00    -0.453 OA
ATOM     19  C   UNL     1      -4.119  -0.248  24.729  0.00  0.00    +0.024 A 
ATOM     21  C   UNL     1      -2.875  -0.032  25.332  0.00  0.00    +0.061 A 
ATOM     22  C   UNL     1      -4.396  -1.469  24.088  0.00  0.00    +0.015 A 
ATOM     25  C   UNL     1      -1.946  -1.050  25.272  0.00  0.00    +0.167 A 
ATOM     26  C   UNL     1      -3.438  -2.485  24.043  0.00  0.00    +0.050 A 
ATOM     27  C   UNL     1      -2.220  -2.244  24.645  0.00  0.00    +0.166 A 
ATOM     31  C   UNL     1      -0.206  -2.326  25.431  0.00  0.00    +0.466 C 
ENDBRANCH  17  19
ENDBRANCH  13   6
BRANCH  14   7
ATOM      3  O   UNL     1       0.492   2.135  25.384  0.00  0.00    -0.270 OA
ATOM      7  N   UNL     1      -0.387   4.112  26.218  0.00  0.00    -0.304 N 
ATOM     18  C   UNL     1       0.361   2.946  26.296  0.00  0.00    +0.244 C 
ATOM     33  H   UNL     1      -0.544   4.676  27.047  0.00  0.00    +0.149 HD
BRANCH  18  20
ATOM     20  C   UNL     1       1.018   2.682  27.603  0.00  0.00    +0.037 A 
ATOM     23  C   UNL     1       0.260   2.179  28.639  0.00  0.00    +0.013 A 
ATOM     24  C   UNL     1       2.365   2.947  27.736  0.00  0.00    +0.013 A 
ATOM     28  C   UNL     1       0.877   1.930  29.866  0.00  0.00    +0.004 A 
ATOM     29  C   UNL     1       2.982   2.697  28.962  0.00  0.00    +0.004 A 
ATOM     30  C   UNL     1       2.238   2.189  30.027  0.00  0.00    -0.050 A 
ATOM     32  C   UNL     1       2.897   1.923  31.338  0.00  0.00    +0.044 C 
ENDBRANCH  18  20
ENDBRANCH  14   7
TORSDOF 4
ENDMDL
