MODEL 1
REMARK VINA RESULT:      -6.1      0.000      0.000
REMARK  Name = 75537093
REMARK  4 active torsions:
REMARK  status: ('A' for Active; 'I' for Inactive)
REMARK    1  A    between atoms: N_5  and  C_14
REMARK    2  A    between atoms: N_6  and  C_15
REMARK    3  A    between atoms: C_14  and  C_16
REMARK    4  A    between atoms: C_15  and  C_17
REMARK                            x       y       z     vdW  Elec       q    Type
REMARK                         _______ _______ _______ _____ _____    ______ ____
ROOT
ATOM      3  O   UNL     1      -1.051 -10.251  15.250  0.00  0.00    -0.252 OA
ATOM      4  N   UNL     1      -2.302 -10.424  13.269  0.00  0.00    -0.278 N 
ATOM      5  N   UNL     1      -3.220  -9.811  10.683  0.00  0.00    -0.295 NA
ATOM      6  N   UNL     1      -3.375 -10.659  15.229  0.00  0.00    -0.279 N 
ATOM      8  C   UNL     1      -3.656 -10.781  12.902  0.00  0.00    +0.109 C 
ATOM      9  C   UNL     1      -4.174  -9.848  11.809  0.00  0.00    +0.109 C 
ATOM     10  C   UNL     1      -4.421 -10.711  14.222  0.00  0.00    +0.133 C 
ATOM     11  C   UNL     1      -1.316 -10.217  12.230  0.00  0.00    +0.125 C 
ATOM     12  C   UNL     1      -1.897  -9.327  11.128  0.00  0.00    +0.104 C 
ATOM     13  C   UNL     1      -2.107 -10.426  14.657  0.00  0.00    +0.305 C 
ENDROOT
BRANCH   5  14
ATOM     14  C   UNL     1      -3.734  -8.967   9.605  0.00  0.00    +0.122 C 
BRANCH  14  16
ATOM      1  F   UNL     1      -5.919  -7.209  10.107  0.00  0.00    -0.204 F 
ATOM      7  N   UNL     1      -7.806  -9.925   8.621  0.00  0.00    -0.260 NA
ATOM     16  C   UNL     1      -5.159  -9.300   9.262  0.00  0.00    +0.005 A 
ATOM     18  C   UNL     1      -6.175  -8.392   9.536  0.00  0.00    +0.146 A 
ATOM     19  C   UNL     1      -5.463 -10.519   8.667  0.00  0.00    +0.027 A 
ATOM     24  C   UNL     1      -7.471  -8.750   9.200  0.00  0.00    +0.149 A 
ATOM     25  C   UNL     1      -6.791 -10.781   8.370  0.00  0.00    +0.111 A 
ENDBRANCH  14  16
ENDBRANCH   5  14
BRANCH   6  15
ATOM     15  C   UNL     1      -3.671 -10.692  16.644  0.00  0.00    +0.144 C 
BRANCH  15  17
ATOM      2  F   UNL     1      -8.999  -9.227  17.721  0.00  0.00    -0.205 F 
ATOM     17  C   UNL     1      -5.091 -10.301  16.931  0.00  0.00    -0.030 A 
ATOM     20  C   UNL     1      -5.828  -9.600  15.977  0.00  0.00    +0.008 A 
ATOM     21  C   UNL     1      -5.675 -10.639  18.152  0.00  0.00    +0.008 A 
ATOM     22  C   UNL     1      -7.148  -9.236  16.244  0.00  0.00    +0.038 A 
ATOM     23  C   UNL     1      -6.994 -10.277  18.420  0.00  0.00    +0.038 A 
ATOM     26  C   UNL     1      -7.732  -9.574  17.465  0.00  0.00    +0.123 A 
ENDBRANCH  15  17
ENDBRANCH   6  15
TORSDOF 4
ENDMDL
MODEL 2
REMARK VINA RESULT:      -4.1      1.321      2.174
REMARK  Name = 75537093
REMARK  4 active torsions:
REMARK  status: ('A' for Active; 'I' for Inactive)
REMARK    1  A    between atoms: N_5  and  C_14
REMARK    2  A    between atoms: N_6  and  C_15
REMARK    3  A    between atoms: C_14  and  C_16
REMARK    4  A    between atoms: C_15  and  C_17
REMARK                            x       y       z     vdW  Elec       q    Type
REMARK                         _______ _______ _______ _____ _____    ______ ____
ROOT
ATOM      3  O   UNL     1      -2.605 -10.772  17.530  0.00  0.00    -0.252 OA
ATOM      4  N   UNL     1      -3.060 -10.714  15.226  0.00  0.00    -0.278 N 
ATOM      5  N   UNL     1      -2.833  -9.970  12.524  0.00  0.00    -0.295 NA
ATOM      6  N   UNL     1      -4.794 -10.676  16.654  0.00  0.00    -0.279 N 
ATOM      8  C   UNL     1      -4.232 -10.781  14.378  0.00  0.00    +0.109 C 
ATOM      9  C   UNL     1      -4.115  -9.780  13.229  0.00  0.00    +0.109 C 
ATOM     10  C   UNL     1      -5.392 -10.523  15.339  0.00  0.00    +0.133 C 
ATOM     11  C   UNL     1      -1.746 -10.742  14.622  0.00  0.00    +0.125 C 
ATOM     12  C   UNL     1      -1.692  -9.770  13.441  0.00  0.00    +0.104 C 
ATOM     13  C   UNL     1      -3.387 -10.730  16.589  0.00  0.00    +0.305 C 
ENDROOT
BRANCH   5  14
ATOM     14  C   UNL     1      -2.736  -9.057  11.385  0.00  0.00    +0.122 C 
BRANCH  14  16
ATOM      1  F   UNL     1      -4.846  -7.233  10.802  0.00  0.00    -0.204 F 
ATOM      7  N   UNL     1      -5.777  -9.829   8.449  0.00  0.00    -0.260 NA
ATOM     16  C   UNL     1      -3.801  -9.325  10.359  0.00  0.00    +0.005 A 
ATOM     18  C   UNL     1      -4.801  -8.388  10.127  0.00  0.00    +0.146 A 
ATOM     19  C   UNL     1      -3.786 -10.513   9.637  0.00  0.00    +0.027 A 
ATOM     24  C   UNL     1      -5.758  -8.685   9.170  0.00  0.00    +0.149 A 
ATOM     25  C   UNL     1      -4.789 -10.715   8.702  0.00  0.00    +0.111 A 
ENDBRANCH  14  16
ENDBRANCH   5  14
BRANCH   6  15
ATOM     15  C   UNL     1      -5.582 -10.617  17.866  0.00  0.00    +0.144 C 
BRANCH  15  17
ATOM      2  F   UNL     1     -10.719  -8.507  16.941  0.00  0.00    -0.205 F 
ATOM     17  C   UNL     1      -6.951 -10.055  17.619  0.00  0.00    -0.030 A 
ATOM     20  C   UNL     1      -8.041 -10.527  18.351  0.00  0.00    +0.008 A 
ATOM     21  C   UNL     1      -7.135  -9.060  16.658  0.00  0.00    +0.008 A 
ATOM     22  C   UNL     1      -9.314 -10.004  18.122  0.00  0.00    +0.038 A 
ATOM     23  C   UNL     1      -8.407  -8.537  16.429  0.00  0.00    +0.038 A 
ATOM     26  C   UNL     1      -9.498  -9.009  17.161  0.00  0.00    +0.123 A 
ENDBRANCH  15  17
ENDBRANCH   6  15
TORSDOF 4
ENDMDL
