MODEL 1
REMARK VINA RESULT:      -1.7      0.000      0.000
REMARK  Name = 71693208
REMARK  18 active torsions:
REMARK  status: ('A' for Active; 'I' for Inactive)
REMARK    1  A    between atoms: O_2  and  C_32
REMARK    2  A    between atoms: O_4  and  C_35
REMARK    3  A    between atoms: O_4  and  C_36
REMARK    4  A    between atoms: N_6  and  C_16
REMARK    5  A    between atoms: C_9  and  C_13
REMARK    6  A    between atoms: C_10  and  C_16
REMARK    7  A    between atoms: C_12  and  C_17
REMARK    8  A    between atoms: C_13  and  C_18
REMARK    9  A    between atoms: C_13  and  C_19
REMARK   10  A    between atoms: C_14  and  C_20
REMARK   11  A    between atoms: C_17  and  C_21
REMARK   12  A    between atoms: C_22  and  C_24
REMARK   13  A    between atoms: C_23  and  C_24
REMARK   14  A    between atoms: C_23  and  C_27
REMARK   15  A    between atoms: C_23  and  C_28
REMARK   16  A    between atoms: C_23  and  C_29
REMARK   17  A    between atoms: C_27  and  C_32
REMARK   18  A    between atoms: C_33  and  C_35
REMARK                            x       y       z     vdW  Elec       q    Type
REMARK                         _______ _______ _______ _____ _____    ______ ____
ROOT
ATOM      9  C   UNL     1      -4.227   3.141  25.262  0.00  0.00    +0.000 C 
ATOM     10  C   UNL     1      -3.883   3.700  23.859  0.00  0.00    +0.032 C 
ATOM     11  C   UNL     1      -3.631   4.038  26.357  0.00  0.00    +0.012 C 
ATOM     12  C   UNL     1      -2.099   4.157  26.242  0.00  0.00    +0.022 C 
ATOM     14  C   UNL     1      -1.662   4.445  24.819  0.00  0.00    -0.073 C 
ATOM     15  C   UNL     1      -2.478   4.247  23.768  0.00  0.00    -0.022 C 
ATOM     20  C   UNL     1      -0.281   5.008  24.636  0.00  0.00    +0.039 C 
ENDROOT
BRANCH   9  13
ATOM     13  C   UNL     1      -5.740   3.010  25.466  0.00  0.00    -0.013 C 
ATOM     18  C   UNL     1      -6.042   1.985  26.554  0.00  0.00    +0.007 C 
ATOM     19  C   UNL     1      -6.349   4.364  25.813  0.00  0.00    +0.007 C 
ENDBRANCH   9  13
BRANCH  10  16
ATOM     16  C   UNL     1      -4.088   2.636  22.774  0.00  0.00    +0.112 C 
BRANCH  16   6
ATOM      1  O   UNL     1      -4.950   0.141  23.918  0.00  0.00    -0.276 OA
ATOM      6  N   UNL     1      -3.279   1.486  23.030  0.00  0.00    -0.315 N 
ATOM     22  C   UNL     1      -3.779   0.313  23.589  0.00  0.00    +0.214 C 
ATOM     37  H   UNL     1      -2.295   1.534  22.782  0.00  0.00    +0.149 HD
BRANCH  22  24
ATOM     24  C   UNL     1      -2.730  -0.775  23.763  0.00  0.00    +0.102 C 
BRANCH  24  23
ATOM     23  C   UNL     1      -3.116  -1.896  24.762  0.00  0.00    -0.017 C 
ATOM     28  C   UNL     1      -4.204  -2.768  24.101  0.00  0.00    +0.012 C 
ATOM     29  C   UNL     1      -3.726  -1.288  26.044  0.00  0.00    +0.012 C 
BRANCH  23  27
ATOM     27  C   UNL     1      -1.910  -2.772  25.177  0.00  0.00    +0.127 C 
BRANCH  27  32
ATOM      3  O   UNL     1       0.449  -2.271  25.396  0.00  0.00    -0.251 OA
ATOM     32  C   UNL     1      -0.711  -2.004  25.686  0.00  0.00    +0.305 C 
BRANCH  32   2
ATOM      2  O   UNL     1      -1.050  -0.984  26.513  0.00  0.00    -0.481 OA
ATOM     39  H   UNL     1      -0.286  -0.673  27.044  0.00  0.00    +0.295 HD
ENDBRANCH  32   2
ENDBRANCH  27  32
ENDBRANCH  23  27
ENDBRANCH  24  23
ENDBRANCH  22  24
ENDBRANCH  16   6
ENDBRANCH  10  16
BRANCH  12  17
ATOM     17  C   UNL     1      -1.404   2.904  26.786  0.00  0.00    +0.082 C 
BRANCH  17  21
ATOM      7  N   UNL     1       0.715   2.460  25.534  0.00  0.00    -0.342 N 
ATOM      8  N   UNL     1      -1.068   1.314  24.862  0.00  0.00    -0.232 NA
ATOM     21  C   UNL     1      -0.616   2.206  25.716  0.00  0.00    +0.109 A 
ATOM     25  C   UNL     1       1.152   1.679  24.494  0.00  0.00    +0.067 A 
ATOM     26  C   UNL     1       0.021   0.974  24.092  0.00  0.00    +0.089 A 
ATOM     30  C   UNL     1       2.400   1.534  23.888  0.00  0.00    +0.042 A 
ATOM     31  C   UNL     1       0.123   0.066  23.025  0.00  0.00    +0.030 A 
ATOM     33  C   UNL     1       2.484   0.626  22.828  0.00  0.00    +0.061 A 
ATOM     34  C   UNL     1       1.367  -0.096  22.402  0.00  0.00    +0.017 A 
ATOM     38  H   UNL     1       1.279   3.108  26.067  0.00  0.00    +0.167 HD
BRANCH  33  35
ATOM      5  O   UNL     1       3.893   0.295  20.934  0.00  0.00    -0.245 OA
ATOM     35  C   UNL     1       3.761   0.432  22.156  0.00  0.00    +0.339 C 
BRANCH  35   4
ATOM      4  O   UNL     1       4.799   0.421  23.046  0.00  0.00    -0.464 OA
ATOM     36  C   UNL     1       5.008  -0.792  23.779  0.00  0.00    +0.280 C 
ENDBRANCH  35   4
ENDBRANCH  33  35
ENDBRANCH  17  21
ENDBRANCH  12  17
TORSDOF 12
ENDMDL
MODEL 2
REMARK VINA RESULT:       2.0      1.745      5.534
REMARK  Name = 71693208
REMARK  18 active torsions:
REMARK  status: ('A' for Active; 'I' for Inactive)
REMARK    1  A    between atoms: O_2  and  C_32
REMARK    2  A    between atoms: O_4  and  C_35
REMARK    3  A    between atoms: O_4  and  C_36
REMARK    4  A    between atoms: N_6  and  C_16
REMARK    5  A    between atoms: C_9  and  C_13
REMARK    6  A    between atoms: C_10  and  C_16
REMARK    7  A    between atoms: C_12  and  C_17
REMARK    8  A    between atoms: C_13  and  C_18
REMARK    9  A    between atoms: C_13  and  C_19
REMARK   10  A    between atoms: C_14  and  C_20
REMARK   11  A    between atoms: C_17  and  C_21
REMARK   12  A    between atoms: C_22  and  C_24
REMARK   13  A    between atoms: C_23  and  C_24
REMARK   14  A    between atoms: C_23  and  C_27
REMARK   15  A    between atoms: C_23  and  C_28
REMARK   16  A    between atoms: C_23  and  C_29
REMARK   17  A    between atoms: C_27  and  C_32
REMARK   18  A    between atoms: C_33  and  C_35
REMARK                            x       y       z     vdW  Elec       q    Type
REMARK                         _______ _______ _______ _____ _____    ______ ____
ROOT
ATOM      9  C   UNL     1      -2.890   2.781  23.845  0.00  0.00    +0.000 C 
ATOM     10  C   UNL     1      -1.644   3.157  24.684  0.00  0.00    +0.032 C 
ATOM     11  C   UNL     1      -3.969   3.867  23.972  0.00  0.00    +0.012 C 
ATOM     12  C   UNL     1      -4.411   4.081  25.431  0.00  0.00    +0.022 C 
ATOM     14  C   UNL     1      -3.225   4.193  26.368  0.00  0.00    -0.073 C 
ATOM     15  C   UNL     1      -1.993   3.787  26.012  0.00  0.00    -0.022 C 
ATOM     20  C   UNL     1      -3.478   4.824  27.709  0.00  0.00    +0.039 C 
ENDROOT
BRANCH   9  13
ATOM     13  C   UNL     1      -2.538   2.570  22.368  0.00  0.00    -0.013 C 
ATOM     18  C   UNL     1      -2.433   1.081  22.055  0.00  0.00    +0.007 C 
ATOM     19  C   UNL     1      -3.575   3.240  21.473  0.00  0.00    +0.007 C 
ENDBRANCH   9  13
BRANCH  10  16
ATOM     16  C   UNL     1      -0.745   1.937  24.918  0.00  0.00    +0.112 C 
BRANCH  16   6
ATOM      1  O   UNL     1       0.663   0.219  23.090  0.00  0.00    -0.276 OA
ATOM      6  N   UNL     1       0.557   2.153  24.371  0.00  0.00    -0.315 N 
ATOM     22  C   UNL     1       1.168   1.266  23.488  0.00  0.00    +0.214 C 
ATOM     37  H   UNL     1       1.049   3.000  24.639  0.00  0.00    +0.149 HD
BRANCH  22  24
ATOM     24  C   UNL     1       2.551   1.710  23.037  0.00  0.00    +0.102 C 
BRANCH  24  23
ATOM     23  C   UNL     1       3.566   0.559  22.822  0.00  0.00    -0.017 C 
ATOM     28  C   UNL     1       3.686   0.308  21.304  0.00  0.00    +0.012 C 
ATOM     29  C   UNL     1       3.045  -0.745  23.466  0.00  0.00    +0.012 C 
BRANCH  23  27
ATOM     27  C   UNL     1       4.958   0.865  23.423  0.00  0.00    +0.127 C 
BRANCH  27  32
ATOM      3  O   UNL     1       6.749  -0.658  22.843  0.00  0.00    -0.251 OA
ATOM     32  C   UNL     1       5.849  -0.343  23.611  0.00  0.00    +0.305 C 
BRANCH  32   2
ATOM      2  O   UNL     1       5.543  -1.057  24.723  0.00  0.00    -0.481 OA
ATOM     39  H   UNL     1       5.982  -1.934  24.728  0.00  0.00    +0.295 HD
ENDBRANCH  32   2
ENDBRANCH  27  32
ENDBRANCH  23  27
ENDBRANCH  24  23
ENDBRANCH  22  24
ENDBRANCH  16   6
ENDBRANCH  10  16
BRANCH  12  17
ATOM     17  C   UNL     1      -5.367   2.973  25.888  0.00  0.00    +0.082 C 
BRANCH  17  21
ATOM      7  N   UNL     1      -3.687   1.128  25.705  0.00  0.00    -0.342 N 
ATOM      8  N   UNL     1      -5.613   0.797  24.643  0.00  0.00    -0.232 NA
ATOM     21  C   UNL     1      -4.922   1.626  25.394  0.00  0.00    +0.109 A 
ATOM     25  C   UNL     1      -3.574  -0.106  25.116  0.00  0.00    +0.067 A 
ATOM     26  C   UNL     1      -4.787  -0.289  24.459  0.00  0.00    +0.089 A 
ATOM     30  C   UNL     1      -2.545  -1.048  25.100  0.00  0.00    +0.042 A 
ATOM     31  C   UNL     1      -5.005  -1.477  23.741  0.00  0.00    +0.030 A 
ATOM     33  C   UNL     1      -2.778  -2.224  24.381  0.00  0.00    +0.061 A 
ATOM     34  C   UNL     1      -3.986  -2.437  23.712  0.00  0.00    +0.017 A 
ATOM     38  H   UNL     1      -2.981   1.585  26.265  0.00  0.00    +0.167 HD
BRANCH  33  35
ATOM      5  O   UNL     1      -1.623  -4.074  23.419  0.00  0.00    -0.245 OA
ATOM     35  C   UNL     1      -1.741  -3.244  24.329  0.00  0.00    +0.339 C 
BRANCH  35   4
ATOM      4  O   UNL     1      -0.911  -3.172  25.414  0.00  0.00    -0.464 OA
ATOM     36  C   UNL     1       0.182  -2.251  25.329  0.00  0.00    +0.280 C 
ENDBRANCH  35   4
ENDBRANCH  33  35
ENDBRANCH  17  21
ENDBRANCH  12  17
TORSDOF 12
ENDMDL
