MODEL 1
REMARK VINA RESULT:      -6.6      0.000      0.000
REMARK  Name = 11943400
REMARK  4 active torsions:
REMARK  status: ('A' for Active; 'I' for Inactive)
REMARK    1  A    between atoms: N_4  and  C_12
REMARK    2  A    between atoms: C_6  and  C_12
REMARK    3  A    between atoms: C_8  and  C_13
REMARK    4  A    between atoms: C_14  and  C_16
REMARK                            x       y       z     vdW  Elec       q    Type
REMARK                         _______ _______ _______ _____ _____    ______ ____
ROOT
ATOM      3  N   UNL     1      -2.146  -1.786  23.774  0.00  0.00    -0.297 NA
ATOM      5  C   UNL     1      -3.419  -1.063  25.926  0.00  0.00    +0.008 C 
ATOM      6  C   UNL     1      -1.226  -1.062  24.689  0.00  0.00    +0.074 C 
ATOM      7  C   UNL     1      -1.993  -0.476  25.896  0.00  0.00    +0.025 C 
ATOM      8  C   UNL     1      -4.177  -0.612  24.658  0.00  0.00    +0.081 C 
ATOM      9  C   UNL     1      -3.287  -2.595  25.846  0.00  0.00    +0.020 C 
ATOM     10  C   UNL     1      -3.305  -0.926  23.423  0.00  0.00    +0.101 C 
ATOM     11  C   UNL     1      -2.658  -2.979  24.493  0.00  0.00    +0.085 C 
ENDROOT
BRANCH   8  13
ATOM     13  C   UNL     1      -4.543   0.813  24.711  0.00  0.00    -0.101 C 
ATOM     15  C   UNL     1      -4.841   1.975  24.755  0.00  0.00    +0.004 C 
ENDBRANCH   8  13
BRANCH   6  12
ATOM     12  C   UNL     1      -0.405   0.006  23.965  0.00  0.00    +0.123 C 
BRANCH  12   4
ATOM      1  O   UNL     1       0.772   2.134  25.491  0.00  0.00    -0.267 OA
ATOM      4  N   UNL     1      -0.993   1.330  24.227  0.00  0.00    -0.307 N 
ATOM     14  C   UNL     1      -0.334   2.272  24.975  0.00  0.00    +0.279 C 
ATOM     20  H   UNL     1      -1.912   1.534  23.844  0.00  0.00    +0.149 HD
BRANCH  14  16
ATOM      2  O   UNL     1      -2.188   3.456  25.890  0.00  0.00    -0.458 OA
ATOM     16  C   UNL     1      -1.072   3.546  25.170  0.00  0.00    +0.189 A 
ATOM     17  C   UNL     1      -0.782   4.772  24.731  0.00  0.00    +0.054 A 
ATOM     18  C   UNL     1      -1.839   5.575  25.225  0.00  0.00    +0.042 A 
ATOM     19  C   UNL     1      -2.668   4.727  25.923  0.00  0.00    +0.196 A 
ENDBRANCH  14  16
ENDBRANCH  12   4
ENDBRANCH   6  12
TORSDOF 4
ENDMDL
MODEL 2
REMARK VINA RESULT:      -6.6      3.312      5.294
REMARK  Name = 11943400
REMARK  4 active torsions:
REMARK  status: ('A' for Active; 'I' for Inactive)
REMARK    1  A    between atoms: N_4  and  C_12
REMARK    2  A    between atoms: C_6  and  C_12
REMARK    3  A    between atoms: C_8  and  C_13
REMARK    4  A    between atoms: C_14  and  C_16
REMARK                            x       y       z     vdW  Elec       q    Type
REMARK                         _______ _______ _______ _____ _____    ______ ____
ROOT
ATOM      3  N   UNL     1      -0.744   1.087  25.136  0.00  0.00    -0.297 NA
ATOM      5  C   UNL     1      -3.132   1.757  24.347  0.00  0.00    +0.008 C 
ATOM      6  C   UNL     1      -0.749   1.312  23.666  0.00  0.00    +0.074 C 
ATOM      7  C   UNL     1      -2.186   1.546  23.147  0.00  0.00    +0.025 C 
ATOM      8  C   UNL     1      -3.171   0.465  25.192  0.00  0.00    +0.081 C 
ATOM      9  C   UNL     1      -2.511   2.852  25.234  0.00  0.00    +0.020 C 
ATOM     10  C   UNL     1      -1.722   0.030  25.498  0.00  0.00    +0.101 C 
ATOM     11  C   UNL     1      -1.166   2.350  25.791  0.00  0.00    +0.085 C 
ENDROOT
BRANCH   8  13
ATOM     13  C   UNL     1      -3.927  -0.608  24.524  0.00  0.00    -0.101 C 
ATOM     15  C   UNL     1      -4.542  -1.483  23.980  0.00  0.00    +0.004 C 
ENDBRANCH   8  13
BRANCH   6  12
ATOM     12  C   UNL     1      -0.045   0.189  22.903  0.00  0.00    +0.123 C 
BRANCH  12   4
ATOM      1  O   UNL     1       2.246  -0.292  21.240  0.00  0.00    -0.267 OA
ATOM      4  N   UNL     1       1.359   0.112  23.341  0.00  0.00    -0.307 N 
ATOM     14  C   UNL     1       2.375  -0.124  22.450  0.00  0.00    +0.279 C 
ATOM     20  H   UNL     1       1.563   0.232  24.328  0.00  0.00    +0.149 HD
BRANCH  14  16
ATOM      2  O   UNL     1       4.011  -1.331  23.694  0.00  0.00    -0.458 OA
ATOM     16  C   UNL     1       3.731  -0.199  23.052  0.00  0.00    +0.189 A 
ATOM     17  C   UNL     1       4.715   0.703  23.045  0.00  0.00    +0.054 A 
ATOM     18  C   UNL     1       5.759   0.080  23.770  0.00  0.00    +0.042 A 
ATOM     19  C   UNL     1       5.280  -1.154  24.144  0.00  0.00    +0.196 A 
ENDBRANCH  14  16
ENDBRANCH  12   4
ENDBRANCH   6  12
TORSDOF 4
ENDMDL
MODEL 3
REMARK VINA RESULT:      -6.2      2.868      4.352
REMARK  Name = 11943400
REMARK  4 active torsions:
REMARK  status: ('A' for Active; 'I' for Inactive)
REMARK    1  A    between atoms: N_4  and  C_12
REMARK    2  A    between atoms: C_6  and  C_12
REMARK    3  A    between atoms: C_8  and  C_13
REMARK    4  A    between atoms: C_14  and  C_16
REMARK                            x       y       z     vdW  Elec       q    Type
REMARK                         _______ _______ _______ _____ _____    ______ ____
ROOT
ATOM      3  N   UNL     1      -2.253  -1.341  23.645  0.00  0.00    -0.297 NA
ATOM      5  C   UNL     1      -3.185  -0.646  25.974  0.00  0.00    +0.008 C 
ATOM      6  C   UNL     1      -1.216  -0.594  24.404  0.00  0.00    +0.074 C 
ATOM      7  C   UNL     1      -1.796  -0.025  25.719  0.00  0.00    +0.025 C 
ATOM      8  C   UNL     1      -4.144  -0.215  24.843  0.00  0.00    +0.081 C 
ATOM      9  C   UNL     1      -3.030  -2.175  25.869  0.00  0.00    +0.020 C 
ATOM     10  C   UNL     1      -3.473  -0.510  23.485  0.00  0.00    +0.101 C 
ATOM     11  C   UNL     1      -2.616  -2.545  24.433  0.00  0.00    +0.085 C 
ENDROOT
BRANCH   8  13
ATOM     13  C   UNL     1      -4.532   1.201  24.958  0.00  0.00    -0.101 C 
ATOM     15  C   UNL     1      -4.848   2.355  25.052  0.00  0.00    +0.004 C 
ENDBRANCH   8  13
BRANCH   6  12
ATOM     12  C   UNL     1      -0.547   0.493  23.561  0.00  0.00    +0.123 C 
BRANCH  12   4
ATOM      1  O   UNL     1       1.365  -0.316  21.578  0.00  0.00    -0.267 OA
ATOM      4  N   UNL     1       0.913   0.406  23.731  0.00  0.00    -0.307 N 
ATOM     14  C   UNL     1       1.731   0.005  22.706  0.00  0.00    +0.279 C 
ATOM     20  H   UNL     1       1.309   0.646  24.635  0.00  0.00    +0.149 HD
BRANCH  14  16
ATOM      2  O   UNL     1       3.588  -1.194  23.598  0.00  0.00    -0.458 OA
ATOM     16  C   UNL     1       3.176  -0.056  23.044  0.00  0.00    +0.189 A 
ATOM     17  C   UNL     1       4.128   0.864  22.874  0.00  0.00    +0.054 A 
ATOM     18  C   UNL     1       5.298   0.248  23.380  0.00  0.00    +0.042 A 
ATOM     19  C   UNL     1       4.916  -1.002  23.808  0.00  0.00    +0.196 A 
ENDBRANCH  14  16
ENDBRANCH  12   4
ENDBRANCH   6  12
TORSDOF 4
ENDMDL
MODEL 4
REMARK VINA RESULT:      -6.1      2.092      5.471
REMARK  Name = 11943400
REMARK  4 active torsions:
REMARK  status: ('A' for Active; 'I' for Inactive)
REMARK    1  A    between atoms: N_4  and  C_12
REMARK    2  A    between atoms: C_6  and  C_12
REMARK    3  A    between atoms: C_8  and  C_13
REMARK    4  A    between atoms: C_14  and  C_16
REMARK                            x       y       z     vdW  Elec       q    Type
REMARK                         _______ _______ _______ _____ _____    ______ ____
ROOT
ATOM      3  N   UNL     1      -1.607   4.044  25.940  0.00  0.00    -0.297 NA
ATOM      5  C   UNL     1      -3.316   3.847  23.986  0.00  0.00    +0.008 C 
ATOM      6  C   UNL     1      -1.169   2.991  24.986  0.00  0.00    +0.074 C 
ATOM      7  C   UNL     1      -2.248   2.737  23.908  0.00  0.00    +0.025 C 
ATOM      8  C   UNL     1      -4.028   3.766  25.354  0.00  0.00    +0.081 C 
ATOM      9  C   UNL     1      -2.578   5.198  23.946  0.00  0.00    +0.020 C 
ATOM     10  C   UNL     1      -2.959   3.730  26.467  0.00  0.00    +0.101 C 
ATOM     11  C   UNL     1      -1.688   5.326  25.197  0.00  0.00    +0.085 C 
ENDROOT
BRANCH   8  13
ATOM     13  C   UNL     1      -4.933   2.607  25.437  0.00  0.00    -0.101 C 
ATOM     15  C   UNL     1      -5.671   1.664  25.505  0.00  0.00    +0.004 C 
ENDBRANCH   8  13
BRANCH   6  12
ATOM     12  C   UNL     1      -0.757   1.698  25.693  0.00  0.00    +0.123 C 
BRANCH  12   4
ATOM      1  O   UNL     1      -0.311  -0.702  24.183  0.00  0.00    -0.267 OA
ATOM      4  N   UNL     1      -1.746   0.649  25.398  0.00  0.00    -0.307 N 
ATOM     14  C   UNL     1      -1.415  -0.460  24.662  0.00  0.00    +0.279 C 
ATOM     20  H   UNL     1      -2.692   0.765  25.749  0.00  0.00    +0.149 HD
BRANCH  14  16
ATOM      2  O   UNL     1      -2.272  -2.684  24.730  0.00  0.00    -0.458 OA
ATOM     16  C   UNL     1      -2.531  -1.413  24.430  0.00  0.00    +0.189 A 
ATOM     17  C   UNL     1      -3.760  -1.185  23.963  0.00  0.00    +0.054 A 
ATOM     18  C   UNL     1      -4.371  -2.461  23.960  0.00  0.00    +0.042 A 
ATOM     19  C   UNL     1      -3.424  -3.339  24.436  0.00  0.00    +0.196 A 
ENDBRANCH  14  16
ENDBRANCH  12   4
ENDBRANCH   6  12
TORSDOF 4
ENDMDL
MODEL 5
REMARK VINA RESULT:      -5.4      2.260      5.863
REMARK  Name = 11943400
REMARK  4 active torsions:
REMARK  status: ('A' for Active; 'I' for Inactive)
REMARK    1  A    between atoms: N_4  and  C_12
REMARK    2  A    between atoms: C_6  and  C_12
REMARK    3  A    between atoms: C_8  and  C_13
REMARK    4  A    between atoms: C_14  and  C_16
REMARK                            x       y       z     vdW  Elec       q    Type
REMARK                         _______ _______ _______ _____ _____    ______ ____
ROOT
ATOM      3  N   UNL     1      -2.843   4.205  24.227  0.00  0.00    -0.297 NA
ATOM      5  C   UNL     1      -0.633   3.477  25.394  0.00  0.00    +0.008 C 
ATOM      6  C   UNL     1      -3.104   3.884  25.655  0.00  0.00    +0.074 C 
ATOM      7  C   UNL     1      -1.846   3.290  26.328  0.00  0.00    +0.025 C 
ATOM      8  C   UNL     1      -0.866   2.671  24.097  0.00  0.00    +0.081 C 
ATOM      9  C   UNL     1      -0.588   4.964  24.993  0.00  0.00    +0.020 C 
ATOM     10  C   UNL     1      -2.258   3.029  23.535  0.00  0.00    +0.101 C 
ATOM     11  C   UNL     1      -1.851   5.308  24.182  0.00  0.00    +0.085 C 
ENDROOT
BRANCH   8  13
ATOM     13  C   UNL     1      -0.730   1.221  24.318  0.00  0.00    -0.101 C 
ATOM     15  C   UNL     1      -0.618   0.040  24.498  0.00  0.00    +0.004 C 
ENDBRANCH   8  13
BRANCH   6  12
ATOM     12  C   UNL     1      -4.326   2.981  25.836  0.00  0.00    +0.123 C 
BRANCH  12   4
ATOM      1  O   UNL     1      -5.885   0.952  24.534  0.00  0.00    -0.267 OA
ATOM      4  N   UNL     1      -3.931   1.582  25.606  0.00  0.00    -0.307 N 
ATOM     14  C   UNL     1      -4.765   0.699  24.969  0.00  0.00    +0.279 C 
ATOM     20  H   UNL     1      -3.021   1.276  25.938  0.00  0.00    +0.149 HD
BRANCH  14  16
ATOM      2  O   UNL     1      -3.645  -1.175  25.926  0.00  0.00    -0.458 OA
ATOM     16  C   UNL     1      -4.232  -0.682  24.838  0.00  0.00    +0.189 A 
ATOM     17  C   UNL     1      -4.255  -1.506  23.788  0.00  0.00    +0.054 A 
ATOM     18  C   UNL     1      -3.603  -2.674  24.252  0.00  0.00    +0.042 A 
ATOM     19  C   UNL     1      -3.252  -2.422  25.558  0.00  0.00    +0.196 A 
ENDBRANCH  14  16
ENDBRANCH  12   4
ENDBRANCH   6  12
TORSDOF 4
ENDMDL
MODEL 6
REMARK VINA RESULT:      -5.0      1.282      3.066
REMARK  Name = 11943400
REMARK  4 active torsions:
REMARK  status: ('A' for Active; 'I' for Inactive)
REMARK    1  A    between atoms: N_4  and  C_12
REMARK    2  A    between atoms: C_6  and  C_12
REMARK    3  A    between atoms: C_8  and  C_13
REMARK    4  A    between atoms: C_14  and  C_16
REMARK                            x       y       z     vdW  Elec       q    Type
REMARK                         _______ _______ _______ _____ _____    ______ ____
ROOT
ATOM      3  N   UNL     1      -3.515  -1.163  25.941  0.00  0.00    -0.297 NA
ATOM      5  C   UNL     1      -2.217  -1.736  23.758  0.00  0.00    +0.008 C 
ATOM      6  C   UNL     1      -4.266  -0.666  24.757  0.00  0.00    +0.074 C 
ATOM      7  C   UNL     1      -3.440  -0.843  23.463  0.00  0.00    +0.025 C 
ATOM      8  C   UNL     1      -1.301  -1.017  24.773  0.00  0.00    +0.081 C 
ATOM      9  C   UNL     1      -2.735  -3.011  24.449  0.00  0.00    +0.020 C 
ATOM     10  C   UNL     1      -2.156  -0.564  25.976  0.00  0.00    +0.101 C 
ATOM     11  C   UNL     1      -3.367  -2.633  25.801  0.00  0.00    +0.085 C 
ENDROOT
BRANCH   8  13
ATOM     13  C   UNL     1      -0.583   0.115  24.164  0.00  0.00    -0.101 C 
ATOM     15  C   UNL     1       0.002   1.037  23.667  0.00  0.00    +0.004 C 
ENDBRANCH   8  13
BRANCH   6  12
ATOM     12  C   UNL     1      -4.743   0.777  24.934  0.00  0.00    +0.123 C 
BRANCH  12   4
ATOM      1  O   UNL     1      -4.741   3.581  25.550  0.00  0.00    -0.267 OA
ATOM      4  N   UNL     1      -3.577   1.675  24.936  0.00  0.00    -0.307 N 
ATOM     14  C   UNL     1      -3.699   3.005  25.249  0.00  0.00    +0.279 C 
ATOM     20  H   UNL     1      -2.670   1.289  24.691  0.00  0.00    +0.149 HD
BRANCH  14  16
ATOM      2  O   UNL     1      -1.343   3.141  25.587  0.00  0.00    -0.458 OA
ATOM     16  C   UNL     1      -2.435   3.783  25.179  0.00  0.00    +0.189 A 
ATOM     17  C   UNL     1      -2.230   5.036  24.765  0.00  0.00    +0.054 A 
ATOM     18  C   UNL     1      -0.837   5.228  24.926  0.00  0.00    +0.042 A 
ATOM     19  C   UNL     1      -0.344   4.046  25.429  0.00  0.00    +0.196 A 
ENDBRANCH  14  16
ENDBRANCH  12   4
ENDBRANCH   6  12
TORSDOF 4
ENDMDL
MODEL 7
REMARK VINA RESULT:      -4.9      2.406      4.873
REMARK  Name = 11943400
REMARK  4 active torsions:
REMARK  status: ('A' for Active; 'I' for Inactive)
REMARK    1  A    between atoms: N_4  and  C_12
REMARK    2  A    between atoms: C_6  and  C_12
REMARK    3  A    between atoms: C_8  and  C_13
REMARK    4  A    between atoms: C_14  and  C_16
REMARK                            x       y       z     vdW  Elec       q    Type
REMARK                         _______ _______ _______ _____ _____    ______ ____
ROOT
ATOM      3  N   UNL     1      -3.062   2.861  25.578  0.00  0.00    -0.297 NA
ATOM      5  C   UNL     1      -3.729   2.014  23.209  0.00  0.00    +0.008 C 
ATOM      6  C   UNL     1      -1.844   2.654  24.751  0.00  0.00    +0.074 C 
ATOM      7  C   UNL     1      -2.199   1.993  23.399  0.00  0.00    +0.025 C 
ATOM      8  C   UNL     1      -4.386   1.151  24.310  0.00  0.00    +0.081 C 
ATOM      9  C   UNL     1      -4.201   3.462  23.436  0.00  0.00    +0.020 C 
ATOM     10  C   UNL     1      -3.834   1.597  25.682  0.00  0.00    +0.101 C 
ATOM     11  C   UNL     1      -3.912   3.866  24.894  0.00  0.00    +0.085 C 
ENDROOT
BRANCH   8  13
ATOM     13  C   UNL     1      -4.173  -0.288  24.084  0.00  0.00    -0.101 C 
ATOM     15  C   UNL     1      -3.999  -1.461  23.900  0.00  0.00    +0.004 C 
ENDBRANCH   8  13
BRANCH   6  12
ATOM     12  C   UNL     1      -0.758   1.876  25.496  0.00  0.00    +0.123 C 
BRANCH  12   4
ATOM      1  O   UNL     1      -0.141  -0.508  24.019  0.00  0.00    -0.267 OA
ATOM      4  N   UNL     1       0.391   1.670  24.600  0.00  0.00    -0.307 N 
ATOM     14  C   UNL     1       0.584   0.481  23.944  0.00  0.00    +0.279 C 
ATOM     20  H   UNL     1       1.052   2.432  24.480  0.00  0.00    +0.149 HD
BRANCH  14  16
ATOM      2  O   UNL     1       2.833   1.150  23.526  0.00  0.00    -0.458 OA
ATOM     16  C   UNL     1       1.804   0.422  23.098  0.00  0.00    +0.189 A 
ATOM     17  C   UNL     1       2.024  -0.254  21.969  0.00  0.00    +0.054 A 
ATOM     18  C   UNL     1       3.356   0.075  21.623  0.00  0.00    +0.042 A 
ATOM     19  C   UNL     1       3.804   0.932  22.602  0.00  0.00    +0.196 A 
ENDBRANCH  14  16
ENDBRANCH  12   4
ENDBRANCH   6  12
TORSDOF 4
ENDMDL
MODEL 8
REMARK VINA RESULT:      -4.8      2.227      5.358
REMARK  Name = 11943400
REMARK  4 active torsions:
REMARK  status: ('A' for Active; 'I' for Inactive)
REMARK    1  A    between atoms: N_4  and  C_12
REMARK    2  A    between atoms: C_6  and  C_12
REMARK    3  A    between atoms: C_8  and  C_13
REMARK    4  A    between atoms: C_14  and  C_16
REMARK                            x       y       z     vdW  Elec       q    Type
REMARK                         _______ _______ _______ _____ _____    ______ ____
ROOT
ATOM      3  N   UNL     1      -2.302   3.005  26.268  0.00  0.00    -0.297 NA
ATOM      5  C   UNL     1      -1.787   4.322  24.083  0.00  0.00    +0.008 C 
ATOM      6  C   UNL     1      -0.853   2.909  25.947  0.00  0.00    +0.074 C 
ATOM      7  C   UNL     1      -0.550   3.539  24.568  0.00  0.00    +0.025 C 
ATOM      8  C   UNL     1      -2.957   3.336  23.872  0.00  0.00    +0.081 C 
ATOM      9  C   UNL     1      -2.204   5.273  25.220  0.00  0.00    +0.020 C 
ATOM     10  C   UNL     1      -3.115   2.476  25.144  0.00  0.00    +0.101 C 
ATOM     11  C   UNL     1      -2.635   4.441  26.443  0.00  0.00    +0.085 C 
ENDROOT
BRANCH   8  13
ATOM     13  C   UNL     1      -2.764   2.500  22.675  0.00  0.00    -0.101 C 
ATOM     15  C   UNL     1      -2.607   1.818  21.700  0.00  0.00    +0.004 C 
ENDBRANCH   8  13
BRANCH   6  12
ATOM     12  C   UNL     1      -0.329   1.476  26.045  0.00  0.00    +0.123 C 
BRANCH  12   4
ATOM      1  O   UNL     1      -0.184  -0.632  24.101  0.00  0.00    -0.267 OA
ATOM      4  N   UNL     1      -1.405   0.540  25.680  0.00  0.00    -0.307 N 
ATOM     14  C   UNL     1      -1.218  -0.432  24.731  0.00  0.00    +0.279 C 
ATOM     20  H   UNL     1      -2.303   0.633  26.146  0.00  0.00    +0.149 HD
BRANCH  14  16
ATOM      2  O   UNL     1      -2.252  -2.580  24.687  0.00  0.00    -0.458 OA
ATOM     16  C   UNL     1      -2.409  -1.278  24.458  0.00  0.00    +0.189 A 
ATOM     17  C   UNL     1      -3.618  -0.926  24.017  0.00  0.00    +0.054 A 
ATOM     18  C   UNL     1      -4.330  -2.148  23.951  0.00  0.00    +0.042 A 
ATOM     19  C   UNL     1      -3.455  -3.123  24.369  0.00  0.00    +0.196 A 
ENDBRANCH  14  16
ENDBRANCH  12   4
ENDBRANCH   6  12
TORSDOF 4
ENDMDL
MODEL 9
REMARK VINA RESULT:      -4.7      3.057      5.551
REMARK  Name = 11943400
REMARK  4 active torsions:
REMARK  status: ('A' for Active; 'I' for Inactive)
REMARK    1  A    between atoms: N_4  and  C_12
REMARK    2  A    between atoms: C_6  and  C_12
REMARK    3  A    between atoms: C_8  and  C_13
REMARK    4  A    between atoms: C_14  and  C_16
REMARK                            x       y       z     vdW  Elec       q    Type
REMARK                         _______ _______ _______ _____ _____    ______ ____
ROOT
ATOM      3  N   UNL     1      -0.929   2.865  25.376  0.00  0.00    -0.297 NA
ATOM      5  C   UNL     1      -2.988   3.612  23.969  0.00  0.00    +0.008 C 
ATOM      6  C   UNL     1      -0.813   2.345  23.988  0.00  0.00    +0.074 C 
ATOM      7  C   UNL     1      -2.099   2.630  23.180  0.00  0.00    +0.025 C 
ATOM      8  C   UNL     1      -3.433   2.941  25.287  0.00  0.00    +0.081 C 
ATOM      9  C   UNL     1      -2.112   4.818  24.356  0.00  0.00    +0.020 C 
ATOM     10  C   UNL     1      -2.185   2.381  26.003  0.00  0.00    +0.101 C 
ATOM     11  C   UNL     1      -0.992   4.346  25.303  0.00  0.00    +0.085 C 
ENDROOT
BRANCH   8  13
ATOM     13  C   UNL     1      -4.441   1.892  25.059  0.00  0.00    -0.101 C 
ATOM     15  C   UNL     1      -5.263   1.038  24.873  0.00  0.00    +0.004 C 
ENDBRANCH   8  13
BRANCH   6  12
ATOM     12  C   UNL     1      -0.436   0.863  23.951  0.00  0.00    +0.123 C 
BRANCH  12   4
ATOM      1  O   UNL     1       1.173  -0.454  21.971  0.00  0.00    -0.267 OA
ATOM      4  N   UNL     1       1.031   0.736  23.952  0.00  0.00    -0.307 N 
ATOM     14  C   UNL     1       1.694   0.081  22.946  0.00  0.00    +0.279 C 
ATOM     20  H   UNL     1       1.549   1.143  24.725  0.00  0.00    +0.149 HD
BRANCH  14  16
ATOM      2  O   UNL     1       3.652  -1.158  23.507  0.00  0.00    -0.458 OA
ATOM     16  C   UNL     1       3.170   0.017  23.107  0.00  0.00    +0.189 A 
ATOM     17  C   UNL     1       4.088   0.964  22.908  0.00  0.00    +0.054 A 
ATOM     18  C   UNL     1       5.314   0.327  23.217  0.00  0.00    +0.042 A 
ATOM     19  C   UNL     1       4.994  -0.962  23.577  0.00  0.00    +0.196 A 
ENDBRANCH  14  16
ENDBRANCH  12   4
ENDBRANCH   6  12
TORSDOF 4
ENDMDL
MODEL 10
REMARK VINA RESULT:      -4.5     15.030     17.567
REMARK  Name = 11943400
REMARK  4 active torsions:
REMARK  status: ('A' for Active; 'I' for Inactive)
REMARK    1  A    between atoms: N_4  and  C_12
REMARK    2  A    between atoms: C_6  and  C_12
REMARK    3  A    between atoms: C_8  and  C_13
REMARK    4  A    between atoms: C_14  and  C_16
REMARK                            x       y       z     vdW  Elec       q    Type
REMARK                         _______ _______ _______ _____ _____    ______ ____
ROOT
ATOM      3  N   UNL     1      -6.636 -10.125   9.652  0.00  0.00    -0.297 NA
ATOM      5  C   UNL     1      -4.909  -8.334  10.417  0.00  0.00    +0.008 C 
ATOM      6  C   UNL     1      -6.979  -9.636  11.014  0.00  0.00    +0.074 C 
ATOM      7  C   UNL     1      -5.879  -8.698  11.559  0.00  0.00    +0.025 C 
ATOM      8  C   UNL     1      -4.198  -9.617   9.931  0.00  0.00    +0.081 C 
ATOM      9  C   UNL     1      -5.758  -7.821   9.239  0.00  0.00    +0.020 C 
ATOM     10  C   UNL     1      -5.265 -10.694   9.641  0.00  0.00    +0.101 C 
ATOM     11  C   UNL     1      -6.661  -8.961   8.732  0.00  0.00    +0.085 C 
ENDROOT
BRANCH   8  13
ATOM     13  C   UNL     1      -3.198 -10.095  10.901  0.00  0.00    -0.101 C 
ATOM     15  C   UNL     1      -2.384 -10.484  11.691  0.00  0.00    +0.004 C 
ENDBRANCH   8  13
BRANCH   6  12
ATOM     12  C   UNL     1      -7.284 -10.780  11.984  0.00  0.00    +0.123 C 
BRANCH  12   4
ATOM      1  O   UNL     1      -7.742 -10.187  14.756  0.00  0.00    -0.267 OA
ATOM      4  N   UNL     1      -6.280 -10.781  13.061  0.00  0.00    -0.307 N 
ATOM     14  C   UNL     1      -6.619 -10.480  14.355  0.00  0.00    +0.279 C 
ATOM     20  H   UNL     1      -5.318 -11.005  12.824  0.00  0.00    +0.149 HD
BRANCH  14  16
ATOM      2  O   UNL     1      -5.819 -10.313  16.595  0.00  0.00    -0.458 OA
ATOM     16  C   UNL     1      -5.488 -10.499  15.319  0.00  0.00    +0.189 A 
ATOM     17  C   UNL     1      -4.184 -10.677  15.095  0.00  0.00    +0.054 A 
ATOM     18  C   UNL     1      -3.600 -10.595  16.382  0.00  0.00    +0.042 A 
ATOM     19  C   UNL     1      -4.636 -10.372  17.259  0.00  0.00    +0.196 A 
ENDBRANCH  14  16
ENDBRANCH  12   4
ENDBRANCH   6  12
TORSDOF 4
ENDMDL
