MODEL 1
REMARK VINA RESULT:       0.6      0.000      0.000
REMARK  Name = 26743330
REMARK  10 active torsions:
REMARK  status: ('A' for Active; 'I' for Inactive)
REMARK    1  A    between atoms: O_2  and  C_14
REMARK    2  A    between atoms: C_6  and  C_10
REMARK    3  A    between atoms: C_7  and  C_12
REMARK    4  A    between atoms: C_10  and  C_13
REMARK    5  A    between atoms: C_12  and  C_14
REMARK    6  A    between atoms: C_16  and  C_19
REMARK    7  A    between atoms: C_17  and  C_18
REMARK    8  A    between atoms: C_17  and  C_20
REMARK    9  A    between atoms: C_17  and  C_21
REMARK   10  A    between atoms: C_17  and  C_22
REMARK                            x       y       z     vdW  Elec       q    Type
REMARK                         _______ _______ _______ _____ _____    ______ ____
ROOT
ATOM      1  O   UNL     1      -1.327   1.216  22.648  0.00  0.00    -0.354 OA
ATOM      5  N   UNL     1      -2.695   1.329  22.870  0.00  0.00    -0.083 NA
ATOM     13  C   UNL     1      -2.905   0.726  24.044  0.00  0.00    +0.085 A 
ATOM     15  C   UNL     1      -1.720   0.219  24.604  0.00  0.00    +0.076 A 
ATOM     16  C   UNL     1      -0.759   0.553  23.687  0.00  0.00    +0.167 A 
ENDROOT
BRANCH  16  19
ATOM     18  C   UNL     1       3.418  -0.016  23.426  0.00  0.00    -0.042 A 
ATOM     19  C   UNL     1       0.660   0.360  23.598  0.00  0.00    +0.020 A 
ATOM     23  C   UNL     1       2.881   1.267  23.316  0.00  0.00    +0.005 A 
ATOM     24  C   UNL     1       2.576  -1.111  23.622  0.00  0.00    +0.005 A 
ATOM     25  C   UNL     1       1.502   1.454  23.402  0.00  0.00    +0.012 A 
ATOM     26  C   UNL     1       1.197  -0.923  23.709  0.00  0.00    +0.012 A 
BRANCH  18  17
ATOM     17  C   UNL     1       4.894  -0.217  23.334  0.00  0.00    -0.013 C 
ATOM     20  C   UNL     1       5.386  -0.127  21.856  0.00  0.00    +0.015 C 
ATOM     21  C   UNL     1       5.309  -1.617  23.882  0.00  0.00    +0.015 C 
ATOM     22  C   UNL     1       5.763   0.815  24.125  0.00  0.00    +0.015 C 
ENDBRANCH  18  17
ENDBRANCH  16  19
BRANCH  13  10
ATOM     10  C   UNL     1      -4.294   0.655  24.611  0.00  0.00    +0.064 C 
BRANCH  10   6
ATOM      4  N   UNL     1      -6.562   3.484  25.831  0.00  0.00    -0.316 NA
ATOM      6  C   UNL     1      -4.970   2.027  24.602  0.00  0.00    +0.012 C 
ATOM      7  C   UNL     1      -3.967   3.196  24.456  0.00  0.00    +0.005 C 
ATOM      8  C   UNL     1      -4.731   4.527  24.542  0.00  0.00    +0.019 C 
ATOM      9  C   UNL     1      -5.864   2.197  25.842  0.00  0.00    +0.085 C 
ATOM     11  C   UNL     1      -5.629   4.607  25.776  0.00  0.00    +0.081 C 
ATOM     27  H   UNL     1      -7.136   3.563  26.670  0.00  0.00    +0.122 HD
BRANCH   7  12
ATOM     12  C   UNL     1      -2.817   3.161  25.470  0.00  0.00    +0.124 C 
BRANCH  12  14
ATOM      3  O   UNL     1      -1.715   5.335  25.482  0.00  0.00    -0.251 OA
ATOM     14  C   UNL     1      -1.748   4.164  25.133  0.00  0.00    +0.305 C 
BRANCH  14   2
ATOM      2  O   UNL     1      -0.794   3.577  24.367  0.00  0.00    -0.481 OA
ATOM     28  H   UNL     1      -0.927   2.608  24.297  0.00  0.00    +0.295 HD
ENDBRANCH  14   2
ENDBRANCH  12  14
ENDBRANCH   7  12
ENDBRANCH  10   6
ENDBRANCH  13  10
TORSDOF 7
ENDMDL
MODEL 2
REMARK VINA RESULT:       2.1      1.671      2.775
REMARK  Name = 26743330
REMARK  10 active torsions:
REMARK  status: ('A' for Active; 'I' for Inactive)
REMARK    1  A    between atoms: O_2  and  C_14
REMARK    2  A    between atoms: C_6  and  C_10
REMARK    3  A    between atoms: C_7  and  C_12
REMARK    4  A    between atoms: C_10  and  C_13
REMARK    5  A    between atoms: C_12  and  C_14
REMARK    6  A    between atoms: C_16  and  C_19
REMARK    7  A    between atoms: C_17  and  C_18
REMARK    8  A    between atoms: C_17  and  C_20
REMARK    9  A    between atoms: C_17  and  C_21
REMARK   10  A    between atoms: C_17  and  C_22
REMARK                            x       y       z     vdW  Elec       q    Type
REMARK                         _______ _______ _______ _____ _____    ______ ____
ROOT
ATOM      1  O   UNL     1      -1.380   1.023  22.174  0.00  0.00    -0.354 OA
ATOM      5  N   UNL     1      -2.664   1.551  22.244  0.00  0.00    -0.083 NA
ATOM     13  C   UNL     1      -2.648   2.355  23.311  0.00  0.00    +0.085 A 
ATOM     15  C   UNL     1      -1.395   2.375  23.947  0.00  0.00    +0.076 A 
ATOM     16  C   UNL     1      -0.635   1.521  23.192  0.00  0.00    +0.167 A 
ENDROOT
BRANCH  16  19
ATOM     18  C   UNL     1       3.364   0.171  23.364  0.00  0.00    -0.042 A 
ATOM     19  C   UNL     1       0.723   1.062  23.250  0.00  0.00    +0.020 A 
ATOM     23  C   UNL     1       3.079   1.528  23.516  0.00  0.00    +0.005 A 
ATOM     24  C   UNL     1       2.329  -0.740  23.154  0.00  0.00    +0.005 A 
ATOM     25  C   UNL     1       1.758   1.973  23.459  0.00  0.00    +0.012 A 
ATOM     26  C   UNL     1       1.009  -0.294  23.098  0.00  0.00    +0.012 A 
BRANCH  18  17
ATOM     17  C   UNL     1       4.777  -0.305  23.424  0.00  0.00    -0.013 C 
ATOM     20  C   UNL     1       5.469  -0.199  22.029  0.00  0.00    +0.015 C 
ATOM     21  C   UNL     1       4.852  -1.797  23.873  0.00  0.00    +0.015 C 
ATOM     22  C   UNL     1       5.707   0.475  24.410  0.00  0.00    +0.015 C 
ENDBRANCH  18  17
ENDBRANCH  16  19
BRANCH  13  10
ATOM     10  C   UNL     1      -3.889   3.108  23.698  0.00  0.00    +0.064 C 
BRANCH  10   6
ATOM      4  N   UNL     1      -6.428   2.661  26.524  0.00  0.00    -0.316 NA
ATOM      6  C   UNL     1      -4.434   2.628  25.044  0.00  0.00    +0.012 C 
ATOM      7  C   UNL     1      -4.262   1.106  25.260  0.00  0.00    +0.005 C 
ATOM      8  C   UNL     1      -4.913   0.712  26.596  0.00  0.00    +0.019 C 
ATOM      9  C   UNL     1      -5.898   3.066  25.221  0.00  0.00    +0.085 C 
ATOM     11  C   UNL     1      -6.351   1.214  26.717  0.00  0.00    +0.081 C 
ATOM     27  H   UNL     1      -7.400   2.960  26.600  0.00  0.00    +0.122 HD
BRANCH   7  12
ATOM     12  C   UNL     1      -4.809   0.248  24.113  0.00  0.00    +0.124 C 
BRANCH  12  14
ATOM      3  O   UNL     1      -4.615  -2.158  23.780  0.00  0.00    -0.251 OA
ATOM     14  C   UNL     1      -4.102  -1.077  24.023  0.00  0.00    +0.305 C 
BRANCH  14   2
ATOM      2  O   UNL     1      -2.776  -0.905  24.254  0.00  0.00    -0.481 OA
ATOM     28  H   UNL     1      -2.384  -1.673  24.719  0.00  0.00    +0.295 HD
ENDBRANCH  14   2
ENDBRANCH  12  14
ENDBRANCH   7  12
ENDBRANCH  10   6
ENDBRANCH  13  10
TORSDOF 7
ENDMDL
MODEL 3
REMARK VINA RESULT:       2.4     16.135     18.672
REMARK  Name = 26743330
REMARK  10 active torsions:
REMARK  status: ('A' for Active; 'I' for Inactive)
REMARK    1  A    between atoms: O_2  and  C_14
REMARK    2  A    between atoms: C_6  and  C_10
REMARK    3  A    between atoms: C_7  and  C_12
REMARK    4  A    between atoms: C_10  and  C_13
REMARK    5  A    between atoms: C_12  and  C_14
REMARK    6  A    between atoms: C_16  and  C_19
REMARK    7  A    between atoms: C_17  and  C_18
REMARK    8  A    between atoms: C_17  and  C_20
REMARK    9  A    between atoms: C_17  and  C_21
REMARK   10  A    between atoms: C_17  and  C_22
REMARK                            x       y       z     vdW  Elec       q    Type
REMARK                         _______ _______ _______ _____ _____    ______ ____
ROOT
ATOM      1  O   UNL     1      -3.625  -8.522  10.833  0.00  0.00    -0.354 OA
ATOM      5  N   UNL     1      -2.321  -8.757  11.254  0.00  0.00    -0.083 NA
ATOM     13  C   UNL     1      -2.244 -10.081  11.414  0.00  0.00    +0.085 A 
ATOM     15  C   UNL     1      -3.455 -10.728  11.112  0.00  0.00    +0.076 A 
ATOM     16  C   UNL     1      -4.290  -9.702  10.752  0.00  0.00    +0.167 A 
ENDROOT
BRANCH  16  19
ATOM     18  C   UNL     1      -8.316  -9.451   9.502  0.00  0.00    -0.042 A 
ATOM     19  C   UNL     1      -5.657  -9.617  10.327  0.00  0.00    +0.020 A 
ATOM     23  C   UNL     1      -7.860 -10.594  10.161  0.00  0.00    +0.005 A 
ATOM     24  C   UNL     1      -7.443  -8.392   9.256  0.00  0.00    +0.005 A 
ATOM     25  C   UNL     1      -6.530 -10.676  10.573  0.00  0.00    +0.012 A 
ATOM     26  C   UNL     1      -6.113  -8.475   9.669  0.00  0.00    +0.012 A 
BRANCH  18  17
ATOM     17  C   UNL     1      -9.739  -9.363   9.060  0.00  0.00    -0.013 C 
ATOM     20  C   UNL     1      -9.982  -8.093   8.187  0.00  0.00    +0.015 C 
ATOM     21  C   UNL     1     -10.706  -9.286  10.281  0.00  0.00    +0.015 C 
ATOM     22  C   UNL     1     -10.250 -10.564   8.198  0.00  0.00    +0.015 C 
ENDBRANCH  18  17
ENDBRANCH  16  19
BRANCH  13  10
ATOM     10  C   UNL     1      -0.957 -10.706  11.870  0.00  0.00    +0.064 C 
BRANCH  10   6
ATOM      4  N   UNL     1      -0.039  -8.289  14.689  0.00  0.00    -0.316 NA
ATOM      6  C   UNL     1      -0.594 -10.263  13.288  0.00  0.00    +0.012 C 
ATOM      7  C   UNL     1      -1.585 -10.780  14.357  0.00  0.00    +0.005 C 
ATOM      8  C   UNL     1      -1.183 -10.215  15.729  0.00  0.00    +0.019 C 
ATOM      9  C   UNL     1      -0.435  -8.734  13.352  0.00  0.00    +0.085 C 
ATOM     11  C   UNL     1      -1.005  -8.698  15.706  0.00  0.00    +0.081 C 
ATOM     27  H   UNL     1       0.047  -7.273  14.693  0.00  0.00    +0.122 HD
BRANCH   7  12
ATOM     12  C   UNL     1      -3.054 -10.470  14.048  0.00  0.00    +0.124 C 
BRANCH  12  14
ATOM      3  O   UNL     1      -3.508 -10.663  16.435  0.00  0.00    -0.251 OA
ATOM     14  C   UNL     1      -3.886 -10.413  15.300  0.00  0.00    +0.305 C 
BRANCH  14   2
ATOM      2  O   UNL     1      -5.152 -10.033  14.992  0.00  0.00    -0.481 OA
ATOM     28  H   UNL     1      -5.796 -10.325  15.671  0.00  0.00    +0.295 HD
ENDBRANCH  14   2
ENDBRANCH  12  14
ENDBRANCH   7  12
ENDBRANCH  10   6
ENDBRANCH  13  10
TORSDOF 7
ENDMDL
