MODEL 1
REMARK VINA RESULT:      -4.3      0.000      0.000
REMARK  Name = 11913297
REMARK  7 active torsions:
REMARK  status: ('A' for Active; 'I' for Inactive)
REMARK    1  A    between atoms: O_5  and  C_24
REMARK    2  A    between atoms: N_7  and  C_13
REMARK    3  A    between atoms: N_8  and  C_14
REMARK    4  A    between atoms: C_17  and  C_19
REMARK    5  A    between atoms: C_19  and  C_20
REMARK    6  A    between atoms: C_20  and  C_24
REMARK    7  A    between atoms: C_21  and  C_25
REMARK                            x       y       z     vdW  Elec       q    Type
REMARK                         _______ _______ _______ _____ _____    ______ ____
ROOT
ATOM      1  O   UNL     1      -1.353  -1.331  26.463  0.00  0.00    -0.370 OA
ATOM      2  O   UNL     1      -2.662  -2.219  23.772  0.00  0.00    -0.370 OA
ATOM     11  C   UNL     1      -1.890  -1.070  24.159  0.00  0.00    +0.171 C 
ATOM     12  C   UNL     1      -2.296  -0.708  25.574  0.00  0.00    +0.171 C 
ATOM     13  C   UNL     1      -0.428  -1.437  24.279  0.00  0.00    +0.130 C 
ATOM     14  C   UNL     1      -3.662  -1.333  25.737  0.00  0.00    +0.130 C 
ATOM     15  C   UNL     1      -0.350  -2.002  25.686  0.00  0.00    +0.185 C 
ATOM     16  C   UNL     1      -3.586  -2.542  24.823  0.00  0.00    +0.185 C 
ENDROOT
BRANCH  14   8
ATOM      8  N   UNL     1      -4.683  -0.420  25.275  0.00  0.00    -0.306 N 
ATOM      9  N   UNL     1      -3.200   1.398  25.245  0.00  0.00    -0.211 NA
ATOM     10  N   UNL     1      -5.505   1.672  24.599  0.00  0.00    -0.223 NA
ATOM     18  C   UNL     1      -4.456   0.923  25.033  0.00  0.00    +0.216 A 
ATOM     21  C   UNL     1      -3.014   2.712  24.998  0.00  0.00    +0.111 A 
ATOM     22  C   UNL     1      -5.248   2.977  24.372  0.00  0.00    +0.116 A 
ATOM     23  C   UNL     1      -4.010   3.557  24.556  0.00  0.00    +0.051 A 
ATOM     30  H   UNL     1      -5.609  -0.774  25.063  0.00  0.00    +0.149 HD
BRANCH  21  25
ATOM      4  O   UNL     1      -0.833   2.284  25.800  0.00  0.00    -0.461 OA
ATOM     25  C   UNL     1      -1.676   3.184  25.233  0.00  0.00    +0.153 A 
ATOM     26  C   UNL     1      -1.033   4.377  25.009  0.00  0.00    +0.051 A 
ATOM     27  C   UNL     1       0.293   4.200  25.468  0.00  0.00    +0.042 A 
ATOM     28  C   UNL     1       0.365   2.910  25.940  0.00  0.00    +0.196 A 
ENDBRANCH  21  25
ENDBRANCH  14   8
BRANCH  13   7
ATOM      3  O   UNL     1       1.251  -0.761  22.021  0.00  0.00    -0.276 OA
ATOM      7  N   UNL     1       0.415  -0.275  24.135  0.00  0.00    -0.308 N 
ATOM     17  C   UNL     1       1.190  -0.033  23.007  0.00  0.00    +0.214 C 
ATOM     29  H   UNL     1       0.481   0.368  24.918  0.00  0.00    +0.149 HD
BRANCH  17  19
ATOM     19  C   UNL     1       1.974   1.261  23.134  0.00  0.00    +0.107 C 
BRANCH  19  20
ATOM     20  C   UNL     1       3.377   1.153  22.544  0.00  0.00    +0.129 C 
BRANCH  20  24
ATOM      6  O   UNL     1       5.277   0.769  24.016  0.00  0.00    -0.251 OA
ATOM     24  C   UNL     1       4.298   0.339  23.422  0.00  0.00    +0.305 C 
BRANCH  24   5
ATOM      5  O   UNL     1       3.905  -0.961  23.480  0.00  0.00    -0.481 OA
ATOM     31  H   UNL     1       3.627  -1.219  24.385  0.00  0.00    +0.295 HD
ENDBRANCH  24   5
ENDBRANCH  20  24
ENDBRANCH  19  20
ENDBRANCH  17  19
ENDBRANCH  13   7
TORSDOF 7
ENDMDL
MODEL 2
REMARK VINA RESULT:      -2.1      2.535      6.779
REMARK  Name = 11913297
REMARK  7 active torsions:
REMARK  status: ('A' for Active; 'I' for Inactive)
REMARK    1  A    between atoms: O_5  and  C_24
REMARK    2  A    between atoms: N_7  and  C_13
REMARK    3  A    between atoms: N_8  and  C_14
REMARK    4  A    between atoms: C_17  and  C_19
REMARK    5  A    between atoms: C_19  and  C_20
REMARK    6  A    between atoms: C_20  and  C_24
REMARK    7  A    between atoms: C_21  and  C_25
REMARK                            x       y       z     vdW  Elec       q    Type
REMARK                         _______ _______ _______ _____ _____    ______ ____
ROOT
ATOM      1  O   UNL     1      -2.271   3.339  26.601  0.00  0.00    -0.370 OA
ATOM      2  O   UNL     1      -1.574   5.147  24.154  0.00  0.00    -0.370 OA
ATOM     11  C   UNL     1      -2.278   3.900  24.289  0.00  0.00    +0.171 C 
ATOM     12  C   UNL     1      -1.574   3.099  25.367  0.00  0.00    +0.171 C 
ATOM     13  C   UNL     1      -3.661   4.137  24.850  0.00  0.00    +0.130 C 
ATOM     14  C   UNL     1      -0.186   3.694  25.423  0.00  0.00    +0.130 C 
ATOM     15  C   UNL     1      -3.400   4.188  26.345  0.00  0.00    +0.185 C 
ATOM     16  C   UNL     1      -0.426   5.137  25.016  0.00  0.00    +0.185 C 
ENDROOT
BRANCH  14   8
ATOM      8  N   UNL     1       0.672   3.039  24.461  0.00  0.00    -0.306 N 
ATOM      9  N   UNL     1      -0.369   0.961  24.781  0.00  0.00    -0.211 NA
ATOM     10  N   UNL     1       1.451   1.206  23.222  0.00  0.00    -0.223 NA
ATOM     18  C   UNL     1       0.582   1.695  24.145  0.00  0.00    +0.216 A 
ATOM     21  C   UNL     1      -0.429  -0.346  24.448  0.00  0.00    +0.111 A 
ATOM     22  C   UNL     1       1.336  -0.108  22.937  0.00  0.00    +0.116 A 
ATOM     23  C   UNL     1       0.405  -0.941  23.524  0.00  0.00    +0.051 A 
ATOM     30  H   UNL     1       1.349   3.588  23.943  0.00  0.00    +0.149 HD
BRANCH  21  25
ATOM      4  O   UNL     1      -1.795  -2.270  24.554  0.00  0.00    -0.461 OA
ATOM     25  C   UNL     1      -1.444  -1.096  25.138  0.00  0.00    +0.153 A 
ATOM     26  C   UNL     1      -2.165  -0.890  26.288  0.00  0.00    +0.051 A 
ATOM     27  C   UNL     1      -3.016  -2.012  26.423  0.00  0.00    +0.042 A 
ATOM     28  C   UNL     1      -2.754  -2.822  25.343  0.00  0.00    +0.196 A 
ENDBRANCH  21  25
ENDBRANCH  14   8
BRANCH  13   7
ATOM      3  O   UNL     1      -5.726   2.985  26.518  0.00  0.00    -0.276 OA
ATOM      7  N   UNL     1      -4.554   3.056  24.512  0.00  0.00    -0.308 N 
ATOM     17  C   UNL     1      -5.520   2.567  25.382  0.00  0.00    +0.214 C 
ATOM     29  H   UNL     1      -4.434   2.600  23.612  0.00  0.00    +0.149 HD
BRANCH  17  19
ATOM     19  C   UNL     1      -6.311   1.430  24.760  0.00  0.00    +0.107 C 
BRANCH  19  20
ATOM     20  C   UNL     1      -5.629   0.078  24.939  0.00  0.00    +0.129 C 
BRANCH  20  24
ATOM      6  O   UNL     1      -3.748   0.702  23.526  0.00  0.00    -0.251 OA
ATOM     24  C   UNL     1      -4.540  -0.145  23.917  0.00  0.00    +0.305 C 
BRANCH  24   5
ATOM      5  O   UNL     1      -4.537  -1.428  23.467  0.00  0.00    -0.481 OA
ATOM     31  H   UNL     1      -4.017  -1.523  22.641  0.00  0.00    +0.295 HD
ENDBRANCH  24   5
ENDBRANCH  20  24
ENDBRANCH  19  20
ENDBRANCH  17  19
ENDBRANCH  13   7
TORSDOF 7
ENDMDL
MODEL 3
REMARK VINA RESULT:      -1.8      2.248      5.000
REMARK  Name = 11913297
REMARK  7 active torsions:
REMARK  status: ('A' for Active; 'I' for Inactive)
REMARK    1  A    between atoms: O_5  and  C_24
REMARK    2  A    between atoms: N_7  and  C_13
REMARK    3  A    between atoms: N_8  and  C_14
REMARK    4  A    between atoms: C_17  and  C_19
REMARK    5  A    between atoms: C_19  and  C_20
REMARK    6  A    between atoms: C_20  and  C_24
REMARK    7  A    between atoms: C_21  and  C_25
REMARK                            x       y       z     vdW  Elec       q    Type
REMARK                         _______ _______ _______ _____ _____    ______ ____
ROOT
ATOM      1  O   UNL     1      -3.383   3.199  23.772  0.00  0.00    -0.370 OA
ATOM      2  O   UNL     1      -5.369   2.587  26.101  0.00  0.00    -0.370 OA
ATOM     11  C   UNL     1      -3.945   2.451  25.960  0.00  0.00    +0.171 C 
ATOM     12  C   UNL     1      -3.672   2.014  24.534  0.00  0.00    +0.171 C 
ATOM     13  C   UNL     1      -3.276   3.802  26.066  0.00  0.00    +0.130 C 
ATOM     14  C   UNL     1      -4.977   1.402  24.079  0.00  0.00    +0.130 C 
ATOM     15  C   UNL     1      -3.397   4.335  24.649  0.00  0.00    +0.185 C 
ATOM     16  C   UNL     1      -6.005   2.179  24.880  0.00  0.00    +0.185 C 
ENDROOT
BRANCH  14   8
ATOM      8  N   UNL     1      -5.017   0.002  24.435  0.00  0.00    -0.306 N 
ATOM      9  N   UNL     1      -2.707  -0.261  24.115  0.00  0.00    -0.211 NA
ATOM     10  N   UNL     1      -4.079  -2.116  24.809  0.00  0.00    -0.223 NA
ATOM     18  C   UNL     1      -3.902  -0.816  24.453  0.00  0.00    +0.216 A 
ATOM     21  C   UNL     1      -1.641  -1.087  24.144  0.00  0.00    +0.111 A 
ATOM     22  C   UNL     1      -2.971  -2.885  24.817  0.00  0.00    +0.116 A 
ATOM     23  C   UNL     1      -1.713  -2.421  24.491  0.00  0.00    +0.051 A 
ATOM     30  H   UNL     1      -5.892  -0.409  24.740  0.00  0.00    +0.149 HD
BRANCH  21  25
ATOM      4  O   UNL     1      -0.237   0.812  24.195  0.00  0.00    -0.461 OA
ATOM     25  C   UNL     1      -0.393  -0.471  23.781  0.00  0.00    +0.153 A 
ATOM     26  C   UNL     1       0.713  -0.897  23.087  0.00  0.00    +0.051 A 
ATOM     27  C   UNL     1       1.611   0.197  23.073  0.00  0.00    +0.042 A 
ATOM     28  C   UNL     1       0.987   1.212  23.760  0.00  0.00    +0.196 A 
ENDBRANCH  21  25
ENDBRANCH  14   8
BRANCH  13   7
ATOM      3  O   UNL     1      -0.943   4.059  24.374  0.00  0.00    -0.276 OA
ATOM      7  N   UNL     1      -1.894   3.672  26.459  0.00  0.00    -0.308 N 
ATOM     17  C   UNL     1      -0.835   3.814  25.572  0.00  0.00    +0.214 C 
ATOM     29  H   UNL     1      -1.693   3.414  27.421  0.00  0.00    +0.149 HD
BRANCH  17  19
ATOM     19  C   UNL     1       0.504   3.623  26.263  0.00  0.00    +0.107 C 
BRANCH  19  20
ATOM     20  C   UNL     1       0.494   2.455  27.244  0.00  0.00    +0.129 C 
BRANCH  20  24
ATOM      6  O   UNL     1       2.594   3.098  28.291  0.00  0.00    -0.251 OA
ATOM     24  C   UNL     1       1.452   2.673  28.391  0.00  0.00    +0.305 C 
BRANCH  24   5
ATOM      5  O   UNL     1       0.887   2.333  29.580  0.00  0.00    -0.481 OA
ATOM     31  H   UNL     1       1.001   1.379  29.779  0.00  0.00    +0.295 HD
ENDBRANCH  24   5
ENDBRANCH  20  24
ENDBRANCH  19  20
ENDBRANCH  17  19
ENDBRANCH  13   7
TORSDOF 7
ENDMDL
MODEL 4
REMARK VINA RESULT:      -1.4      2.353      5.339
REMARK  Name = 11913297
REMARK  7 active torsions:
REMARK  status: ('A' for Active; 'I' for Inactive)
REMARK    1  A    between atoms: O_5  and  C_24
REMARK    2  A    between atoms: N_7  and  C_13
REMARK    3  A    between atoms: N_8  and  C_14
REMARK    4  A    between atoms: C_17  and  C_19
REMARK    5  A    between atoms: C_19  and  C_20
REMARK    6  A    between atoms: C_20  and  C_24
REMARK    7  A    between atoms: C_21  and  C_25
REMARK                            x       y       z     vdW  Elec       q    Type
REMARK                         _______ _______ _______ _____ _____    ______ ____
ROOT
ATOM      1  O   UNL     1      -0.328   1.007  26.123  0.00  0.00    -0.370 OA
ATOM      2  O   UNL     1       0.549   0.171  23.246  0.00  0.00    -0.370 OA
ATOM     11  C   UNL     1      -0.647   0.767  23.777  0.00  0.00    +0.171 C 
ATOM     12  C   UNL     1      -0.903   0.138  25.132  0.00  0.00    +0.171 C 
ATOM     13  C   UNL     1      -0.411   2.228  24.088  0.00  0.00    +0.130 C 
ATOM     14  C   UNL     1      -0.147  -1.170  25.080  0.00  0.00    +0.130 C 
ATOM     15  C   UNL     1       0.210   2.168  25.472  0.00  0.00    +0.185 C 
ATOM     16  C   UNL     1       1.005  -0.851  24.145  0.00  0.00    +0.185 C 
ENDROOT
BRANCH  14   8
ATOM      8  N   UNL     1      -0.983  -2.203  24.511  0.00  0.00    -0.306 N 
ATOM      9  N   UNL     1      -2.929  -0.911  24.745  0.00  0.00    -0.211 NA
ATOM     10  N   UNL     1      -3.019  -3.124  23.796  0.00  0.00    -0.223 NA
ATOM     18  C   UNL     1      -2.351  -2.076  24.346  0.00  0.00    +0.216 A 
ATOM     21  C   UNL     1      -4.263  -0.822  24.569  0.00  0.00    +0.111 A 
ATOM     22  C   UNL     1      -4.351  -2.966  23.648  0.00  0.00    +0.116 A 
ATOM     23  C   UNL     1      -5.034  -1.826  24.020  0.00  0.00    +0.051 A 
ATOM     30  H   UNL     1      -0.556  -3.053  24.161  0.00  0.00    +0.149 HD
BRANCH  21  25
ATOM      4  O   UNL     1      -6.052   0.718  24.456  0.00  0.00    -0.461 OA
ATOM     25  C   UNL     1      -4.845   0.421  25.001  0.00  0.00    +0.153 A 
ATOM     26  C   UNL     1      -4.446   1.410  25.866  0.00  0.00    +0.051 A 
ATOM     27  C   UNL     1      -5.476   2.380  25.854  0.00  0.00    +0.042 A 
ATOM     28  C   UNL     1      -6.429   1.913  24.980  0.00  0.00    +0.196 A 
ENDBRANCH  21  25
ENDBRANCH  14   8
BRANCH  13   7
ATOM      3  O   UNL     1      -2.607   2.000  22.217  0.00  0.00    -0.276 OA
ATOM      7  N   UNL     1      -1.652   2.965  24.104  0.00  0.00    -0.308 N 
ATOM     17  C   UNL     1      -2.654   2.787  23.159  0.00  0.00    +0.214 C 
ATOM     29  H   UNL     1      -1.772   3.683  24.812  0.00  0.00    +0.149 HD
BRANCH  17  19
ATOM     19  C   UNL     1      -3.841   3.696  23.423  0.00  0.00    +0.107 C 
BRANCH  19  20
ATOM     20  C   UNL     1      -3.425   5.051  23.985  0.00  0.00    +0.129 C 
BRANCH  20  24
ATOM      6  O   UNL     1      -3.001   4.321  26.268  0.00  0.00    -0.251 OA
ATOM     24  C   UNL     1      -2.632   4.914  25.263  0.00  0.00    +0.305 C 
BRANCH  24   5
ATOM      5  O   UNL     1      -1.429   5.540  25.169  0.00  0.00    -0.481 OA
ATOM     31  H   UNL     1      -1.389   6.340  25.736  0.00  0.00    +0.295 HD
ENDBRANCH  24   5
ENDBRANCH  20  24
ENDBRANCH  19  20
ENDBRANCH  17  19
ENDBRANCH  13   7
TORSDOF 7
ENDMDL
MODEL 5
REMARK VINA RESULT:      -0.9      2.077      4.932
REMARK  Name = 11913297
REMARK  7 active torsions:
REMARK  status: ('A' for Active; 'I' for Inactive)
REMARK    1  A    between atoms: O_5  and  C_24
REMARK    2  A    between atoms: N_7  and  C_13
REMARK    3  A    between atoms: N_8  and  C_14
REMARK    4  A    between atoms: C_17  and  C_19
REMARK    5  A    between atoms: C_19  and  C_20
REMARK    6  A    between atoms: C_20  and  C_24
REMARK    7  A    between atoms: C_21  and  C_25
REMARK                            x       y       z     vdW  Elec       q    Type
REMARK                         _______ _______ _______ _____ _____    ______ ____
ROOT
ATOM      1  O   UNL     1      -1.173   2.685  23.239  0.00  0.00    -0.370 OA
ATOM      2  O   UNL     1      -0.980   4.713  25.604  0.00  0.00    -0.370 OA
ATOM     11  C   UNL     1      -1.148   3.287  25.541  0.00  0.00    +0.171 C 
ATOM     12  C   UNL     1      -2.035   2.988  24.349  0.00  0.00    +0.171 C 
ATOM     13  C   UNL     1       0.165   2.619  25.200  0.00  0.00    +0.130 C 
ATOM     14  C   UNL     1      -2.771   4.285  24.102  0.00  0.00    +0.130 C 
ATOM     15  C   UNL     1       0.192   2.713  23.684  0.00  0.00    +0.185 C 
ATOM     16  C   UNL     1      -1.776   5.327  24.579  0.00  0.00    +0.185 C 
ENDROOT
BRANCH  14   8
ATOM      8  N   UNL     1      -3.972   4.333  24.906  0.00  0.00    -0.306 N 
ATOM      9  N   UNL     1      -4.240   2.003  24.844  0.00  0.00    -0.211 NA
ATOM     10  N   UNL     1      -5.805   3.398  26.032  0.00  0.00    -0.223 NA
ATOM     18  C   UNL     1      -4.694   3.211  25.272  0.00  0.00    +0.216 A 
ATOM     21  C   UNL     1      -4.970   0.931  25.219  0.00  0.00    +0.111 A 
ATOM     22  C   UNL     1      -6.486   2.283  26.371  0.00  0.00    +0.116 A 
ATOM     23  C   UNL     1      -6.111   1.011  25.990  0.00  0.00    +0.051 A 
ATOM     30  H   UNL     1      -4.289   5.223  25.275  0.00  0.00    +0.149 HD
BRANCH  21  25
ATOM      4  O   UNL     1      -4.036  -1.181  25.719  0.00  0.00    -0.461 OA
ATOM     25  C   UNL     1      -4.465  -0.332  24.751  0.00  0.00    +0.153 A 
ATOM     26  C   UNL     1      -4.311  -0.896  23.508  0.00  0.00    +0.051 A 
ATOM     27  C   UNL     1      -3.751  -2.176  23.725  0.00  0.00    +0.042 A 
ATOM     28  C   UNL     1      -3.602  -2.302  25.086  0.00  0.00    +0.196 A 
ENDBRANCH  21  25
ENDBRANCH  14   8
BRANCH  13   7
ATOM      3  O   UNL     1      -2.100   1.018  26.024  0.00  0.00    -0.276 OA
ATOM      7  N   UNL     1       0.181   1.244  25.638  0.00  0.00    -0.308 N 
ATOM     17  C   UNL     1      -0.964   0.553  26.016  0.00  0.00    +0.214 C 
ATOM     29  H   UNL     1       1.080   0.779  25.720  0.00  0.00    +0.149 HD
BRANCH  17  19
ATOM     19  C   UNL     1      -0.646  -0.872  26.430  0.00  0.00    +0.107 C 
BRANCH  19  20
ATOM     20  C   UNL     1      -0.258  -1.753  25.246  0.00  0.00    +0.129 C 
BRANCH  20  24
ATOM      6  O   UNL     1      -1.012  -0.544  23.273  0.00  0.00    -0.251 OA
ATOM     24  C   UNL     1      -0.098  -0.952  23.976  0.00  0.00    +0.305 C 
BRANCH  24   5
ATOM      5  O   UNL     1       1.213  -0.728  23.694  0.00  0.00    -0.481 OA
ATOM     31  H   UNL     1       1.559   0.058  24.168  0.00  0.00    +0.295 HD
ENDBRANCH  24   5
ENDBRANCH  20  24
ENDBRANCH  19  20
ENDBRANCH  17  19
ENDBRANCH  13   7
TORSDOF 7
ENDMDL
MODEL 6
REMARK VINA RESULT:      -0.6      1.422      3.972
REMARK  Name = 11913297
REMARK  7 active torsions:
REMARK  status: ('A' for Active; 'I' for Inactive)
REMARK    1  A    between atoms: O_5  and  C_24
REMARK    2  A    between atoms: N_7  and  C_13
REMARK    3  A    between atoms: N_8  and  C_14
REMARK    4  A    between atoms: C_17  and  C_19
REMARK    5  A    between atoms: C_19  and  C_20
REMARK    6  A    between atoms: C_20  and  C_24
REMARK    7  A    between atoms: C_21  and  C_25
REMARK                            x       y       z     vdW  Elec       q    Type
REMARK                         _______ _______ _______ _____ _____    ______ ____
ROOT
ATOM      1  O   UNL     1      -0.911   4.030  23.915  0.00  0.00    -0.370 OA
ATOM      2  O   UNL     1      -2.080   3.403  26.740  0.00  0.00    -0.370 OA
ATOM     11  C   UNL     1      -1.721   2.580  25.619  0.00  0.00    +0.171 C 
ATOM     12  C   UNL     1      -2.091   3.341  24.361  0.00  0.00    +0.171 C 
ATOM     13  C   UNL     1      -0.218   2.437  25.533  0.00  0.00    +0.130 C 
ATOM     14  C   UNL     1      -3.134   4.332  24.824  0.00  0.00    +0.130 C 
ATOM     15  C   UNL     1       0.184   3.692  24.779  0.00  0.00    +0.185 C 
ATOM     16  C   UNL     1      -2.731   4.592  26.264  0.00  0.00    +0.185 C 
ENDROOT
BRANCH  14   8
ATOM      8  N   UNL     1      -4.447   3.729  24.772  0.00  0.00    -0.306 N 
ATOM      9  N   UNL     1      -3.572   1.553  24.830  0.00  0.00    -0.211 NA
ATOM     10  N   UNL     1      -5.950   1.928  24.725  0.00  0.00    -0.223 NA
ATOM     18  C   UNL     1      -4.663   2.363  24.776  0.00  0.00    +0.216 A 
ATOM     21  C   UNL     1      -3.820   0.226  24.832  0.00  0.00    +0.111 A 
ATOM     22  C   UNL     1      -6.125   0.590  24.731  0.00  0.00    +0.116 A 
ATOM     23  C   UNL     1      -5.087  -0.318  24.784  0.00  0.00    +0.051 A 
ATOM     30  H   UNL     1      -5.269   4.323  24.785  0.00  0.00    +0.149 HD
BRANCH  21  25
ATOM      4  O   UNL     1      -1.958  -0.557  26.057  0.00  0.00    -0.461 OA
ATOM     25  C   UNL     1      -2.647  -0.604  24.889  0.00  0.00    +0.153 A 
ATOM     26  C   UNL     1      -2.042  -1.462  24.003  0.00  0.00    +0.051 A 
ATOM     27  C   UNL     1      -0.906  -1.977  24.670  0.00  0.00    +0.042 A 
ATOM     28  C   UNL     1      -0.899  -1.396  25.916  0.00  0.00    +0.196 A 
ENDBRANCH  21  25
ENDBRANCH  14   8
BRANCH  13   7
ATOM      3  O   UNL     1       1.809   2.202  23.481  0.00  0.00    -0.276 OA
ATOM      7  N   UNL     1       0.153   1.248  24.804  0.00  0.00    -0.308 N 
ATOM     17  C   UNL     1       1.144   1.231  23.832  0.00  0.00    +0.214 C 
ATOM     29  H   UNL     1      -0.373   0.397  24.979  0.00  0.00    +0.149 HD
BRANCH  17  19
ATOM     19  C   UNL     1       1.319  -0.153  23.233  0.00  0.00    +0.107 C 
BRANCH  19  20
ATOM     20  C   UNL     1       2.529  -0.242  22.309  0.00  0.00    +0.129 C 
BRANCH  20  24
ATOM      6  O   UNL     1       4.683   0.607  23.059  0.00  0.00    -0.251 OA
ATOM     24  C   UNL     1       3.828  -0.268  23.079  0.00  0.00    +0.305 C 
BRANCH  24   5
ATOM      5  O   UNL     1       3.943  -1.403  23.818  0.00  0.00    -0.481 OA
ATOM     31  H   UNL     1       4.309  -2.145  23.291  0.00  0.00    +0.295 HD
ENDBRANCH  24   5
ENDBRANCH  20  24
ENDBRANCH  19  20
ENDBRANCH  17  19
ENDBRANCH  13   7
TORSDOF 7
ENDMDL
