MODEL 1
REMARK VINA RESULT:      13.7      0.000      0.000
REMARK  Name = 9424320
REMARK  4 active torsions:
REMARK  status: ('A' for Active; 'I' for Inactive)
REMARK    1  A    between atoms: N_6  and  C_10
REMARK    2  A    between atoms: N_8  and  C_24
REMARK    3  A    between atoms: C_21  and  C_23
REMARK    4  A    between atoms: C_24  and  C_27
REMARK                            x       y       z     vdW  Elec       q    Type
REMARK                         _______ _______ _______ _____ _____    ______ ____
ROOT
ATOM      2  O   UNL     1       1.105  -0.480  21.002  0.00  0.00    -0.273 OA
ATOM      3  O   UNL     1      -1.868  -1.165  25.231  0.00  0.00    -0.270 OA
ATOM      5  N   UNL     1       0.105  -0.699  24.100  0.00  0.00    -0.286 N 
ATOM      7  N   UNL     1      -0.876   0.502  21.581  0.00  0.00    -0.283 N 
ATOM      9  C   UNL     1       0.868   0.243  23.292  0.00  0.00    +0.164 C 
ATOM     10  C   UNL     1       2.916  -1.279  23.569  0.00  0.00    +0.078 C 
ATOM     11  C   UNL     1       2.389   0.151  23.465  0.00  0.00    +0.054 C 
ATOM     12  C   UNL     1       2.143  -2.026  24.650  0.00  0.00    +0.041 C 
ATOM     13  C   UNL     1       0.658  -2.036  24.329  0.00  0.00    +0.111 C 
ATOM     14  C   UNL     1       0.391   0.027  21.867  0.00  0.00    +0.238 C 
ATOM     15  C   UNL     1      -1.218  -0.451  24.467  0.00  0.00    +0.249 C 
ATOM     16  C   UNL     1      -1.925   0.703  23.847  0.00  0.00    +0.059 A 
ATOM     17  C   UNL     1      -1.823   1.037  22.484  0.00  0.00    +0.046 A 
ATOM     19  C   UNL     1      -2.889   1.339  24.648  0.00  0.00    +0.023 A 
ATOM     20  C   UNL     1      -2.736   1.955  21.941  0.00  0.00    +0.024 A 
ATOM     21  C   UNL     1      -3.753   2.287  24.101  0.00  0.00    -0.017 A 
ATOM     22  C   UNL     1      -3.687   2.584  22.745  0.00  0.00    +0.010 A 
ATOM     31  H   UNL     1      -1.112   0.566  20.594  0.00  0.00    +0.155 HD
ENDROOT
BRANCH  10   6
ATOM      4  O   UNL     1       4.844   0.739  22.833  0.00  0.00    -0.253 OA
ATOM      6  N   UNL     1       4.332  -1.283  23.853  0.00  0.00    -0.296 N 
ATOM      8  N   UNL     1       6.501  -0.519  23.861  0.00  0.00    -0.296 N 
ATOM     18  C   UNL     1       5.194  -0.262  23.458  0.00  0.00    +0.300 C 
ATOM     30  H   UNL     1       4.707  -2.031  24.429  0.00  0.00    +0.151 HD
ATOM     32  H   UNL     1       6.692  -1.363  24.391  0.00  0.00    +0.151 HD
BRANCH   8  24
ATOM     24  C   UNL     1       7.596   0.380  23.581  0.00  0.00    +0.132 C 
BRANCH  24  27
ATOM     27  C   UNL     1       8.731  -0.400  23.003  0.00  0.00    -0.016 C 
ATOM     29  C   UNL     1       9.993   0.043  22.957  0.00  0.00    +0.005 C 
ENDBRANCH  24  27
ENDBRANCH   8  24
ENDBRANCH  10   6
BRANCH  21  23
ATOM      1  S   UNL     1      -6.076   4.835  26.020  0.00  0.00    -0.104 S 
ATOM     23  C   UNL     1      -4.731   2.932  24.932  0.00  0.00    -0.011 A 
ATOM     25  C   UNL     1      -5.677   2.308  25.797  0.00  0.00    +0.016 A 
ATOM     26  C   UNL     1      -4.841   4.307  24.958  0.00  0.00    +0.053 A 
ATOM     28  C   UNL     1      -6.470   3.225  26.449  0.00  0.00    +0.046 A 
ENDBRANCH  21  23
TORSDOF 4
ENDMDL
MODEL 2
REMARK VINA RESULT:      14.0      4.044      9.469
REMARK  Name = 9424320
REMARK  4 active torsions:
REMARK  status: ('A' for Active; 'I' for Inactive)
REMARK    1  A    between atoms: N_6  and  C_10
REMARK    2  A    between atoms: N_8  and  C_24
REMARK    3  A    between atoms: C_21  and  C_23
REMARK    4  A    between atoms: C_24  and  C_27
REMARK                            x       y       z     vdW  Elec       q    Type
REMARK                         _______ _______ _______ _____ _____    ______ ____
ROOT
ATOM      2  O   UNL     1      -3.825   1.891  22.334  0.00  0.00    -0.273 OA
ATOM      3  O   UNL     1       0.582   3.573  24.558  0.00  0.00    -0.270 OA
ATOM      5  N   UNL     1      -1.578   2.723  24.550  0.00  0.00    -0.286 N 
ATOM      7  N   UNL     1      -1.662   1.230  21.997  0.00  0.00    -0.283 N 
ATOM      9  C   UNL     1      -2.453   1.585  24.296  0.00  0.00    +0.164 C 
ATOM     10  C   UNL     1      -4.377   2.911  25.361  0.00  0.00    +0.078 C 
ATOM     11  C   UNL     1      -3.720   1.546  25.159  0.00  0.00    +0.054 C 
ATOM     12  C   UNL     1      -3.335   3.903  25.868  0.00  0.00    +0.041 C 
ATOM     13  C   UNL     1      -2.184   4.014  24.882  0.00  0.00    +0.111 C 
ATOM     14  C   UNL     1      -2.720   1.611  22.802  0.00  0.00    +0.238 C 
ATOM     15  C   UNL     1      -0.213   2.679  24.267  0.00  0.00    +0.249 C 
ATOM     16  C   UNL     1       0.320   1.518  23.502  0.00  0.00    +0.059 A 
ATOM     17  C   UNL     1      -0.333   0.954  22.391  0.00  0.00    +0.046 A 
ATOM     19  C   UNL     1       1.635   1.127  23.809  0.00  0.00    +0.023 A 
ATOM     20  C   UNL     1       0.375   0.059  21.572  0.00  0.00    +0.024 A 
ATOM     21  C   UNL     1       2.302   0.197  23.013  0.00  0.00    -0.017 A 
ATOM     22  C   UNL     1       1.678  -0.326  21.887  0.00  0.00    +0.010 A 
ATOM     31  H   UNL     1      -1.894   1.028  21.028  0.00  0.00    +0.155 HD
ENDROOT
BRANCH  10   6
ATOM      4  O   UNL     1      -5.650   0.498  26.303  0.00  0.00    -0.253 OA
ATOM      6  N   UNL     1      -5.485   2.814  26.281  0.00  0.00    -0.296 N 
ATOM      8  N   UNL     1      -7.094   1.797  27.571  0.00  0.00    -0.296 N 
ATOM     18  C   UNL     1      -6.041   1.601  26.683  0.00  0.00    +0.300 C 
ATOM     30  H   UNL     1      -5.833   3.666  26.709  0.00  0.00    +0.151 HD
ATOM     32  H   UNL     1      -7.334   2.745  27.844  0.00  0.00    +0.151 HD
BRANCH   8  24
ATOM     24  C   UNL     1      -7.847   0.706  28.145  0.00  0.00    +0.132 C 
BRANCH  24  27
ATOM     27  C   UNL     1      -6.972  -0.046  29.092  0.00  0.00    -0.016 C 
ATOM     29  C   UNL     1      -7.312  -0.331  30.354  0.00  0.00    +0.005 C 
ENDBRANCH  24  27
ENDBRANCH   8  24
ENDBRANCH  10   6
BRANCH  21  23
ATOM      1  S   UNL     1       6.196  -0.025  23.618  0.00  0.00    -0.104 S 
ATOM     23  C   UNL     1       3.645  -0.196  23.339  0.00  0.00    -0.011 A 
ATOM     25  C   UNL     1       4.073  -1.450  23.865  0.00  0.00    +0.016 A 
ATOM     26  C   UNL     1       4.701   0.672  23.157  0.00  0.00    +0.053 A 
ATOM     28  C   UNL     1       5.435  -1.493  24.063  0.00  0.00    +0.046 A 
ENDBRANCH  21  23
TORSDOF 4
ENDMDL
