MODEL 1
REMARK VINA RESULT:       0.8      0.000      0.000
REMARK  Name = 71693186
REMARK  15 active torsions:
REMARK  status: ('A' for Active; 'I' for Inactive)
REMARK    1  A    between atoms: O_1  and  C_26
REMARK    2  A    between atoms: O_1  and  C_34
REMARK    3  A    between atoms: O_2  and  C_33
REMARK    4  A    between atoms: O_2  and  C_35
REMARK    5  A    between atoms: N_4  and  C_14
REMARK    6  A    between atoms: N_4  and  C_20
REMARK    7  A    between atoms: C_7  and  C_11
REMARK    8  A    between atoms: C_8  and  C_14
REMARK    9  A    between atoms: C_10  and  C_15
REMARK   10  A    between atoms: C_11  and  C_16
REMARK   11  A    between atoms: C_11  and  C_17
REMARK   12  A    between atoms: C_12  and  C_18
REMARK   13  A    between atoms: C_15  and  C_19
REMARK   14  A    between atoms: C_20  and  C_23
REMARK   15  A    between atoms: C_28  and  C_33
REMARK                            x       y       z     vdW  Elec       q    Type
REMARK                         _______ _______ _______ _____ _____    ______ ____
ROOT
ATOM      7  C   UNL     1      -2.836   3.697  25.676  0.00  0.00    +0.000 C 
ATOM      8  C   UNL     1      -4.172   3.672  24.896  0.00  0.00    +0.029 C 
ATOM      9  C   UNL     1      -2.026   2.423  25.397  0.00  0.00    +0.012 C 
ATOM     10  C   UNL     1      -1.741   2.197  23.897  0.00  0.00    +0.022 C 
ATOM     12  C   UNL     1      -2.920   2.554  23.005  0.00  0.00    -0.073 C 
ATOM     13  C   UNL     1      -4.002   3.203  23.473  0.00  0.00    -0.023 C 
ATOM     18  C   UNL     1      -2.818   2.207  21.545  0.00  0.00    +0.039 C 
ENDROOT
BRANCH   7  11
ATOM     11  C   UNL     1      -2.021   4.955  25.350  0.00  0.00    -0.013 C 
ATOM     16  C   UNL     1      -2.693   5.750  24.235  0.00  0.00    +0.007 C 
ATOM     17  C   UNL     1      -0.595   4.579  24.960  0.00  0.00    +0.007 C 
ENDBRANCH   7  11
BRANCH   8  14
ATOM     14  C   UNL     1      -5.219   2.798  25.593  0.00  0.00    +0.089 C 
BRANCH  14   4
ATOM      4  N   UNL     1      -5.226   1.459  25.032  0.00  0.00    -0.311 NA
ATOM     36  H   UNL     1      -4.681   1.459  24.168  0.00  0.00    +0.122 HD
BRANCH   4  20
ATOM     20  C   UNL     1      -4.616   0.502  25.948  0.00  0.00    +0.120 C 
BRANCH  20  23
ATOM     23  C   UNL     1      -4.107  -0.718  25.227  0.00  0.00    +0.008 A 
ATOM     26  C   UNL     1      -2.981  -1.401  25.687  0.00  0.00    +0.124 A 
ATOM     27  C   UNL     1      -4.775  -1.163  24.085  0.00  0.00    +0.008 A 
ATOM     30  C   UNL     1      -2.524  -2.529  25.007  0.00  0.00    +0.046 A 
ATOM     31  C   UNL     1      -4.317  -2.291  23.405  0.00  0.00    +0.001 A 
ATOM     32  C   UNL     1      -3.192  -2.975  23.866  0.00  0.00    +0.004 A 
BRANCH  26   1
ATOM      1  O   UNL     1      -2.318  -0.980  26.799  0.00  0.00    -0.495 OA
ATOM     34  C   UNL     1      -0.913  -0.769  26.673  0.00  0.00    +0.277 C 
ENDBRANCH  26   1
ENDBRANCH  20  23
ENDBRANCH   4  20
ENDBRANCH  14   4
ENDBRANCH   8  14
BRANCH  10  15
ATOM     15  C   UNL     1      -1.261   0.753  23.702  0.00  0.00    +0.082 C 
BRANCH  15  19
ATOM      5  N   UNL     1       0.916  -0.479  23.725  0.00  0.00    -0.342 N 
ATOM      6  N   UNL     1       1.026   1.677  23.196  0.00  0.00    -0.232 NA
ATOM     19  C   UNL     1       0.230   0.688  23.533  0.00  0.00    +0.109 A 
ATOM     21  C   UNL     1       2.245  -0.225  23.499  0.00  0.00    +0.067 A 
ATOM     22  C   UNL     1       2.287   1.127  23.170  0.00  0.00    +0.089 A 
ATOM     24  C   UNL     1       3.377  -1.038  23.551  0.00  0.00    +0.042 A 
ATOM     25  C   UNL     1       3.526   1.721  22.873  0.00  0.00    +0.030 A 
ATOM     28  C   UNL     1       4.602  -0.429  23.253  0.00  0.00    +0.061 A 
ATOM     29  C   UNL     1       4.677   0.925  22.920  0.00  0.00    +0.017 A 
ATOM     37  H   UNL     1       0.518  -1.371  23.987  0.00  0.00    +0.167 HD
BRANCH  28  33
ATOM      3  O   UNL     1       5.955  -2.264  23.952  0.00  0.00    -0.245 OA
ATOM     33  C   UNL     1       5.819  -1.226  23.292  0.00  0.00    +0.339 C 
BRANCH  33   2
ATOM      2  O   UNL     1       6.799  -0.685  22.506  0.00  0.00    -0.464 OA
ATOM     35  C   UNL     1       8.028  -0.336  23.152  0.00  0.00    +0.280 C 
ENDBRANCH  33   2
ENDBRANCH  28  33
ENDBRANCH  15  19
ENDBRANCH  10  15
TORSDOF 10
ENDMDL
MODEL 2
REMARK VINA RESULT:       1.9      0.848      1.584
REMARK  Name = 71693186
REMARK  15 active torsions:
REMARK  status: ('A' for Active; 'I' for Inactive)
REMARK    1  A    between atoms: O_1  and  C_26
REMARK    2  A    between atoms: O_1  and  C_34
REMARK    3  A    between atoms: O_2  and  C_33
REMARK    4  A    between atoms: O_2  and  C_35
REMARK    5  A    between atoms: N_4  and  C_14
REMARK    6  A    between atoms: N_4  and  C_20
REMARK    7  A    between atoms: C_7  and  C_11
REMARK    8  A    between atoms: C_8  and  C_14
REMARK    9  A    between atoms: C_10  and  C_15
REMARK   10  A    between atoms: C_11  and  C_16
REMARK   11  A    between atoms: C_11  and  C_17
REMARK   12  A    between atoms: C_12  and  C_18
REMARK   13  A    between atoms: C_15  and  C_19
REMARK   14  A    between atoms: C_20  and  C_23
REMARK   15  A    between atoms: C_28  and  C_33
REMARK                            x       y       z     vdW  Elec       q    Type
REMARK                         _______ _______ _______ _____ _____    ______ ____
ROOT
ATOM      7  C   UNL     1      -2.713   3.351  25.672  0.00  0.00    +0.000 C 
ATOM      8  C   UNL     1      -4.066   3.372  24.924  0.00  0.00    +0.029 C 
ATOM      9  C   UNL     1      -1.874   2.142  25.235  0.00  0.00    +0.012 C 
ATOM     10  C   UNL     1      -1.620   2.092  23.713  0.00  0.00    +0.022 C 
ATOM     12  C   UNL     1      -2.832   2.510  22.892  0.00  0.00    -0.073 C 
ATOM     13  C   UNL     1      -3.919   3.069  23.453  0.00  0.00    -0.023 C 
ATOM     18  C   UNL     1      -2.756   2.330  21.401  0.00  0.00    +0.039 C 
ENDROOT
BRANCH   7  11
ATOM     11  C   UNL     1      -1.941   4.662  25.471  0.00  0.00    -0.013 C 
ATOM     16  C   UNL     1      -2.688   5.575  24.503  0.00  0.00    +0.007 C 
ATOM     17  C   UNL     1      -0.531   4.377  24.965  0.00  0.00    +0.007 C 
ENDBRANCH   7  11
BRANCH   8  14
ATOM     14  C   UNL     1      -5.070   2.395  25.542  0.00  0.00    +0.089 C 
BRANCH  14   4
ATOM      4  N   UNL     1      -4.939   1.077  24.944  0.00  0.00    -0.311 NA
ATOM     36  H   UNL     1      -4.142   1.082  24.304  0.00  0.00    +0.122 HD
BRANCH   4  20
ATOM     20  C   UNL     1      -4.692   0.062  25.961  0.00  0.00    +0.120 C 
BRANCH  20  23
ATOM     23  C   UNL     1      -3.502  -0.796  25.620  0.00  0.00    +0.008 A 
ATOM     26  C   UNL     1      -3.567  -1.723  24.580  0.00  0.00    +0.124 A 
ATOM     27  C   UNL     1      -2.327  -0.656  26.358  0.00  0.00    +0.008 A 
ATOM     30  C   UNL     1      -2.456  -2.510  24.277  0.00  0.00    +0.046 A 
ATOM     31  C   UNL     1      -1.215  -1.443  26.055  0.00  0.00    +0.001 A 
ATOM     32  C   UNL     1      -1.280  -2.369  25.014  0.00  0.00    +0.004 A 
BRANCH  26   1
ATOM      1  O   UNL     1      -4.707  -1.873  23.850  0.00  0.00    -0.495 OA
ATOM     34  C   UNL     1      -4.868  -3.103  23.147  0.00  0.00    +0.277 C 
ENDBRANCH  26   1
ENDBRANCH  20  23
ENDBRANCH   4  20
ENDBRANCH  14   4
ENDBRANCH   8  14
BRANCH  10  15
ATOM     15  C   UNL     1      -1.106   0.695  23.348  0.00  0.00    +0.082 C 
BRANCH  15  19
ATOM      5  N   UNL     1       1.084  -0.510  23.466  0.00  0.00    -0.342 N 
ATOM      6  N   UNL     1       1.198   1.677  23.083  0.00  0.00    -0.232 NA
ATOM     19  C   UNL     1       0.395   0.658  23.293  0.00  0.00    +0.109 A 
ATOM     21  C   UNL     1       2.422  -0.225  23.362  0.00  0.00    +0.067 A 
ATOM     22  C   UNL     1       2.466   1.145  23.123  0.00  0.00    +0.089 A 
ATOM     24  C   UNL     1       3.561  -1.025  23.452  0.00  0.00    +0.042 A 
ATOM     25  C   UNL     1       3.714   1.773  22.962  0.00  0.00    +0.030 A 
ATOM     28  C   UNL     1       4.795  -0.384  23.291  0.00  0.00    +0.061 A 
ATOM     29  C   UNL     1       4.871   0.990  23.050  0.00  0.00    +0.017 A 
ATOM     37  H   UNL     1       0.683  -1.421  23.639  0.00  0.00    +0.167 HD
BRANCH  28  33
ATOM      3  O   UNL     1       6.178  -2.136  24.128  0.00  0.00    -0.245 OA
ATOM     33  C   UNL     1       6.018  -1.166  23.376  0.00  0.00    +0.339 C 
BRANCH  33   2
ATOM      2  O   UNL     1       6.975  -0.697  22.517  0.00  0.00    -0.464 OA
ATOM     35  C   UNL     1       8.243  -0.355  23.086  0.00  0.00    +0.280 C 
ENDBRANCH  33   2
ENDBRANCH  28  33
ENDBRANCH  15  19
ENDBRANCH  10  15
TORSDOF 10
ENDMDL
MODEL 3
REMARK VINA RESULT:       2.1      1.506      2.933
REMARK  Name = 71693186
REMARK  15 active torsions:
REMARK  status: ('A' for Active; 'I' for Inactive)
REMARK    1  A    between atoms: O_1  and  C_26
REMARK    2  A    between atoms: O_1  and  C_34
REMARK    3  A    between atoms: O_2  and  C_33
REMARK    4  A    between atoms: O_2  and  C_35
REMARK    5  A    between atoms: N_4  and  C_14
REMARK    6  A    between atoms: N_4  and  C_20
REMARK    7  A    between atoms: C_7  and  C_11
REMARK    8  A    between atoms: C_8  and  C_14
REMARK    9  A    between atoms: C_10  and  C_15
REMARK   10  A    between atoms: C_11  and  C_16
REMARK   11  A    between atoms: C_11  and  C_17
REMARK   12  A    between atoms: C_12  and  C_18
REMARK   13  A    between atoms: C_15  and  C_19
REMARK   14  A    between atoms: C_20  and  C_23
REMARK   15  A    between atoms: C_28  and  C_33
REMARK                            x       y       z     vdW  Elec       q    Type
REMARK                         _______ _______ _______ _____ _____    ______ ____
ROOT
ATOM      7  C   UNL     1      -4.582   2.554  25.181  0.00  0.00    +0.000 C 
ATOM      8  C   UNL     1      -4.331   3.299  23.850  0.00  0.00    +0.029 C 
ATOM      9  C   UNL     1      -3.264   2.354  25.942  0.00  0.00    +0.012 C 
ATOM     10  C   UNL     1      -2.515   3.674  26.226  0.00  0.00    +0.022 C 
ATOM     12  C   UNL     1      -2.577   4.655  25.065  0.00  0.00    -0.073 C 
ATOM     13  C   UNL     1      -3.386   4.464  24.007  0.00  0.00    -0.023 C 
ATOM     18  C   UNL     1      -1.736   5.899  25.160  0.00  0.00    +0.039 C 
ENDROOT
BRANCH   7  11
ATOM     11  C   UNL     1      -5.616   3.286  26.046  0.00  0.00    -0.013 C 
ATOM     16  C   UNL     1      -6.698   2.319  26.516  0.00  0.00    +0.007 C 
ATOM     17  C   UNL     1      -6.230   4.448  25.271  0.00  0.00    +0.007 C 
ENDBRANCH   7  11
BRANCH   8  14
ATOM     14  C   UNL     1      -3.795   2.359  22.766  0.00  0.00    +0.089 C 
BRANCH  14   4
ATOM      4  N   UNL     1      -3.286   1.133  23.356  0.00  0.00    -0.311 NA
ATOM     36  H   UNL     1      -2.548   1.368  24.022  0.00  0.00    +0.122 HD
BRANCH   4  20
ATOM     20  C   UNL     1      -4.335   0.422  24.077  0.00  0.00    +0.120 C 
BRANCH  20  23
ATOM     23  C   UNL     1      -4.009  -1.039  24.243  0.00  0.00    +0.008 A 
ATOM     26  C   UNL     1      -3.151  -1.468  25.256  0.00  0.00    +0.124 A 
ATOM     27  C   UNL     1      -4.575  -1.967  23.368  0.00  0.00    +0.008 A 
ATOM     30  C   UNL     1      -2.860  -2.825  25.394  0.00  0.00    +0.046 A 
ATOM     31  C   UNL     1      -4.283  -3.324  23.507  0.00  0.00    +0.001 A 
ATOM     32  C   UNL     1      -3.426  -3.753  24.520  0.00  0.00    +0.004 A 
BRANCH  26   1
ATOM      1  O   UNL     1      -2.589  -0.575  26.117  0.00  0.00    -0.495 OA
ATOM     34  C   UNL     1      -1.392  -0.979  26.778  0.00  0.00    +0.277 C 
ENDBRANCH  26   1
ENDBRANCH  20  23
ENDBRANCH   4  20
ENDBRANCH  14   4
ENDBRANCH   8  14
BRANCH  10  15
ATOM     15  C   UNL     1      -1.079   3.341  26.649  0.00  0.00    +0.082 C 
BRANCH  15  19
ATOM      5  N   UNL     1       0.898   2.679  25.266  0.00  0.00    -0.342 N 
ATOM      6  N   UNL     1      -0.921   1.426  25.021  0.00  0.00    -0.232 NA
ATOM     19  C   UNL     1      -0.398   2.461  25.640  0.00  0.00    +0.109 A 
ATOM     21  C   UNL     1       1.234   1.723  24.343  0.00  0.00    +0.067 A 
ATOM     22  C   UNL     1       0.082   0.953  24.207  0.00  0.00    +0.089 A 
ATOM     24  C   UNL     1       2.411   1.472  23.637  0.00  0.00    +0.042 A 
ATOM     25  C   UNL     1       0.086  -0.136  23.319  0.00  0.00    +0.030 A 
ATOM     28  C   UNL     1       2.398   0.384  22.757  0.00  0.00    +0.061 A 
ATOM     29  C   UNL     1       1.257  -0.407  22.599  0.00  0.00    +0.017 A 
ATOM     37  H   UNL     1       1.504   3.414  25.607  0.00  0.00    +0.167 HD
BRANCH  28  33
ATOM      3  O   UNL     1       3.783   0.411  20.816  0.00  0.00    -0.245 OA
ATOM     33  C   UNL     1       3.595   0.074  21.992  0.00  0.00    +0.339 C 
BRANCH  33   2
ATOM      2  O   UNL     1       4.495  -0.640  22.736  0.00  0.00    -0.464 OA
ATOM     35  C   UNL     1       5.450   0.112  23.492  0.00  0.00    +0.280 C 
ENDBRANCH  33   2
ENDBRANCH  28  33
ENDBRANCH  15  19
ENDBRANCH  10  15
TORSDOF 10
ENDMDL
MODEL 4
REMARK VINA RESULT:       2.3      1.508      4.518
REMARK  Name = 71693186
REMARK  15 active torsions:
REMARK  status: ('A' for Active; 'I' for Inactive)
REMARK    1  A    between atoms: O_1  and  C_26
REMARK    2  A    between atoms: O_1  and  C_34
REMARK    3  A    between atoms: O_2  and  C_33
REMARK    4  A    between atoms: O_2  and  C_35
REMARK    5  A    between atoms: N_4  and  C_14
REMARK    6  A    between atoms: N_4  and  C_20
REMARK    7  A    between atoms: C_7  and  C_11
REMARK    8  A    between atoms: C_8  and  C_14
REMARK    9  A    between atoms: C_10  and  C_15
REMARK   10  A    between atoms: C_11  and  C_16
REMARK   11  A    between atoms: C_11  and  C_17
REMARK   12  A    between atoms: C_12  and  C_18
REMARK   13  A    between atoms: C_15  and  C_19
REMARK   14  A    between atoms: C_20  and  C_23
REMARK   15  A    between atoms: C_28  and  C_33
REMARK                            x       y       z     vdW  Elec       q    Type
REMARK                         _______ _______ _______ _____ _____    ______ ____
ROOT
ATOM      7  C   UNL     1      -3.968  -1.005  24.027  0.00  0.00    +0.000 C 
ATOM      8  C   UNL     1      -4.335  -0.030  25.170  0.00  0.00    +0.029 C 
ATOM      9  C   UNL     1      -2.826  -0.431  23.176  0.00  0.00    +0.012 C 
ATOM     10  C   UNL     1      -1.560  -0.099  23.995  0.00  0.00    +0.022 C 
ATOM     12  C   UNL     1      -1.872   0.511  25.354  0.00  0.00    -0.073 C 
ATOM     13  C   UNL     1      -3.120   0.542  25.856  0.00  0.00    -0.023 C 
ATOM     18  C   UNL     1      -0.717   1.035  26.161  0.00  0.00    +0.039 C 
ENDROOT
BRANCH   7  11
ATOM     11  C   UNL     1      -3.609  -2.395  24.570  0.00  0.00    -0.013 C 
ATOM     16  C   UNL     1      -2.110  -2.646  24.440  0.00  0.00    +0.007 C 
ATOM     17  C   UNL     1      -4.403  -3.473  23.838  0.00  0.00    +0.007 C 
ENDBRANCH   7  11
BRANCH   8  14
ATOM     14  C   UNL     1      -5.221   1.117  24.674  0.00  0.00    +0.089 C 
BRANCH  14   4
ATOM      4  N   UNL     1      -5.588   1.993  25.773  0.00  0.00    -0.311 NA
ATOM     36  H   UNL     1      -4.992   1.784  26.576  0.00  0.00    +0.122 HD
BRANCH   4  20
ATOM     20  C   UNL     1      -5.390   3.393  25.417  0.00  0.00    +0.120 C 
BRANCH  20  23
ATOM     23  C   UNL     1      -3.930   3.729  25.260  0.00  0.00    +0.008 A 
ATOM     26  C   UNL     1      -3.291   3.576  24.030  0.00  0.00    +0.124 A 
ATOM     27  C   UNL     1      -3.216   4.197  26.364  0.00  0.00    +0.008 A 
ATOM     30  C   UNL     1      -1.939   3.892  23.903  0.00  0.00    +0.046 A 
ATOM     31  C   UNL     1      -1.863   4.513  26.237  0.00  0.00    +0.001 A 
ATOM     32  C   UNL     1      -1.225   4.361  25.006  0.00  0.00    +0.004 A 
BRANCH  26   1
ATOM      1  O   UNL     1      -3.973   3.120  22.943  0.00  0.00    -0.495 OA
ATOM     34  C   UNL     1      -3.198   2.705  21.820  0.00  0.00    +0.277 C 
ENDBRANCH  26   1
ENDBRANCH  20  23
ENDBRANCH   4  20
ENDBRANCH  14   4
ENDBRANCH   8  14
BRANCH  10  15
ATOM     15  C   UNL     1      -0.642   0.784  23.142  0.00  0.00    +0.082 C 
BRANCH  15  19
ATOM      5  N   UNL     1       1.814   1.262  23.135  0.00  0.00    -0.342 N 
ATOM      6  N   UNL     1       1.237  -0.855  23.487  0.00  0.00    -0.232 NA
ATOM     19  C   UNL     1       0.794   0.361  23.260  0.00  0.00    +0.109 A 
ATOM     21  C   UNL     1       2.995   0.583  23.290  0.00  0.00    +0.067 A 
ATOM     22  C   UNL     1       2.608  -0.736  23.509  0.00  0.00    +0.089 A 
ATOM     24  C   UNL     1       4.326   0.997  23.261  0.00  0.00    +0.042 A 
ATOM     25  C   UNL     1       3.596  -1.715  23.712  0.00  0.00    +0.030 A 
ATOM     28  C   UNL     1       5.297   0.009  23.464  0.00  0.00    +0.061 A 
ATOM     29  C   UNL     1       4.940  -1.323  23.686  0.00  0.00    +0.017 A 
ATOM     37  H   UNL     1       1.718   2.253  22.959  0.00  0.00    +0.167 HD
BRANCH  28  33
ATOM      3  O   UNL     1       7.176   1.368  24.019  0.00  0.00    -0.245 OA
ATOM     33  C   UNL     1       6.703   0.380  23.442  0.00  0.00    +0.339 C 
BRANCH  33   2
ATOM      2  O   UNL     1       7.445  -0.501  22.704  0.00  0.00    -0.464 OA
ATOM     35  C   UNL     1       8.868  -0.418  22.834  0.00  0.00    +0.280 C 
ENDBRANCH  33   2
ENDBRANCH  28  33
ENDBRANCH  15  19
ENDBRANCH  10  15
TORSDOF 10
ENDMDL
MODEL 5
REMARK VINA RESULT:       3.0      1.438      3.833
REMARK  Name = 71693186
REMARK  15 active torsions:
REMARK  status: ('A' for Active; 'I' for Inactive)
REMARK    1  A    between atoms: O_1  and  C_26
REMARK    2  A    between atoms: O_1  and  C_34
REMARK    3  A    between atoms: O_2  and  C_33
REMARK    4  A    between atoms: O_2  and  C_35
REMARK    5  A    between atoms: N_4  and  C_14
REMARK    6  A    between atoms: N_4  and  C_20
REMARK    7  A    between atoms: C_7  and  C_11
REMARK    8  A    between atoms: C_8  and  C_14
REMARK    9  A    between atoms: C_10  and  C_15
REMARK   10  A    between atoms: C_11  and  C_16
REMARK   11  A    between atoms: C_11  and  C_17
REMARK   12  A    between atoms: C_12  and  C_18
REMARK   13  A    between atoms: C_15  and  C_19
REMARK   14  A    between atoms: C_20  and  C_23
REMARK   15  A    between atoms: C_28  and  C_33
REMARK                            x       y       z     vdW  Elec       q    Type
REMARK                         _______ _______ _______ _____ _____    ______ ____
ROOT
ATOM      7  C   UNL     1      -3.675   2.338  23.928  0.00  0.00    +0.000 C 
ATOM      8  C   UNL     1      -4.956   1.800  24.607  0.00  0.00    +0.029 C 
ATOM      9  C   UNL     1      -2.476   1.434  24.248  0.00  0.00    +0.012 C 
ATOM     10  C   UNL     1      -2.694  -0.038  23.839  0.00  0.00    +0.022 C 
ATOM     12  C   UNL     1      -4.108  -0.530  24.113  0.00  0.00    -0.073 C 
ATOM     13  C   UNL     1      -5.101   0.305  24.466  0.00  0.00    -0.023 C 
ATOM     18  C   UNL     1      -4.383  -1.996  23.918  0.00  0.00    +0.039 C 
ENDROOT
BRANCH   7  11
ATOM     11  C   UNL     1      -3.866   2.491  22.414  0.00  0.00    -0.013 C 
ATOM     16  C   UNL     1      -2.593   2.089  21.674  0.00  0.00    +0.007 C 
ATOM     17  C   UNL     1      -4.261   3.924  22.069  0.00  0.00    +0.007 C 
ENDBRANCH   7  11
BRANCH   8  14
ATOM     14  C   UNL     1      -5.011   2.174  26.091  0.00  0.00    +0.089 C 
BRANCH  14   4
ATOM      4  N   UNL     1      -4.701   3.581  26.278  0.00  0.00    -0.311 NA
ATOM     36  H   UNL     1      -5.423   4.004  26.863  0.00  0.00    +0.122 HD
BRANCH   4  20
ATOM     20  C   UNL     1      -3.418   3.751  26.950  0.00  0.00    +0.120 C 
BRANCH  20  23
ATOM     23  C   UNL     1      -2.360   4.271  26.014  0.00  0.00    +0.008 A 
ATOM     26  C   UNL     1      -1.135   3.614  25.886  0.00  0.00    +0.124 A 
ATOM     27  C   UNL     1      -2.614   5.424  25.270  0.00  0.00    +0.008 A 
ATOM     30  C   UNL     1      -0.166   4.110  25.015  0.00  0.00    +0.046 A 
ATOM     31  C   UNL     1      -1.644   5.920  24.399  0.00  0.00    +0.001 A 
ATOM     32  C   UNL     1      -0.421   5.263  24.271  0.00  0.00    +0.004 A 
BRANCH  26   1
ATOM      1  O   UNL     1      -0.871   2.489  26.605  0.00  0.00    -0.495 OA
ATOM     34  C   UNL     1       0.476   2.296  27.034  0.00  0.00    +0.277 C 
ENDBRANCH  26   1
ENDBRANCH  20  23
ENDBRANCH   4  20
ENDBRANCH  14   4
ENDBRANCH   8  14
BRANCH  10  15
ATOM     15  C   UNL     1      -1.621  -0.899  24.516  0.00  0.00    +0.082 C 
BRANCH  15  19
ATOM      5  N   UNL     1       0.823  -1.331  24.197  0.00  0.00    -0.342 N 
ATOM      6  N   UNL     1       0.116   0.703  23.645  0.00  0.00    -0.232 NA
ATOM     19  C   UNL     1      -0.239  -0.474  24.110  0.00  0.00    +0.109 A 
ATOM     21  C   UNL     1       1.938  -0.662  23.760  0.00  0.00    +0.067 A 
ATOM     22  C   UNL     1       1.470   0.605  23.422  0.00  0.00    +0.089 A 
ATOM     24  C   UNL     1       3.273  -1.046  23.635  0.00  0.00    +0.042 A 
ATOM     25  C   UNL     1       2.375   1.559  22.927  0.00  0.00    +0.030 A 
ATOM     28  C   UNL     1       4.161  -0.083  23.142  0.00  0.00    +0.061 A 
ATOM     29  C   UNL     1       3.722   1.197  22.793  0.00  0.00    +0.017 A 
ATOM     37  H   UNL     1       0.794  -2.287  24.524  0.00  0.00    +0.167 HD
BRANCH  28  33
ATOM      3  O   UNL     1       6.194  -0.350  21.926  0.00  0.00    -0.245 OA
ATOM     33  C   UNL     1       5.566  -0.424  22.990  0.00  0.00    +0.339 C 
BRANCH  33   2
ATOM      2  O   UNL     1       6.114  -0.838  24.174  0.00  0.00    -0.464 OA
ATOM     35  C   UNL     1       5.798  -0.067  25.337  0.00  0.00    +0.280 C 
ENDBRANCH  33   2
ENDBRANCH  28  33
ENDBRANCH  15  19
ENDBRANCH  10  15
TORSDOF 10
ENDMDL
MODEL 6
REMARK VINA RESULT:       4.0      1.540      4.337
REMARK  Name = 71693186
REMARK  15 active torsions:
REMARK  status: ('A' for Active; 'I' for Inactive)
REMARK    1  A    between atoms: O_1  and  C_26
REMARK    2  A    between atoms: O_1  and  C_34
REMARK    3  A    between atoms: O_2  and  C_33
REMARK    4  A    between atoms: O_2  and  C_35
REMARK    5  A    between atoms: N_4  and  C_14
REMARK    6  A    between atoms: N_4  and  C_20
REMARK    7  A    between atoms: C_7  and  C_11
REMARK    8  A    between atoms: C_8  and  C_14
REMARK    9  A    between atoms: C_10  and  C_15
REMARK   10  A    between atoms: C_11  and  C_16
REMARK   11  A    between atoms: C_11  and  C_17
REMARK   12  A    between atoms: C_12  and  C_18
REMARK   13  A    between atoms: C_15  and  C_19
REMARK   14  A    between atoms: C_20  and  C_23
REMARK   15  A    between atoms: C_28  and  C_33
REMARK                            x       y       z     vdW  Elec       q    Type
REMARK                         _______ _______ _______ _____ _____    ______ ____
ROOT
ATOM      7  C   UNL     1      -4.045  -1.119  24.106  0.00  0.00    +0.000 C 
ATOM      8  C   UNL     1      -4.378  -0.083  25.204  0.00  0.00    +0.029 C 
ATOM      9  C   UNL     1      -2.920  -0.600  23.199  0.00  0.00    +0.012 C 
ATOM     10  C   UNL     1      -1.633  -0.236  23.969  0.00  0.00    +0.022 C 
ATOM     12  C   UNL     1      -1.908   0.447  25.301  0.00  0.00    -0.073 C 
ATOM     13  C   UNL     1      -3.143   0.515  25.830  0.00  0.00    -0.023 C 
ATOM     18  C   UNL     1      -0.730   1.004  26.053  0.00  0.00    +0.039 C 
ENDROOT
BRANCH   7  11
ATOM     11  C   UNL     1      -3.683  -2.481  24.713  0.00  0.00    -0.013 C 
ATOM     16  C   UNL     1      -3.317  -2.327  26.186  0.00  0.00    +0.007 C 
ATOM     17  C   UNL     1      -2.537  -3.122  23.936  0.00  0.00    +0.007 C 
ENDBRANCH   7  11
BRANCH   8  14
ATOM     14  C   UNL     1      -5.268   1.044  24.670  0.00  0.00    +0.089 C 
BRANCH  14   4
ATOM      4  N   UNL     1      -5.435   2.084  25.670  0.00  0.00    -0.311 NA
ATOM     36  H   UNL     1      -4.749   1.942  26.413  0.00  0.00    +0.122 HD
BRANCH   4  20
ATOM     20  C   UNL     1      -5.210   3.405  25.096  0.00  0.00    +0.120 C 
BRANCH  20  23
ATOM     23  C   UNL     1      -3.755   3.641  24.786  0.00  0.00    +0.008 A 
ATOM     26  C   UNL     1      -2.927   4.291  25.702  0.00  0.00    +0.124 A 
ATOM     27  C   UNL     1      -3.238   3.203  23.567  0.00  0.00    +0.008 A 
ATOM     30  C   UNL     1      -1.583   4.501  25.399  0.00  0.00    +0.046 A 
ATOM     31  C   UNL     1      -1.893   3.414  23.264  0.00  0.00    +0.001 A 
ATOM     32  C   UNL     1      -1.065   4.062  24.180  0.00  0.00    +0.004 A 
BRANCH  26   1
ATOM      1  O   UNL     1      -3.416   4.725  26.897  0.00  0.00    -0.495 OA
ATOM     34  C   UNL     1      -3.014   4.006  28.061  0.00  0.00    +0.277 C 
ENDBRANCH  26   1
ENDBRANCH  20  23
ENDBRANCH   4  20
ENDBRANCH  14   4
ENDBRANCH   8  14
BRANCH  10  15
ATOM     15  C   UNL     1      -0.730   0.594  23.049  0.00  0.00    +0.082 C 
BRANCH  15  19
ATOM      5  N   UNL     1       1.715   1.128  23.055  0.00  0.00    -0.342 N 
ATOM      6  N   UNL     1       1.182  -0.986  23.485  0.00  0.00    -0.232 NA
ATOM     19  C   UNL     1       0.714   0.209  23.203  0.00  0.00    +0.109 A 
ATOM     21  C   UNL     1       2.909   0.483  23.253  0.00  0.00    +0.067 A 
ATOM     22  C   UNL     1       2.550  -0.835  23.519  0.00  0.00    +0.089 A 
ATOM     24  C   UNL     1       4.231   0.927  23.224  0.00  0.00    +0.042 A 
ATOM     25  C   UNL     1       3.556  -1.781  23.775  0.00  0.00    +0.030 A 
ATOM     28  C   UNL     1       5.221  -0.029  23.479  0.00  0.00    +0.061 A 
ATOM     29  C   UNL     1       4.892  -1.360  23.750  0.00  0.00    +0.017 A 
ATOM     37  H   UNL     1       1.599   2.109  22.839  0.00  0.00    +0.167 HD
BRANCH  28  33
ATOM      3  O   UNL     1       7.067   1.372  24.039  0.00  0.00    -0.245 OA
ATOM     33  C   UNL     1       6.619   0.373  23.461  0.00  0.00    +0.339 C 
BRANCH  33   2
ATOM      2  O   UNL     1       7.381  -0.491  22.724  0.00  0.00    -0.464 OA
ATOM     35  C   UNL     1       8.802  -0.376  22.858  0.00  0.00    +0.280 C 
ENDBRANCH  33   2
ENDBRANCH  28  33
ENDBRANCH  15  19
ENDBRANCH  10  15
TORSDOF 10
ENDMDL
