MODEL 1
REMARK VINA RESULT:      -4.3      0.000      0.000
REMARK  Name = 40777644
REMARK  6 active torsions:
REMARK  status: ('A' for Active; 'I' for Inactive)
REMARK    1  A    between atoms: N_2  and  C_15
REMARK    2  A    between atoms: N_3  and  C_7
REMARK    3  A    between atoms: C_5  and  C_8
REMARK    4  A    between atoms: C_11  and  C_13
REMARK    5  A    between atoms: C_12  and  C_14
REMARK    6  A    between atoms: C_20  and  C_21
REMARK                            x       y       z     vdW  Elec       q    Type
REMARK                         _______ _______ _______ _____ _____    ______ ____
ROOT
ATOM      2  N   UNL     1      -6.769 -10.247  13.363  0.00  0.00    -0.236 N 
ATOM      4  N   UNL     1      -7.767 -10.551  12.516  0.00  0.00    -0.171 NA
ATOM      8  C   UNL     1      -8.548 -10.162  14.626  0.00  0.00    +0.003 A 
ATOM     11  C   UNL     1      -7.184 -10.005  14.639  0.00  0.00    +0.046 A 
ATOM     12  C   UNL     1      -8.852 -10.498  13.293  0.00  0.00    +0.064 A 
ATOM     13  C   UNL     1      -6.262  -9.653  15.738  0.00  0.00    +0.066 C 
ATOM     14  C   UNL     1     -10.175 -10.781  12.711  0.00  0.00    +0.068 C 
ENDROOT
BRANCH   2  15
ATOM      1 CL   UNL     1      -3.554  -8.907   9.633  0.00  0.00    -0.083 Cl
ATOM     15  C   UNL     1      -5.455 -10.202  12.897  0.00  0.00    +0.067 A 
ATOM     16  C   UNL     1      -5.175  -9.644  11.649  0.00  0.00    +0.048 A 
ATOM     17  C   UNL     1      -4.420 -10.715  13.678  0.00  0.00    +0.028 A 
ATOM     18  C   UNL     1      -3.861  -9.602  11.182  0.00  0.00    +0.046 A 
ATOM     19  C   UNL     1      -3.106 -10.673  13.212  0.00  0.00    +0.007 A 
ATOM     20  C   UNL     1      -2.827 -10.115  11.964  0.00  0.00    -0.032 A 
ATOM     21  C   UNL     1      -1.407 -10.087  11.501  0.00  0.00    +0.045 C 
ENDBRANCH   2  15
BRANCH   8   5
ATOM      5  C   UNL     1      -9.506 -10.010  15.786  0.00  0.00    +0.047 C 
ATOM      6  C   UNL     1      -8.977 -10.624  17.098  0.00  0.00    +0.035 C 
ATOM      7  C   UNL     1      -9.499  -9.722  18.224  0.00  0.00    +0.074 C 
ATOM      9  C   UNL     1      -9.788  -8.591  16.185  0.00  0.00    -0.021 C 
ATOM     10  C   UNL     1      -9.787  -8.439  17.514  0.00  0.00    -0.012 C 
BRANCH   7   3
ATOM      3  N   UNL     1     -10.713 -10.216  18.816  0.00  0.00    -0.324 NA
ATOM     22  H   UNL     1     -11.075 -10.997  18.270  0.00  0.00    +0.119 HD
ATOM     23  H   UNL     1     -10.523 -10.589  19.745  0.00  0.00    +0.119 HD
ENDBRANCH   7   3
ENDBRANCH   8   5
TORSDOF 3
ENDMDL
MODEL 2
REMARK VINA RESULT:      -2.2      1.702      2.355
REMARK  Name = 40777644
REMARK  6 active torsions:
REMARK  status: ('A' for Active; 'I' for Inactive)
REMARK    1  A    between atoms: N_2  and  C_15
REMARK    2  A    between atoms: N_3  and  C_7
REMARK    3  A    between atoms: C_5  and  C_8
REMARK    4  A    between atoms: C_11  and  C_13
REMARK    5  A    between atoms: C_12  and  C_14
REMARK    6  A    between atoms: C_20  and  C_21
REMARK                            x       y       z     vdW  Elec       q    Type
REMARK                         _______ _______ _______ _____ _____    ______ ____
ROOT
ATOM      2  N   UNL     1      -6.601  -9.848  11.543  0.00  0.00    -0.236 N 
ATOM      4  N   UNL     1      -7.528 -10.030  10.587  0.00  0.00    -0.171 NA
ATOM      8  C   UNL     1      -8.442 -10.164  12.676  0.00  0.00    +0.003 A 
ATOM     11  C   UNL     1      -7.097  -9.919  12.812  0.00  0.00    +0.046 A 
ATOM     12  C   UNL     1      -8.651 -10.223  11.285  0.00  0.00    +0.064 A 
ATOM     13  C   UNL     1      -6.263  -9.751  14.019  0.00  0.00    +0.066 C 
ATOM     14  C   UNL     1      -9.916 -10.464  10.570  0.00  0.00    +0.068 C 
ENDROOT
BRANCH   2  15
ATOM      1 CL   UNL     1      -1.656 -10.525  12.605  0.00  0.00    -0.083 Cl
ATOM     15  C   UNL     1      -5.274  -9.611  11.185  0.00  0.00    +0.067 A 
ATOM     16  C   UNL     1      -4.238 -10.120  11.968  0.00  0.00    +0.048 A 
ATOM     17  C   UNL     1      -4.982  -8.864  10.044  0.00  0.00    +0.028 A 
ATOM     18  C   UNL     1      -2.911  -9.881  11.611  0.00  0.00    +0.046 A 
ATOM     19  C   UNL     1      -3.656  -8.625   9.686  0.00  0.00    +0.007 A 
ATOM     20  C   UNL     1      -2.620  -9.134  10.470  0.00  0.00    -0.032 A 
ATOM     21  C   UNL     1      -1.212  -8.858  10.052  0.00  0.00    +0.045 C 
ENDBRANCH   2  15
BRANCH   8   5
ATOM      5  C   UNL     1      -9.465 -10.335  13.775  0.00  0.00    +0.047 C 
ATOM      6  C   UNL     1      -8.836 -10.476  15.177  0.00  0.00    +0.035 C 
ATOM      7  C   UNL     1      -9.809  -9.789  16.144  0.00  0.00    +0.074 C 
ATOM      9  C   UNL     1     -10.394  -9.170  13.954  0.00  0.00    -0.021 C 
ATOM     10  C   UNL     1     -10.581  -8.878  15.246  0.00  0.00    -0.012 C 
BRANCH   7   3
ATOM      3  N   UNL     1     -10.716 -10.714  16.771  0.00  0.00    -0.324 NA
ATOM     22  H   UNL     1     -11.678 -10.464  16.549  0.00  0.00    +0.119 HD
ATOM     23  H   UNL     1     -10.575 -11.651  16.395  0.00  0.00    +0.119 HD
ENDBRANCH   7   3
ENDBRANCH   8   5
TORSDOF 3
ENDMDL
MODEL 3
REMARK VINA RESULT:      -1.9     15.648     17.602
REMARK  Name = 40777644
REMARK  6 active torsions:
REMARK  status: ('A' for Active; 'I' for Inactive)
REMARK    1  A    between atoms: N_2  and  C_15
REMARK    2  A    between atoms: N_3  and  C_7
REMARK    3  A    between atoms: C_5  and  C_8
REMARK    4  A    between atoms: C_11  and  C_13
REMARK    5  A    between atoms: C_12  and  C_14
REMARK    6  A    between atoms: C_20  and  C_21
REMARK                            x       y       z     vdW  Elec       q    Type
REMARK                         _______ _______ _______ _____ _____    ______ ____
ROOT
ATOM      2  N   UNL     1      -1.807   1.047  24.610  0.00  0.00    -0.236 N 
ATOM      4  N   UNL     1      -1.689  -0.157  25.194  0.00  0.00    -0.171 NA
ATOM      8  C   UNL     1       0.033   0.244  23.748  0.00  0.00    +0.003 A 
ATOM     11  C   UNL     1      -0.801   1.336  23.735  0.00  0.00    +0.046 A 
ATOM     12  C   UNL     1      -0.563  -0.644  24.664  0.00  0.00    +0.064 A 
ATOM     13  C   UNL     1      -0.723   2.601  22.977  0.00  0.00    +0.066 C 
ATOM     14  C   UNL     1      -0.091  -1.979  25.067  0.00  0.00    +0.068 C 
ENDROOT
BRANCH   2  15
ATOM      1 CL   UNL     1      -6.870   1.671  24.695  0.00  0.00    -0.083 Cl
ATOM     15  C   UNL     1      -2.889   1.868  24.926  0.00  0.00    +0.067 A 
ATOM     16  C   UNL     1      -4.192   1.427  24.689  0.00  0.00    +0.048 A 
ATOM     17  C   UNL     1      -2.671   3.129  25.479  0.00  0.00    +0.028 A 
ATOM     18  C   UNL     1      -5.274   2.249  25.004  0.00  0.00    +0.046 A 
ATOM     19  C   UNL     1      -3.752   3.951  25.793  0.00  0.00    +0.007 A 
ATOM     20  C   UNL     1      -5.055   3.510  25.556  0.00  0.00    -0.032 A 
ATOM     21  C   UNL     1      -6.187   4.419  25.908  0.00  0.00    +0.045 C 
ENDBRANCH   2  15
BRANCH   8   5
ATOM      5  C   UNL     1       1.304   0.043  22.955  0.00  0.00    +0.047 C 
ATOM      6  C   UNL     1       2.260   1.252  23.018  0.00  0.00    +0.035 C 
ATOM      7  C   UNL     1       3.678   0.668  22.991  0.00  0.00    +0.074 C 
ATOM      9  C   UNL     1       2.174  -1.081  23.438  0.00  0.00    -0.021 C 
ATOM     10  C   UNL     1       3.466  -0.737  23.453  0.00  0.00    -0.012 C 
BRANCH   7   3
ATOM      3  N   UNL     1       4.247   0.650  21.670  0.00  0.00    -0.324 NA
ATOM     22  H   UNL     1       4.852   1.459  21.540  0.00  0.00    +0.119 HD
ATOM     23  H   UNL     1       4.845  -0.168  21.557  0.00  0.00    +0.119 HD
ENDBRANCH   7   3
ENDBRANCH   8   5
TORSDOF 3
ENDMDL
MODEL 4
REMARK VINA RESULT:      -1.6     15.022     16.239
REMARK  Name = 40777644
REMARK  6 active torsions:
REMARK  status: ('A' for Active; 'I' for Inactive)
REMARK    1  A    between atoms: N_2  and  C_15
REMARK    2  A    between atoms: N_3  and  C_7
REMARK    3  A    between atoms: C_5  and  C_8
REMARK    4  A    between atoms: C_11  and  C_13
REMARK    5  A    between atoms: C_12  and  C_14
REMARK    6  A    between atoms: C_20  and  C_21
REMARK                            x       y       z     vdW  Elec       q    Type
REMARK                         _______ _______ _______ _____ _____    ______ ____
ROOT
ATOM      2  N   UNL     1      -0.144   0.182  23.866  0.00  0.00    -0.236 N 
ATOM      4  N   UNL     1      -0.759  -1.002  24.027  0.00  0.00    -0.171 NA
ATOM      8  C   UNL     1      -2.229   0.737  24.204  0.00  0.00    +0.003 A 
ATOM     11  C   UNL     1      -0.980   1.255  23.963  0.00  0.00    +0.046 A 
ATOM     12  C   UNL     1      -2.033  -0.657  24.233  0.00  0.00    +0.064 A 
ATOM     13  C   UNL     1      -0.525   2.653  23.821  0.00  0.00    +0.066 C 
ATOM     14  C   UNL     1      -3.041  -1.708  24.458  0.00  0.00    +0.068 C 
ENDROOT
BRANCH   2  15
ATOM      1 CL   UNL     1       4.316  -2.298  23.880  0.00  0.00    -0.083 Cl
ATOM     15  C   UNL     1       1.229   0.221  23.624  0.00  0.00    +0.067 A 
ATOM     16  C   UNL     1       2.010  -0.915  23.840  0.00  0.00    +0.048 A 
ATOM     17  C   UNL     1       1.823   1.398  23.166  0.00  0.00    +0.028 A 
ATOM     18  C   UNL     1       3.383  -0.874  23.600  0.00  0.00    +0.046 A 
ATOM     19  C   UNL     1       3.196   1.438  22.926  0.00  0.00    +0.007 A 
ATOM     20  C   UNL     1       3.976   0.302  23.142  0.00  0.00    -0.032 A 
ATOM     21  C   UNL     1       5.443   0.386  22.872  0.00  0.00    +0.045 C 
ENDBRANCH   2  15
BRANCH   8   5
ATOM      5  C   UNL     1      -3.522   1.495  24.396  0.00  0.00    +0.047 C 
ATOM      6  C   UNL     1      -3.578   2.278  25.725  0.00  0.00    +0.035 C 
ATOM      7  C   UNL     1      -4.375   3.554  25.426  0.00  0.00    +0.074 C 
ATOM      9  C   UNL     1      -3.777   2.569  23.379  0.00  0.00    -0.021 C 
ATOM     10  C   UNL     1      -4.245   3.687  23.944  0.00  0.00    -0.012 C 
BRANCH   7   3
ATOM      3  N   UNL     1      -5.768   3.433  25.769  0.00  0.00    -0.324 NA
ATOM     22  H   UNL     1      -6.198   4.356  25.809  0.00  0.00    +0.119 HD
ATOM     23  H   UNL     1      -6.265   2.923  25.039  0.00  0.00    +0.119 HD
ENDBRANCH   7   3
ENDBRANCH   8   5
TORSDOF 3
ENDMDL
MODEL 5
REMARK VINA RESULT:      -1.4     15.243     17.430
REMARK  Name = 40777644
REMARK  6 active torsions:
REMARK  status: ('A' for Active; 'I' for Inactive)
REMARK    1  A    between atoms: N_2  and  C_15
REMARK    2  A    between atoms: N_3  and  C_7
REMARK    3  A    between atoms: C_5  and  C_8
REMARK    4  A    between atoms: C_11  and  C_13
REMARK    5  A    between atoms: C_12  and  C_14
REMARK    6  A    between atoms: C_20  and  C_21
REMARK                            x       y       z     vdW  Elec       q    Type
REMARK                         _______ _______ _______ _____ _____    ______ ____
ROOT
ATOM      2  N   UNL     1      -1.078   0.747  23.723  0.00  0.00    -0.236 N 
ATOM      4  N   UNL     1      -0.902   0.035  22.597  0.00  0.00    -0.171 NA
ATOM      8  C   UNL     1       1.094   0.602  23.550  0.00  0.00    +0.003 A 
ATOM     11  C   UNL     1       0.087   1.111  24.332  0.00  0.00    +0.046 A 
ATOM     12  C   UNL     1       0.427  -0.051  22.496  0.00  0.00    +0.064 A 
ATOM     13  C   UNL     1       0.137   1.897  25.582  0.00  0.00    +0.066 C 
ATOM     14  C   UNL     1       1.022  -0.774  21.359  0.00  0.00    +0.068 C 
ENDROOT
BRANCH   2  15
ATOM      1 CL   UNL     1      -4.531   4.319  24.890  0.00  0.00    -0.083 Cl
ATOM     15  C   UNL     1      -2.369   1.042  24.161  0.00  0.00    +0.067 A 
ATOM     16  C   UNL     1      -2.775   2.370  24.295  0.00  0.00    +0.048 A 
ATOM     17  C   UNL     1      -3.255   0.009  24.467  0.00  0.00    +0.028 A 
ATOM     18  C   UNL     1      -4.065   2.665  24.735  0.00  0.00    +0.046 A 
ATOM     19  C   UNL     1      -4.545   0.303  24.908  0.00  0.00    +0.007 A 
ATOM     20  C   UNL     1      -4.950   1.632  25.041  0.00  0.00    -0.032 A 
ATOM     21  C   UNL     1      -6.341   1.905  25.514  0.00  0.00    +0.045 C 
ENDBRANCH   2  15
BRANCH   8   5
ATOM      5  C   UNL     1       2.585   0.719  23.773  0.00  0.00    +0.047 C 
ATOM      6  C   UNL     1       3.315  -0.640  23.736  0.00  0.00    +0.035 C 
ATOM      7  C   UNL     1       4.689  -0.361  23.112  0.00  0.00    +0.074 C 
ATOM      9  C   UNL     1       3.316   1.506  22.724  0.00  0.00    -0.021 C 
ATOM     10  C   UNL     1       4.463   0.916  22.371  0.00  0.00    -0.012 C 
BRANCH   7   3
ATOM      3  N   UNL     1       5.717  -0.158  24.099  0.00  0.00    -0.324 NA
ATOM     22  H   UNL     1       6.567  -0.645  23.821  0.00  0.00    +0.119 HD
ATOM     23  H   UNL     1       5.963   0.830  24.150  0.00  0.00    +0.119 HD
ENDBRANCH   7   3
ENDBRANCH   8   5
TORSDOF 3
ENDMDL
MODEL 6
REMARK VINA RESULT:      -0.6     15.193     16.573
REMARK  Name = 40777644
REMARK  6 active torsions:
REMARK  status: ('A' for Active; 'I' for Inactive)
REMARK    1  A    between atoms: N_2  and  C_15
REMARK    2  A    between atoms: N_3  and  C_7
REMARK    3  A    between atoms: C_5  and  C_8
REMARK    4  A    between atoms: C_11  and  C_13
REMARK    5  A    between atoms: C_12  and  C_14
REMARK    6  A    between atoms: C_20  and  C_21
REMARK                            x       y       z     vdW  Elec       q    Type
REMARK                         _______ _______ _______ _____ _____    ______ ____
ROOT
ATOM      2  N   UNL     1      -0.581   1.808  24.122  0.00  0.00    -0.236 N 
ATOM      4  N   UNL     1      -0.409   3.073  24.542  0.00  0.00    -0.171 NA
ATOM      8  C   UNL     1      -2.623   2.550  24.346  0.00  0.00    +0.003 A 
ATOM     11  C   UNL     1      -1.889   1.446  23.988  0.00  0.00    +0.046 A 
ATOM     12  C   UNL     1      -1.660   3.522  24.678  0.00  0.00    +0.064 A 
ATOM     13  C   UNL     1      -2.317   0.106  23.540  0.00  0.00    +0.066 C 
ATOM     14  C   UNL     1      -1.888   4.905  25.131  0.00  0.00    +0.068 C 
ENDROOT
BRANCH   2  15
ATOM      1 CL   UNL     1       4.277   1.517  22.589  0.00  0.00    -0.083 Cl
ATOM     15  C   UNL     1       0.531   1.005  23.870  0.00  0.00    +0.067 A 
ATOM     16  C   UNL     1       1.717   1.578  23.411  0.00  0.00    +0.048 A 
ATOM     17  C   UNL     1       0.457  -0.373  24.076  0.00  0.00    +0.028 A 
ATOM     18  C   UNL     1       2.828   0.773  23.157  0.00  0.00    +0.046 A 
ATOM     19  C   UNL     1       1.567  -1.177  23.822  0.00  0.00    +0.007 A 
ATOM     20  C   UNL     1       2.753  -0.604  23.363  0.00  0.00    -0.032 A 
ATOM     21  C   UNL     1       3.921  -1.499  23.104  0.00  0.00    +0.045 C 
ENDBRANCH   2  15
BRANCH   8   5
ATOM      5  C   UNL     1      -4.128   2.690  24.374  0.00  0.00    +0.047 C 
ATOM      6  C   UNL     1      -4.859   1.355  24.626  0.00  0.00    +0.035 C 
ATOM      7  C   UNL     1      -6.101   1.707  25.455  0.00  0.00    +0.074 C 
ATOM      9  C   UNL     1      -4.657   3.560  25.476  0.00  0.00    -0.021 C 
ATOM     10  C   UNL     1      -5.734   3.023  26.060  0.00  0.00    -0.012 C 
BRANCH   7   3
ATOM      3  N   UNL     1      -7.281   1.872  24.647  0.00  0.00    -0.324 NA
ATOM     22  H   UNL     1      -7.346   2.834  24.318  0.00  0.00    +0.119 HD
ATOM     23  H   UNL     1      -7.215   1.293  23.810  0.00  0.00    +0.119 HD
ENDBRANCH   7   3
ENDBRANCH   8   5
TORSDOF 3
ENDMDL
