MODEL 1
REMARK VINA RESULT:      -6.0      0.000      0.000
REMARK  Name = 56775233
REMARK  3 active torsions:
REMARK  status: ('A' for Active; 'I' for Inactive)
REMARK    1  A    between atoms: N_5  and  C_12
REMARK    2  A    between atoms: C_8  and  C_12
REMARK    3  A    between atoms: C_18  and  C_19
REMARK                            x       y       z     vdW  Elec       q    Type
REMARK                         _______ _______ _______ _____ _____    ______ ____
ROOT
ATOM      1  O   UNL     1       0.351   2.384  24.019  0.00  0.00    -0.364 OA
ATOM      2  O   UNL     1       0.794  -0.918  22.766  0.00  0.00    -0.273 OA
ATOM      3  O   UNL     1      -3.212   4.746  26.204  0.00  0.00    -0.267 OA
ATOM      5  N   UNL     1      -0.287  -0.233  24.710  0.00  0.00    -0.292 N 
ATOM      6  N   UNL     1      -2.142   2.763  25.644  0.00  0.00    -0.291 N 
ATOM      9  C   UNL     1      -0.724   0.873  25.552  0.00  0.00    +0.124 C 
ATOM     13  C   UNL     1       0.121   2.136  25.403  0.00  0.00    +0.158 C 
ATOM     14  C   UNL     1      -2.132   1.369  25.206  0.00  0.00    +0.133 C 
ATOM     15  C   UNL     1      -0.793   3.229  25.945  0.00  0.00    +0.141 C 
ATOM     16  C   UNL     1       0.509  -0.041  23.584  0.00  0.00    +0.242 C 
ATOM     17  C   UNL     1       1.113   1.345  23.446  0.00  0.00    +0.256 C 
ATOM     18  C   UNL     1      -3.250   3.575  25.835  0.00  0.00    +0.285 C 
ENDROOT
BRANCH  18  19
ATOM      4  O   UNL     1      -5.471   2.963  26.606  0.00  0.00    -0.350 OA
ATOM      7  N   UNL     1      -6.648   2.369  26.170  0.00  0.00    -0.086 NA
ATOM     19  C   UNL     1      -4.575   2.985  25.586  0.00  0.00    +0.222 A 
ATOM     20  C   UNL     1      -5.131   2.415  24.472  0.00  0.00    +0.077 A 
ATOM     21  C   UNL     1      -6.421   2.050  24.892  0.00  0.00    +0.157 A 
ENDBRANCH  18  19
BRANCH   5  12
ATOM     12  C   UNL     1      -0.854  -1.544  24.996  0.00  0.00    +0.111 C 
BRANCH  12   8
ATOM      8  C   UNL     1      -2.242  -1.657  24.466  0.00  0.00    +0.006 C 
ATOM     10  C   UNL     1      -2.963  -2.969  24.576  0.00  0.00    +0.005 C 
ATOM     11  C   UNL     1      -3.384  -1.806  25.428  0.00  0.00    +0.005 C 
ENDBRANCH  12   8
ENDBRANCH   5  12
TORSDOF 3
ENDMDL
MODEL 2
REMARK VINA RESULT:      -4.9      1.718      5.069
REMARK  Name = 56775233
REMARK  3 active torsions:
REMARK  status: ('A' for Active; 'I' for Inactive)
REMARK    1  A    between atoms: N_5  and  C_12
REMARK    2  A    between atoms: C_8  and  C_12
REMARK    3  A    between atoms: C_18  and  C_19
REMARK                            x       y       z     vdW  Elec       q    Type
REMARK                         _______ _______ _______ _____ _____    ______ ____
ROOT
ATOM      1  O   UNL     1      -0.309   3.145  25.478  0.00  0.00    -0.364 OA
ATOM      2  O   UNL     1      -3.206   5.091  26.172  0.00  0.00    -0.273 OA
ATOM      3  O   UNL     1       0.500  -1.374  24.070  0.00  0.00    -0.267 OA
ATOM      5  N   UNL     1      -2.876   3.527  24.481  0.00  0.00    -0.292 N 
ATOM      6  N   UNL     1      -0.881   0.488  24.210  0.00  0.00    -0.291 N 
ATOM      9  C   UNL     1      -1.991   2.547  23.865  0.00  0.00    +0.124 C 
ATOM     13  C   UNL     1      -0.507   2.816  24.106  0.00  0.00    +0.158 C 
ATOM     14  C   UNL     1      -2.172   1.136  24.433  0.00  0.00    +0.133 C 
ATOM     15  C   UNL     1       0.138   1.462  23.836  0.00  0.00    +0.141 C 
ATOM     16  C   UNL     1      -2.464   4.346  25.530  0.00  0.00    +0.242 C 
ATOM     17  C   UNL     1      -0.971   4.346  25.804  0.00  0.00    +0.256 C 
ATOM     18  C   UNL     1      -0.604  -0.870  24.264  0.00  0.00    +0.285 C 
ENDROOT
BRANCH  18  19
ATOM      4  O   UNL     1      -2.540  -1.471  25.603  0.00  0.00    -0.350 OA
ATOM      7  N   UNL     1      -3.519  -2.448  25.720  0.00  0.00    -0.086 NA
ATOM     19  C   UNL     1      -1.720  -1.780  24.566  0.00  0.00    +0.222 A 
ATOM     20  C   UNL     1      -2.133  -2.949  23.985  0.00  0.00    +0.077 A 
ATOM     21  C   UNL     1      -3.255  -3.321  24.743  0.00  0.00    +0.157 A 
ENDBRANCH  18  19
BRANCH   5  12
ATOM     12  C   UNL     1      -4.272   3.506  24.068  0.00  0.00    +0.111 C 
BRANCH  12   8
ATOM      8  C   UNL     1      -5.142   2.939  25.138  0.00  0.00    +0.006 C 
ATOM     10  C   UNL     1      -6.250   2.001  24.760  0.00  0.00    +0.005 C 
ATOM     11  C   UNL     1      -5.036   1.480  25.472  0.00  0.00    +0.005 C 
ENDBRANCH  12   8
ENDBRANCH   5  12
TORSDOF 3
ENDMDL
MODEL 3
REMARK VINA RESULT:      -4.3     15.444     17.662
REMARK  Name = 56775233
REMARK  3 active torsions:
REMARK  status: ('A' for Active; 'I' for Inactive)
REMARK    1  A    between atoms: N_5  and  C_12
REMARK    2  A    between atoms: C_8  and  C_12
REMARK    3  A    between atoms: C_18  and  C_19
REMARK                            x       y       z     vdW  Elec       q    Type
REMARK                         _______ _______ _______ _____ _____    ______ ____
ROOT
ATOM      1  O   UNL     1      -7.864 -10.781  12.185  0.00  0.00    -0.364 OA
ATOM      2  O   UNL     1      -6.889 -10.102   8.831  0.00  0.00    -0.273 OA
ATOM      3  O   UNL     1      -5.664 -10.699  16.453  0.00  0.00    -0.267 OA
ATOM      5  N   UNL     1      -6.287  -8.975  10.776  0.00  0.00    -0.292 N 
ATOM      6  N   UNL     1      -5.828  -9.998  14.244  0.00  0.00    -0.291 N 
ATOM      9  C   UNL     1      -6.375  -8.891  12.228  0.00  0.00    +0.124 C 
ATOM     13  C   UNL     1      -7.639  -9.520  12.809  0.00  0.00    +0.158 C 
ATOM     14  C   UNL     1      -5.260  -9.663  12.940  0.00  0.00    +0.133 C 
ATOM     15  C   UNL     1      -7.267  -9.761  14.267  0.00  0.00    +0.141 C 
ATOM     16  C   UNL     1      -7.024  -9.898  10.038  0.00  0.00    +0.242 C 
ATOM     17  C   UNL     1      -8.117 -10.618  10.808  0.00  0.00    +0.256 C 
ATOM     18  C   UNL     1      -5.145 -10.425  15.373  0.00  0.00    +0.285 C 
ENDROOT
BRANCH  18  19
ATOM      4  O   UNL     1      -2.949 -10.447  16.412  0.00  0.00    -0.350 OA
ATOM      7  N   UNL     1      -1.602 -10.593  16.105  0.00  0.00    -0.086 NA
ATOM     19  C   UNL     1      -3.682 -10.552  15.274  0.00  0.00    +0.222 A 
ATOM     20  C   UNL     1      -2.849 -10.765  14.207  0.00  0.00    +0.077 A 
ATOM     21  C   UNL     1      -1.568 -10.781  14.782  0.00  0.00    +0.157 A 
ENDBRANCH  18  19
BRANCH   5  12
ATOM     12  C   UNL     1      -5.268  -8.162  10.128  0.00  0.00    +0.111 C 
BRANCH  12   8
ATOM      8  C   UNL     1      -4.193  -9.012   9.542  0.00  0.00    +0.006 C 
ATOM     10  C   UNL     1      -2.805  -8.930  10.105  0.00  0.00    +0.005 C 
ATOM     11  C   UNL     1      -3.641 -10.153  10.344  0.00  0.00    +0.005 C 
ENDBRANCH  12   8
ENDBRANCH   5  12
TORSDOF 3
ENDMDL
MODEL 4
REMARK VINA RESULT:      -3.7     15.807     18.197
REMARK  Name = 56775233
REMARK  3 active torsions:
REMARK  status: ('A' for Active; 'I' for Inactive)
REMARK    1  A    between atoms: N_5  and  C_12
REMARK    2  A    between atoms: C_8  and  C_12
REMARK    3  A    between atoms: C_18  and  C_19
REMARK                            x       y       z     vdW  Elec       q    Type
REMARK                         _______ _______ _______ _____ _____    ______ ____
ROOT
ATOM      1  O   UNL     1      -7.657 -10.593   9.409  0.00  0.00    -0.364 OA
ATOM      2  O   UNL     1      -4.343 -10.781   8.124  0.00  0.00    -0.273 OA
ATOM      3  O   UNL     1      -9.591  -9.791  13.730  0.00  0.00    -0.267 OA
ATOM      5  N   UNL     1      -5.204  -9.319   9.716  0.00  0.00    -0.292 N 
ATOM      6  N   UNL     1      -7.831  -9.586  12.229  0.00  0.00    -0.291 N 
ATOM      9  C   UNL     1      -6.349  -8.905  10.518  0.00  0.00    +0.124 C 
ATOM     13  C   UNL     1      -7.698  -9.255   9.897  0.00  0.00    +0.158 C 
ATOM     14  C   UNL     1      -6.412  -9.610  11.876  0.00  0.00    +0.133 C 
ATOM     15  C   UNL     1      -8.650  -9.203  11.085  0.00  0.00    +0.141 C 
ATOM     16  C   UNL     1      -5.301 -10.301   8.734  0.00  0.00    +0.242 C 
ATOM     17  C   UNL     1      -6.714 -10.715   8.367  0.00  0.00    +0.256 C 
ATOM     18  C   UNL     1      -8.389  -9.820  13.477  0.00  0.00    +0.285 C 
ENDROOT
BRANCH  18  19
ATOM      4  O   UNL     1      -7.998 -10.322  15.821  0.00  0.00    -0.350 OA
ATOM      7  N   UNL     1      -6.972 -10.582  16.721  0.00  0.00    -0.086 NA
ATOM     19  C   UNL     1      -7.470 -10.116  14.588  0.00  0.00    +0.222 A 
ATOM     20  C   UNL     1      -6.106 -10.233  14.644  0.00  0.00    +0.077 A 
ATOM     21  C   UNL     1      -5.852 -10.523  15.995  0.00  0.00    +0.157 A 
ENDBRANCH  18  19
BRANCH   5  12
ATOM     12  C   UNL     1      -3.905  -8.779  10.092  0.00  0.00    +0.111 C 
BRANCH  12   8
ATOM      8  C   UNL     1      -2.969  -9.865  10.500  0.00  0.00    +0.006 C 
ATOM     10  C   UNL     1      -1.654  -9.502  11.125  0.00  0.00    +0.005 C 
ATOM     11  C   UNL     1      -2.736 -10.123  11.959  0.00  0.00    +0.005 C 
ENDBRANCH  12   8
ENDBRANCH   5  12
TORSDOF 3
ENDMDL
MODEL 5
REMARK VINA RESULT:      -3.5      1.779      6.361
REMARK  Name = 56775233
REMARK  3 active torsions:
REMARK  status: ('A' for Active; 'I' for Inactive)
REMARK    1  A    between atoms: N_5  and  C_12
REMARK    2  A    between atoms: C_8  and  C_12
REMARK    3  A    between atoms: C_18  and  C_19
REMARK                            x       y       z     vdW  Elec       q    Type
REMARK                         _______ _______ _______ _____ _____    ______ ____
ROOT
ATOM      1  O   UNL     1      -4.798   0.491  24.446  0.00  0.00    -0.364 OA
ATOM      2  O   UNL     1      -5.353   4.004  24.588  0.00  0.00    -0.273 OA
ATOM      3  O   UNL     1      -0.931  -2.335  24.117  0.00  0.00    -0.267 OA
ATOM      5  N   UNL     1      -3.666   2.756  25.594  0.00  0.00    -0.292 N 
ATOM      6  N   UNL     1      -1.920  -0.315  24.697  0.00  0.00    -0.291 N 
ATOM      9  C   UNL     1      -3.049   1.451  25.791  0.00  0.00    +0.124 C 
ATOM     13  C   UNL     1      -4.011   0.279  25.615  0.00  0.00    +0.158 C 
ATOM     14  C   UNL     1      -1.957   1.145  24.762  0.00  0.00    +0.133 C 
ATOM     15  C   UNL     1      -3.079  -0.900  25.362  0.00  0.00    +0.141 C 
ATOM     16  C   UNL     1      -4.860   2.917  24.897  0.00  0.00    +0.242 C 
ATOM     17  C   UNL     1      -5.612   1.633  24.594  0.00  0.00    +0.256 C 
ATOM     18  C   UNL     1      -0.920  -1.106  24.152  0.00  0.00    +0.285 C 
ENDROOT
BRANCH  18  19
ATOM      4  O   UNL     1       0.722   0.683  24.210  0.00  0.00    -0.350 OA
ATOM      7  N   UNL     1       1.820   1.174  23.515  0.00  0.00    -0.086 NA
ATOM     19  C   UNL     1       0.250  -0.423  23.579  0.00  0.00    +0.222 A 
ATOM     20  C   UNL     1       1.014  -0.682  22.472  0.00  0.00    +0.077 A 
ATOM     21  C   UNL     1       1.975   0.343  22.481  0.00  0.00    +0.157 A 
ENDBRANCH  18  19
BRANCH   5  12
ATOM     12  C   UNL     1      -2.897   3.919  26.017  0.00  0.00    +0.111 C 
BRANCH  12   8
ATOM      8  C   UNL     1      -2.102   4.478  24.887  0.00  0.00    +0.006 C 
ATOM     10  C   UNL     1      -1.322   5.742  25.095  0.00  0.00    +0.005 C 
ATOM     11  C   UNL     1      -0.604   4.432  24.952  0.00  0.00    +0.005 C 
ENDBRANCH  12   8
ENDBRANCH   5  12
TORSDOF 3
ENDMDL
MODEL 6
REMARK VINA RESULT:      -3.2      1.978      4.162
REMARK  Name = 56775233
REMARK  3 active torsions:
REMARK  status: ('A' for Active; 'I' for Inactive)
REMARK    1  A    between atoms: N_5  and  C_12
REMARK    2  A    between atoms: C_8  and  C_12
REMARK    3  A    between atoms: C_18  and  C_19
REMARK                            x       y       z     vdW  Elec       q    Type
REMARK                         _______ _______ _______ _____ _____    ______ ____
ROOT
ATOM      1  O   UNL     1      -3.926  -0.869  25.952  0.00  0.00    -0.364 OA
ATOM      2  O   UNL     1      -1.102  -2.918  25.253  0.00  0.00    -0.273 OA
ATOM      3  O   UNL     1      -4.948   3.798  25.475  0.00  0.00    -0.267 OA
ATOM      5  N   UNL     1      -1.961  -1.152  24.005  0.00  0.00    -0.292 N 
ATOM      6  N   UNL     1      -3.728   1.919  24.864  0.00  0.00    -0.291 N 
ATOM      9  C   UNL     1      -2.956  -0.093  23.891  0.00  0.00    +0.124 C 
ATOM     13  C   UNL     1      -4.248  -0.374  24.655  0.00  0.00    +0.158 C 
ATOM     14  C   UNL     1      -2.490   1.234  24.498  0.00  0.00    +0.133 C 
ATOM     15  C   UNL     1      -4.867   1.010  24.807  0.00  0.00    +0.141 C 
ATOM     16  C   UNL     1      -1.988  -2.091  25.033  0.00  0.00    +0.242 C 
ATOM     17  C   UNL     1      -3.261  -2.109  25.861  0.00  0.00    +0.256 C 
ATOM     18  C   UNL     1      -3.884   3.262  25.171  0.00  0.00    +0.285 C 
ENDROOT
BRANCH  18  19
ATOM      4  O   UNL     1      -1.471   3.515  25.051  0.00  0.00    -0.350 OA
ATOM      7  N   UNL     1      -0.481   4.487  25.010  0.00  0.00    -0.086 NA
ATOM     19  C   UNL     1      -2.687   4.115  25.117  0.00  0.00    +0.222 A 
ATOM     20  C   UNL     1      -2.529   5.476  25.121  0.00  0.00    +0.077 A 
ATOM     21  C   UNL     1      -1.137   5.651  25.053  0.00  0.00    +0.157 A 
ENDBRANCH  18  19
BRANCH   5  12
ATOM     12  C   UNL     1      -0.829  -1.095  23.090  0.00  0.00    +0.111 C 
BRANCH  12   8
ATOM      8  C   UNL     1       0.364  -0.488  23.747  0.00  0.00    +0.006 C 
ATOM     10  C   UNL     1       1.523  -0.051  22.900  0.00  0.00    +0.005 C 
ATOM     11  C   UNL     1       0.643   0.973  23.554  0.00  0.00    +0.005 C 
ENDBRANCH  12   8
ENDBRANCH   5  12
TORSDOF 3
ENDMDL
MODEL 7
REMARK VINA RESULT:      -3.1      2.183      4.333
REMARK  Name = 56775233
REMARK  3 active torsions:
REMARK  status: ('A' for Active; 'I' for Inactive)
REMARK    1  A    between atoms: N_5  and  C_12
REMARK    2  A    between atoms: C_8  and  C_12
REMARK    3  A    between atoms: C_18  and  C_19
REMARK                            x       y       z     vdW  Elec       q    Type
REMARK                         _______ _______ _______ _____ _____    ______ ____
ROOT
ATOM      1  O   UNL     1      -1.224  -1.543  24.677  0.00  0.00    -0.364 OA
ATOM      2  O   UNL     1      -4.355  -2.227  23.129  0.00  0.00    -0.273 OA
ATOM      3  O   UNL     1       0.910   2.371  26.461  0.00  0.00    -0.267 OA
ATOM      5  N   UNL     1      -3.895  -0.809  24.916  0.00  0.00    -0.292 N 
ATOM      6  N   UNL     1      -1.007   1.204  25.863  0.00  0.00    -0.291 N 
ATOM      9  C   UNL     1      -2.894  -0.220  25.796  0.00  0.00    +0.124 C 
ATOM     13  C   UNL     1      -1.635  -1.069  25.957  0.00  0.00    +0.158 C 
ATOM     14  C   UNL     1      -2.338   1.106  25.266  0.00  0.00    +0.133 C 
ATOM     15  C   UNL     1      -0.602  -0.066  26.456  0.00  0.00    +0.141 C 
ATOM     16  C   UNL     1      -3.580  -1.794  23.984  0.00  0.00    +0.242 C 
ATOM     17  C   UNL     1      -2.197  -2.403  24.128  0.00  0.00    +0.256 C 
ATOM     18  C   UNL     1      -0.208   2.333  25.950  0.00  0.00    +0.285 C 
ENDROOT
BRANCH  18  19
ATOM      4  O   UNL     1      -1.835   4.137  25.987  0.00  0.00    -0.350 OA
ATOM      7  N   UNL     1      -2.177   5.306  25.319  0.00  0.00    -0.086 NA
ATOM     19  C   UNL     1      -0.742   3.588  25.397  0.00  0.00    +0.222 A 
ATOM     20  C   UNL     1      -0.345   4.370  24.345  0.00  0.00    +0.077 A 
ATOM     21  C   UNL     1      -1.273   5.424  24.342  0.00  0.00    +0.157 A 
ENDBRANCH  18  19
BRANCH   5  12
ATOM     12  C   UNL     1      -5.222  -0.209  24.933  0.00  0.00    +0.111 C 
BRANCH  12   8
ATOM      8  C   UNL     1      -5.140   1.279  24.980  0.00  0.00    +0.006 C 
ATOM     10  C   UNL     1      -6.371   2.090  24.702  0.00  0.00    +0.005 C 
ATOM     11  C   UNL     1      -5.821   2.015  26.097  0.00  0.00    +0.005 C 
ENDBRANCH  12   8
ENDBRANCH   5  12
TORSDOF 3
ENDMDL
MODEL 8
REMARK VINA RESULT:      -2.5      1.654      1.988
REMARK  Name = 56775233
REMARK  3 active torsions:
REMARK  status: ('A' for Active; 'I' for Inactive)
REMARK    1  A    between atoms: N_5  and  C_12
REMARK    2  A    between atoms: C_8  and  C_12
REMARK    3  A    between atoms: C_18  and  C_19
REMARK                            x       y       z     vdW  Elec       q    Type
REMARK                         _______ _______ _______ _____ _____    ______ ____
ROOT
ATOM      1  O   UNL     1       0.180   0.723  23.574  0.00  0.00    -0.364 OA
ATOM      2  O   UNL     1      -1.133  -2.579  23.764  0.00  0.00    -0.273 OA
ATOM      3  O   UNL     1      -1.326   5.070  24.949  0.00  0.00    -0.267 OA
ATOM      5  N   UNL     1      -1.233  -0.881  25.352  0.00  0.00    -0.292 N 
ATOM      6  N   UNL     1      -1.361   2.756  25.151  0.00  0.00    -0.291 N 
ATOM      9  C   UNL     1      -0.922   0.499  25.701  0.00  0.00    +0.124 C 
ATOM     13  C   UNL     1       0.279   1.071  24.952  0.00  0.00    +0.158 C 
ATOM     14  C   UNL     1      -2.043   1.476  25.333  0.00  0.00    +0.133 C 
ATOM     15  C   UNL     1       0.085   2.577  25.085  0.00  0.00    +0.141 C 
ATOM     16  C   UNL     1      -0.789  -1.467  24.169  0.00  0.00    +0.242 C 
ATOM     17  C   UNL     1       0.257  -0.675  23.406  0.00  0.00    +0.256 C 
ATOM     18  C   UNL     1      -1.939   4.016  25.105  0.00  0.00    +0.285 C 
ENDROOT
BRANCH  18  19
ATOM      4  O   UNL     1      -4.173   4.071  24.152  0.00  0.00    -0.350 OA
ATOM      7  N   UNL     1      -5.509   4.161  24.518  0.00  0.00    -0.086 NA
ATOM     19  C   UNL     1      -3.399   4.099  25.267  0.00  0.00    +0.222 A 
ATOM     20  C   UNL     1      -4.195   4.208  26.377  0.00  0.00    +0.077 A 
ATOM     21  C   UNL     1      -5.498   4.243  25.852  0.00  0.00    +0.157 A 
ENDBRANCH  18  19
BRANCH   5  12
ATOM     12  C   UNL     1      -2.173  -1.584  26.214  0.00  0.00    +0.111 C 
BRANCH  12   8
ATOM      8  C   UNL     1      -3.516  -1.687  25.576  0.00  0.00    +0.006 C 
ATOM     10  C   UNL     1      -4.271  -0.431  25.252  0.00  0.00    +0.005 C 
ATOM     11  C   UNL     1      -3.683  -1.260  24.148  0.00  0.00    +0.005 C 
ENDBRANCH  12   8
ENDBRANCH   5  12
TORSDOF 3
ENDMDL
MODEL 9
REMARK VINA RESULT:      -2.4      2.023      3.938
REMARK  Name = 56775233
REMARK  3 active torsions:
REMARK  status: ('A' for Active; 'I' for Inactive)
REMARK    1  A    between atoms: N_5  and  C_12
REMARK    2  A    between atoms: C_8  and  C_12
REMARK    3  A    between atoms: C_18  and  C_19
REMARK                            x       y       z     vdW  Elec       q    Type
REMARK                         _______ _______ _______ _____ _____    ______ ____
ROOT
ATOM      1  O   UNL     1      -3.445  -2.057  25.389  0.00  0.00    -0.364 OA
ATOM      2  O   UNL     1       0.104  -2.173  25.617  0.00  0.00    -0.273 OA
ATOM      3  O   UNL     1      -6.712   1.425  24.878  0.00  0.00    -0.267 OA
ATOM      5  N   UNL     1      -1.222  -0.826  24.260  0.00  0.00    -0.292 N 
ATOM      6  N   UNL     1      -4.546   0.627  24.624  0.00  0.00    -0.291 N 
ATOM      9  C   UNL     1      -2.564  -0.416  23.866  0.00  0.00    +0.124 C 
ATOM     13  C   UNL     1      -3.630  -1.484  24.097  0.00  0.00    +0.158 C 
ATOM     14  C   UNL     1      -3.092   0.768  24.682  0.00  0.00    +0.133 C 
ATOM     15  C   UNL     1      -4.926  -0.682  24.105  0.00  0.00    +0.141 C 
ATOM     16  C   UNL     1      -0.996  -1.874  25.148  0.00  0.00    +0.242 C 
ATOM     17  C   UNL     1      -2.209  -2.730  25.463  0.00  0.00    +0.256 C 
ATOM     18  C   UNL     1      -5.495   1.587  24.940  0.00  0.00    +0.285 C 
ENDROOT
BRANCH  18  19
ATOM      4  O   UNL     1      -5.924   3.858  25.686  0.00  0.00    -0.350 OA
ATOM      7  N   UNL     1      -5.266   5.021  26.066  0.00  0.00    -0.086 NA
ATOM     19  C   UNL     1      -5.009   2.907  25.373  0.00  0.00    +0.222 A 
ATOM     20  C   UNL     1      -3.746   3.411  25.536  0.00  0.00    +0.077 A 
ATOM     21  C   UNL     1      -3.966   4.729  25.968  0.00  0.00    +0.157 A 
ENDBRANCH  18  19
BRANCH   5  12
ATOM     12  C   UNL     1      -0.119   0.014  23.816  0.00  0.00    +0.111 C 
BRANCH  12   8
ATOM      8  C   UNL     1      -0.387   1.452  24.102  0.00  0.00    +0.006 C 
ATOM     10  C   UNL     1      -0.001   2.018  25.437  0.00  0.00    +0.005 C 
ATOM     11  C   UNL     1       0.766   2.407  24.207  0.00  0.00    +0.005 C 
ENDBRANCH  12   8
ENDBRANCH   5  12
TORSDOF 3
ENDMDL
MODEL 10
REMARK VINA RESULT:      -2.2      1.678      5.352
REMARK  Name = 56775233
REMARK  3 active torsions:
REMARK  status: ('A' for Active; 'I' for Inactive)
REMARK    1  A    between atoms: N_5  and  C_12
REMARK    2  A    between atoms: C_8  and  C_12
REMARK    3  A    between atoms: C_18  and  C_19
REMARK                            x       y       z     vdW  Elec       q    Type
REMARK                         _______ _______ _______ _____ _____    ______ ____
ROOT
ATOM      1  O   UNL     1      -4.070   3.747  26.026  0.00  0.00    -0.364 OA
ATOM      2  O   UNL     1      -6.393   1.144  26.730  0.00  0.00    -0.273 OA
ATOM      3  O   UNL     1       0.171   4.012  23.790  0.00  0.00    -0.267 OA
ATOM      5  N   UNL     1      -5.141   1.493  24.800  0.00  0.00    -0.292 N 
ATOM      6  N   UNL     1      -1.870   2.962  24.144  0.00  0.00    -0.291 N 
ATOM      9  C   UNL     1      -4.137   2.293  24.110  0.00  0.00    +0.124 C 
ATOM     13  C   UNL     1      -4.052   3.736  24.601  0.00  0.00    +0.158 C 
ATOM     14  C   UNL     1      -2.711   1.780  24.327  0.00  0.00    +0.133 C 
ATOM     15  C   UNL     1      -2.672   4.180  24.132  0.00  0.00    +0.141 C 
ATOM     16  C   UNL     1      -5.648   1.849  26.047  0.00  0.00    +0.242 C 
ATOM     17  C   UNL     1      -5.296   3.251  26.513  0.00  0.00    +0.256 C 
ATOM     18  C   UNL     1      -0.499   2.993  23.938  0.00  0.00    +0.285 C 
ENDROOT
BRANCH  18  19
ATOM      4  O   UNL     1       1.528   1.707  23.561  0.00  0.00    -0.350 OA
ATOM      7  N   UNL     1       2.003   0.402  23.561  0.00  0.00    -0.086 NA
ATOM     19  C   UNL     1       0.208   1.704  23.881  0.00  0.00    +0.222 A 
ATOM     20  C   UNL     1      -0.210   0.417  24.097  0.00  0.00    +0.077 A 
ATOM     21  C   UNL     1       0.947  -0.350  23.883  0.00  0.00    +0.157 A 
ENDBRANCH  18  19
BRANCH   5  12
ATOM     12  C   UNL     1      -5.479   0.206  24.208  0.00  0.00    +0.111 C 
BRANCH  12   8
ATOM      8  C   UNL     1      -4.262  -0.628  24.000  0.00  0.00    +0.006 C 
ATOM     10  C   UNL     1      -3.785  -1.518  25.110  0.00  0.00    +0.005 C 
ATOM     11  C   UNL     1      -4.404  -2.117  23.881  0.00  0.00    +0.005 C 
ENDBRANCH  12   8
ENDBRANCH   5  12
TORSDOF 3
ENDMDL
