MODEL 1
REMARK VINA RESULT:      -5.1      0.000      0.000
REMARK  Name = 11884352
REMARK  3 active torsions:
REMARK  status: ('A' for Active; 'I' for Inactive)
REMARK    1  A    between atoms: O_3  and  C_10
REMARK    2  A    between atoms: N_5  and  C_9
REMARK    3  A    between atoms: N_6  and  C_14
REMARK                            x       y       z     vdW  Elec       q    Type
REMARK                         _______ _______ _______ _____ _____    ______ ____
ROOT
ATOM      4  O   UNL     1      -4.696  -8.536  11.345  0.00  0.00    -0.252 OA
ATOM      5  N   UNL     1      -5.728 -10.234  10.162  0.00  0.00    -0.292 N 
ATOM      6  N   UNL     1      -4.636 -10.753  12.115  0.00  0.00    -0.269 N 
ATOM     13  C   UNL     1      -4.983  -9.726  11.234  0.00  0.00    +0.304 C 
ATOM     24  H   UNL     1      -5.877 -11.236  10.109  0.00  0.00    +0.151 HD
ATOM     26  H   UNL     1      -4.799 -11.687  11.757  0.00  0.00    +0.156 HD
ENDROOT
BRANCH   6  14
ATOM     14  C   UNL     1      -3.889 -10.654  13.313  0.00  0.00    +0.042 A 
ATOM     15  C   UNL     1      -4.520 -10.573  14.556  0.00  0.00    +0.003 A 
ATOM     16  C   UNL     1      -3.720 -10.474  15.720  0.00  0.00    -0.016 A 
ATOM     17  C   UNL     1      -2.506 -10.641  13.194  0.00  0.00    +0.024 A 
ATOM     18  C   UNL     1      -5.919 -10.586  14.684  0.00  0.00    +0.010 A 
ATOM     19  C   UNL     1      -2.322 -10.462  15.594  0.00  0.00    +0.008 A 
ATOM     20  C   UNL     1      -1.720 -10.544  14.338  0.00  0.00    +0.002 A 
ATOM     21  C   UNL     1      -4.344 -10.393  16.977  0.00  0.00    +0.008 A 
ATOM     22  C   UNL     1      -6.521 -10.503  15.939  0.00  0.00    +0.001 A 
ATOM     23  C   UNL     1      -5.735 -10.407  17.083  0.00  0.00    +0.001 A 
ENDBRANCH   6  14
BRANCH   5   9
ATOM      1  O   UNL     1      -8.459 -10.151   8.661  0.00  0.00    -0.369 OA
ATOM      2  O   UNL     1      -7.357  -7.302   8.608  0.00  0.00    -0.369 OA
ATOM      7  C   UNL     1      -7.212  -8.360   9.581  0.00  0.00    +0.172 C 
ATOM      8  C   UNL     1      -8.539  -9.092   9.630  0.00  0.00    +0.179 C 
ATOM      9  C   UNL     1      -6.236  -9.399   9.074  0.00  0.00    +0.131 C 
ATOM     10  C   UNL     1      -9.517  -8.022   9.208  0.00  0.00    +0.171 C 
ATOM     11  C   UNL     1      -7.118 -10.231   8.154  0.00  0.00    +0.185 C 
ATOM     12  C   UNL     1      -8.724  -7.253   8.174  0.00  0.00    +0.194 C 
BRANCH  10   3
ATOM      3  O   UNL     1     -10.719  -8.534   8.680  0.00  0.00    -0.387 OA
ATOM     25  H   UNL     1     -10.545  -9.435   8.355  0.00  0.00    +0.210 HD
ENDBRANCH  10   3
ENDBRANCH   5   9
TORSDOF 3
ENDMDL
MODEL 2
REMARK VINA RESULT:      -3.5     16.468     18.460
REMARK  Name = 11884352
REMARK  3 active torsions:
REMARK  status: ('A' for Active; 'I' for Inactive)
REMARK    1  A    between atoms: O_3  and  C_10
REMARK    2  A    between atoms: N_5  and  C_9
REMARK    3  A    between atoms: N_6  and  C_14
REMARK                            x       y       z     vdW  Elec       q    Type
REMARK                         _______ _______ _______ _____ _____    ______ ____
ROOT
ATOM      4  O   UNL     1      -0.059   0.367  24.753  0.00  0.00    -0.252 OA
ATOM      5  N   UNL     1       0.933   0.888  22.730  0.00  0.00    -0.292 N 
ATOM      6  N   UNL     1      -0.661   2.310  23.579  0.00  0.00    -0.269 N 
ATOM     13  C   UNL     1       0.048   1.123  23.791  0.00  0.00    +0.304 C 
ATOM     24  H   UNL     1       0.924   1.528  21.943  0.00  0.00    +0.151 HD
ATOM     26  H   UNL     1      -0.572   2.690  22.644  0.00  0.00    +0.156 HD
ENDROOT
BRANCH   6  14
ATOM     14  C   UNL     1      -1.643   2.894  24.413  0.00  0.00    +0.042 A 
ATOM     15  C   UNL     1      -2.892   2.295  24.590  0.00  0.00    +0.003 A 
ATOM     16  C   UNL     1      -3.836   2.927  25.436  0.00  0.00    -0.016 A 
ATOM     17  C   UNL     1      -1.309   4.086  25.041  0.00  0.00    +0.024 A 
ATOM     18  C   UNL     1      -3.237   1.089  23.958  0.00  0.00    +0.010 A 
ATOM     19  C   UNL     1      -3.492   4.132  26.069  0.00  0.00    +0.008 A 
ATOM     20  C   UNL     1      -2.236   4.707  25.873  0.00  0.00    +0.002 A 
ATOM     21  C   UNL     1      -5.095   2.334  25.624  0.00  0.00    +0.008 A 
ATOM     22  C   UNL     1      -4.492   0.515  24.155  0.00  0.00    +0.001 A 
ATOM     23  C   UNL     1      -5.420   1.136  24.987  0.00  0.00    +0.001 A 
ENDBRANCH   6  14
BRANCH   5   9
ATOM      1  O   UNL     1       3.882   0.517  21.791  0.00  0.00    -0.369 OA
ATOM      2  O   UNL     1       3.395  -1.578  23.961  0.00  0.00    -0.369 OA
ATOM      7  C   UNL     1       2.844  -0.256  23.775  0.00  0.00    +0.172 C 
ATOM      8  C   UNL     1       3.961   0.608  23.224  0.00  0.00    +0.179 C 
ATOM      9  C   UNL     1       1.813  -0.277  22.667  0.00  0.00    +0.131 C 
ATOM     10  C   UNL     1       5.196  -0.074  23.760  0.00  0.00    +0.171 C 
ATOM     11  C   UNL     1       2.690  -0.195  21.425  0.00  0.00    +0.185 C 
ATOM     12  C   UNL     1       4.805  -1.534  23.700  0.00  0.00    +0.194 C 
BRANCH  10   3
ATOM      3  O   UNL     1       6.358   0.196  23.011  0.00  0.00    -0.387 OA
ATOM     25  H   UNL     1       7.024  -0.478  23.237  0.00  0.00    +0.210 HD
ENDBRANCH  10   3
ENDBRANCH   5   9
TORSDOF 3
ENDMDL
MODEL 3
REMARK VINA RESULT:      -3.4     16.166     18.412
REMARK  Name = 11884352
REMARK  3 active torsions:
REMARK  status: ('A' for Active; 'I' for Inactive)
REMARK    1  A    between atoms: O_3  and  C_10
REMARK    2  A    between atoms: N_5  and  C_9
REMARK    3  A    between atoms: N_6  and  C_14
REMARK                            x       y       z     vdW  Elec       q    Type
REMARK                         _______ _______ _______ _____ _____    ______ ____
ROOT
ATOM      4  O   UNL     1      -0.250  -1.036  23.888  0.00  0.00    -0.252 OA
ATOM      5  N   UNL     1       1.128   0.425  22.742  0.00  0.00    -0.292 N 
ATOM      6  N   UNL     1      -0.939   1.160  23.424  0.00  0.00    -0.269 N 
ATOM     13  C   UNL     1      -0.055   0.077  23.405  0.00  0.00    +0.304 C 
ATOM     24  H   UNL     1       1.193   1.346  22.320  0.00  0.00    +0.151 HD
ATOM     26  H   UNL     1      -0.679   1.925  22.813  0.00  0.00    +0.156 HD
ENDROOT
BRANCH   6  14
ATOM     14  C   UNL     1      -2.233   1.214  23.994  0.00  0.00    +0.042 A 
ATOM     15  C   UNL     1      -2.654   2.322  24.732  0.00  0.00    +0.003 A 
ATOM     16  C   UNL     1      -3.960   2.320  25.279  0.00  0.00    -0.016 A 
ATOM     17  C   UNL     1      -3.060   0.118  23.786  0.00  0.00    +0.024 A 
ATOM     18  C   UNL     1      -1.823   3.434  24.946  0.00  0.00    +0.010 A 
ATOM     19  C   UNL     1      -4.792   1.209  25.066  0.00  0.00    +0.008 A 
ATOM     20  C   UNL     1      -4.344   0.116  24.324  0.00  0.00    +0.002 A 
ATOM     21  C   UNL     1      -4.395   3.429  26.023  0.00  0.00    +0.008 A 
ATOM     22  C   UNL     1      -2.271   4.527  25.687  0.00  0.00    +0.001 A 
ATOM     23  C   UNL     1      -3.555   4.525  26.225  0.00  0.00    +0.001 A 
ENDBRANCH   6  14
BRANCH   5   9
ATOM      1  O   UNL     1       4.160   0.862  22.159  0.00  0.00    -0.369 OA
ATOM      2  O   UNL     1       3.952  -1.729  23.765  0.00  0.00    -0.369 OA
ATOM      7  C   UNL     1       3.142  -0.533  23.780  0.00  0.00    +0.172 C 
ATOM      8  C   UNL     1       4.086   0.636  23.577  0.00  0.00    +0.179 C 
ATOM      9  C   UNL     1       2.246  -0.500  22.562  0.00  0.00    +0.131 C 
ATOM     10  C   UNL     1       5.388   0.103  24.125  0.00  0.00    +0.171 C 
ATOM     11  C   UNL     1       3.192   0.035  21.495  0.00  0.00    +0.185 C 
ATOM     12  C   UNL     1       5.336  -1.352  23.713  0.00  0.00    +0.194 C 
BRANCH  10   3
ATOM      3  O   UNL     1       6.525   0.758  23.613  0.00  0.00    -0.387 OA
ATOM     25  H   UNL     1       6.698   0.408  22.722  0.00  0.00    +0.210 HD
ENDBRANCH  10   3
ENDBRANCH   5   9
TORSDOF 3
ENDMDL
MODEL 4
REMARK VINA RESULT:      -2.2      1.671      2.455
REMARK  Name = 11884352
REMARK  3 active torsions:
REMARK  status: ('A' for Active; 'I' for Inactive)
REMARK    1  A    between atoms: O_3  and  C_10
REMARK    2  A    between atoms: N_5  and  C_9
REMARK    3  A    between atoms: N_6  and  C_14
REMARK                            x       y       z     vdW  Elec       q    Type
REMARK                         _______ _______ _______ _____ _____    ______ ____
ROOT
ATOM      4  O   UNL     1      -4.262  -8.108  10.465  0.00  0.00    -0.252 OA
ATOM      5  N   UNL     1      -4.646 -10.000   9.192  0.00  0.00    -0.292 N 
ATOM      6  N   UNL     1      -2.848  -9.976  10.622  0.00  0.00    -0.269 N 
ATOM     13  C   UNL     1      -3.937  -9.248  10.137  0.00  0.00    +0.304 C 
ATOM     24  H   UNL     1      -4.284 -10.912   8.931  0.00  0.00    +0.151 HD
ATOM     26  H   UNL     1      -2.636 -10.816  10.095  0.00  0.00    +0.156 HD
ENDROOT
BRANCH   6  14
ATOM     14  C   UNL     1      -1.892  -9.572  11.583  0.00  0.00    +0.042 A 
ATOM     15  C   UNL     1      -2.070  -9.842  12.942  0.00  0.00    +0.003 A 
ATOM     16  C   UNL     1      -1.080  -9.411  13.857  0.00  0.00    -0.016 A 
ATOM     17  C   UNL     1      -0.774  -8.895  11.114  0.00  0.00    +0.024 A 
ATOM     18  C   UNL     1      -3.199 -10.526  13.423  0.00  0.00    +0.010 A 
ATOM     19  C   UNL     1       0.049  -8.728  13.377  0.00  0.00    +0.008 A 
ATOM     20  C   UNL     1       0.200  -8.473  12.014  0.00  0.00    +0.002 A 
ATOM     21  C   UNL     1      -1.248  -9.678  15.226  0.00  0.00    +0.008 A 
ATOM     22  C   UNL     1      -3.350 -10.781  14.785  0.00  0.00    +0.001 A 
ATOM     23  C   UNL     1      -2.376 -10.359  15.685  0.00  0.00    +0.001 A 
ENDBRANCH   6  14
BRANCH   5   9
ATOM      1  O   UNL     1      -7.660 -10.781   9.364  0.00  0.00    -0.369 OA
ATOM      2  O   UNL     1      -7.575  -7.819   8.621  0.00  0.00    -0.369 OA
ATOM      7  C   UNL     1      -6.675  -8.627   9.411  0.00  0.00    +0.172 C 
ATOM      8  C   UNL     1      -7.536  -9.607  10.184  0.00  0.00    +0.179 C 
ATOM      9  C   UNL     1      -5.839  -9.505   8.506  0.00  0.00    +0.131 C 
ATOM     10  C   UNL     1      -8.847  -8.868  10.302  0.00  0.00    +0.171 C 
ATOM     11  C   UNL     1      -6.791 -10.660   8.227  0.00  0.00    +0.185 C 
ATOM     12  C   UNL     1      -8.926  -8.146   8.975  0.00  0.00    +0.194 C 
BRANCH  10   3
ATOM      3  O   UNL     1      -9.954  -9.714  10.513  0.00  0.00    -0.387 OA
ATOM     25  H   UNL     1      -9.647 -10.635  10.433  0.00  0.00    +0.210 HD
ENDBRANCH  10   3
ENDBRANCH   5   9
TORSDOF 3
ENDMDL
