MODEL 1
REMARK VINA RESULT:       0.1      0.000      0.000
REMARK  Name = 7682629
REMARK  2 active torsions:
REMARK  status: ('A' for Active; 'I' for Inactive)
REMARK    1  A    between atoms: C_13  and  C_14
REMARK    2  A    between atoms: C_22  and  C_24
REMARK                            x       y       z     vdW  Elec       q    Type
REMARK                         _______ _______ _______ _____ _____    ______ ____
ROOT
ATOM      2  O   UNL     1      -2.444   4.179  27.443  0.00  0.00    -0.268 OA
ATOM      3  O   UNL     1      -5.047  -0.042  25.917  0.00  0.00    -0.270 OA
ATOM      4  N   UNL     1      -2.453   3.352  25.252  0.00  0.00    -0.311 N 
ATOM      5  N   UNL     1      -4.136   0.958  24.008  0.00  0.00    -0.297 N 
ATOM      6  C   UNL     1      -2.479   2.440  22.909  0.00  0.00    +0.054 C 
ATOM      7  C   UNL     1      -4.562   3.403  23.797  0.00  0.00    +0.027 C 
ATOM      8  C   UNL     1      -3.580   3.466  22.636  0.00  0.00    +0.018 C 
ATOM      9  C   UNL     1      -1.739   2.731  24.211  0.00  0.00    +0.030 A 
ATOM     10  C   UNL     1      -3.830   3.835  25.068  0.00  0.00    +0.130 C 
ATOM     11  C   UNL     1      -3.099   1.030  22.968  0.00  0.00    +0.117 C 
ATOM     12  C   UNL     1      -5.166   1.992  23.921  0.00  0.00    +0.113 C 
ATOM     14  C   UNL     1      -0.446   2.374  24.398  0.00  0.00    -0.024 A 
ATOM     19  C   UNL     1      -1.872   3.626  26.503  0.00  0.00    +0.252 A 
ATOM     21  C   UNL     1       0.194   2.646  25.668  0.00  0.00    +0.011 A 
ATOM     22  C   UNL     1      -4.183   0.023  25.044  0.00  0.00    +0.247 C 
ATOM     23  C   UNL     1      -0.457   3.224  26.677  0.00  0.00    +0.070 A 
ENDROOT
BRANCH  22  24
ATOM      1  F   UNL     1      -0.061  -3.742  25.348  0.00  0.00    -0.205 F 
ATOM     24  C   UNL     1      -3.102  -0.966  25.125  0.00  0.00    +0.037 A 
ATOM     25  C   UNL     1      -3.228  -2.186  24.466  0.00  0.00    +0.016 A 
ATOM     26  C   UNL     1      -1.954  -0.678  25.858  0.00  0.00    +0.016 A 
ATOM     27  C   UNL     1      -2.199  -3.125  24.540  0.00  0.00    +0.039 A 
ATOM     28  C   UNL     1      -0.925  -1.617  25.934  0.00  0.00    +0.039 A 
ATOM     29  C   UNL     1      -1.048  -2.841  25.275  0.00  0.00    +0.123 A 
ENDBRANCH  22  24
BRANCH  14  13
ATOM     13  C   UNL     1       0.435   1.665  23.413  0.00  0.00    +0.021 C 
ATOM     15  C   UNL     1       0.085   0.173  23.343  0.00  0.00    +0.008 C 
ATOM     16  C   UNL     1       1.916   1.861  23.766  0.00  0.00    +0.008 C 
ATOM     17  C   UNL     1       1.003  -0.579  22.381  0.00  0.00    +0.001 C 
ATOM     18  C   UNL     1       2.831   1.106  22.803  0.00  0.00    +0.001 C 
ATOM     20  C   UNL     1       2.473  -0.374  22.731  0.00  0.00    +0.000 C 
ENDBRANCH  14  13
TORSDOF 2
ENDMDL
