MODEL 1
REMARK VINA RESULT:       4.2      0.000      0.000
REMARK  Name = 11882034
REMARK  10 active torsions:
REMARK  status: ('A' for Active; 'I' for Inactive)
REMARK    1  A    between atoms: O_5  and  C_36
REMARK    2  A    between atoms: O_5  and  C_37
REMARK    3  A    between atoms: N_7  and  C_12
REMARK    4  A    between atoms: N_8  and  C_18
REMARK    5  A    between atoms: N_9  and  C_28
REMARK    6  A    between atoms: C_13  and  C_16
REMARK    7  A    between atoms: C_17  and  C_21
REMARK    8  A    between atoms: C_18  and  C_20
REMARK    9  A    between atoms: C_18  and  C_23
REMARK   10  A    between atoms: C_20  and  C_22
REMARK                            x       y       z     vdW  Elec       q    Type
REMARK                         _______ _______ _______ _____ _____    ______ ____
ROOT
ATOM      2  O   UNL     1      -5.499   1.124  25.264  0.00  0.00    -0.276 OA
ATOM      6  N   UNL     1      -3.899   2.547  24.385  0.00  0.00    -0.288 N 
ATOM     12  C   UNL     1      -2.064   3.645  23.350  0.00  0.00    +0.094 C 
ATOM     13  C   UNL     1      -3.336   1.593  23.441  0.00  0.00    +0.164 C 
ATOM     14  C   UNL     1      -2.456   2.425  22.511  0.00  0.00    +0.055 C 
ATOM     15  C   UNL     1      -3.278   3.865  24.246  0.00  0.00    +0.131 C 
ATOM     17  C   UNL     1      -5.002   2.248  25.170  0.00  0.00    +0.213 C 
ATOM     21  C   UNL     1      -5.581   3.404  25.947  0.00  0.00    +0.109 C 
ENDROOT
BRANCH  12   7
ATOM      3  O   UNL     1      -1.902   3.221  26.179  0.00  0.00    -0.253 OA
ATOM      7  N   UNL     1      -0.868   3.405  24.119  0.00  0.00    -0.295 N 
ATOM      9  N   UNL     1       0.425   2.998  25.975  0.00  0.00    -0.269 N 
ATOM     19  C   UNL     1      -0.875   3.206  25.506  0.00  0.00    +0.304 C 
ATOM     38  H   UNL     1       0.029   3.445  23.644  0.00  0.00    +0.151 HD
ATOM     40  H   UNL     1       1.169   3.019  25.283  0.00  0.00    +0.156 HD
BRANCH   9  28
ATOM     28  C   UNL     1       0.840   2.762  27.306  0.00  0.00    +0.035 A 
ATOM     32  C   UNL     1       2.172   2.962  27.667  0.00  0.00    +0.027 A 
ATOM     33  C   UNL     1      -0.083   2.329  28.258  0.00  0.00    +0.027 A 
ATOM     34  C   UNL     1       2.581   2.731  28.981  0.00  0.00    +0.047 A 
ATOM     35  C   UNL     1       0.326   2.096  29.571  0.00  0.00    +0.047 A 
ATOM     36  C   UNL     1       1.658   2.298  29.933  0.00  0.00    +0.120 A 
BRANCH  36   5
ATOM      5  O   UNL     1       2.057   2.073  31.215  0.00  0.00    -0.495 OA
ATOM     37  C   UNL     1       1.038   2.014  32.211  0.00  0.00    +0.277 C 
ENDBRANCH  36   5
ENDBRANCH   9  28
ENDBRANCH  12   7
BRANCH  13  16
ATOM      1  O   UNL     1      -2.961   0.044  25.218  0.00  0.00    -0.274 OA
ATOM      8  N   UNL     1      -1.288   0.366  23.631  0.00  0.00    -0.302 N 
ATOM     16  C   UNL     1      -2.532   0.581  24.201  0.00  0.00    +0.234 C 
ATOM     39  H   UNL     1      -1.075   0.803  22.739  0.00  0.00    +0.150 HD
BRANCH   8  18
ATOM     18  C   UNL     1      -0.313  -0.546  24.184  0.00  0.00    +0.163 C 
BRANCH  18  23
ATOM      4  O   UNL     1      -1.622  -2.582  23.966  0.00  0.00    -0.274 OA
ATOM     11  N   UNL     1      -1.043  -1.868  26.071  0.00  0.00    -0.328 N 
ATOM     23  C   UNL     1      -1.074  -1.759  24.697  0.00  0.00    +0.231 C 
ATOM     42  H   UNL     1      -0.566  -1.194  26.660  0.00  0.00    +0.145 HD
ATOM     43  H   UNL     1      -1.501  -2.640  26.543  0.00  0.00    +0.145 HD
ENDBRANCH  18  23
BRANCH  18  20
ATOM     20  C   UNL     1       0.737  -0.970  23.149  0.00  0.00    +0.069 C 
BRANCH  20  22
ATOM     10  N   UNL     1       3.240   1.715  22.950  0.00  0.00    -0.360 N 
ATOM     22  C   UNL     1       1.947  -0.079  23.138  0.00  0.00    -0.020 A 
ATOM     24  C   UNL     1       3.288  -0.466  23.413  0.00  0.00    +0.003 A 
ATOM     25  C   UNL     1       1.950   1.268  22.856  0.00  0.00    +0.087 A 
ATOM     26  C   UNL     1       4.079   0.677  23.288  0.00  0.00    +0.047 A 
ATOM     27  C   UNL     1       3.907  -1.685  23.758  0.00  0.00    +0.010 A 
ATOM     29  C   UNL     1       5.463   0.664  23.491  0.00  0.00    +0.026 A 
ATOM     30  C   UNL     1       5.290  -1.713  23.965  0.00  0.00    +0.001 A 
ATOM     31  C   UNL     1       6.056  -0.556  23.832  0.00  0.00    +0.002 A 
ATOM     41  H   UNL     1       3.535   2.669  22.792  0.00  0.00    +0.165 HD
ENDBRANCH  20  22
ENDBRANCH  18  20
ENDBRANCH   8  18
ENDBRANCH  13  16
TORSDOF 8
ENDMDL
MODEL 2
REMARK VINA RESULT:       5.2      2.489      6.273
REMARK  Name = 11882034
REMARK  10 active torsions:
REMARK  status: ('A' for Active; 'I' for Inactive)
REMARK    1  A    between atoms: O_5  and  C_36
REMARK    2  A    between atoms: O_5  and  C_37
REMARK    3  A    between atoms: N_7  and  C_12
REMARK    4  A    between atoms: N_8  and  C_18
REMARK    5  A    between atoms: N_9  and  C_28
REMARK    6  A    between atoms: C_13  and  C_16
REMARK    7  A    between atoms: C_17  and  C_21
REMARK    8  A    between atoms: C_18  and  C_20
REMARK    9  A    between atoms: C_18  and  C_23
REMARK   10  A    between atoms: C_20  and  C_22
REMARK                            x       y       z     vdW  Elec       q    Type
REMARK                         _______ _______ _______ _____ _____    ______ ____
ROOT
ATOM      2  O   UNL     1      -6.332  -2.041  23.414  0.00  0.00    -0.276 OA
ATOM      6  N   UNL     1      -4.208  -2.342  24.284  0.00  0.00    -0.288 N 
ATOM     12  C   UNL     1      -2.068  -2.243  25.310  0.00  0.00    +0.094 C 
ATOM     13  C   UNL     1      -4.263  -1.236  25.228  0.00  0.00    +0.164 C 
ATOM     14  C   UNL     1      -3.065  -1.443  26.153  0.00  0.00    +0.055 C 
ATOM     15  C   UNL     1      -2.962  -3.097  24.418  0.00  0.00    +0.131 C 
ATOM     17  C   UNL     1      -5.296  -2.703  23.503  0.00  0.00    +0.213 C 
ATOM     21  C   UNL     1      -5.143  -3.986  22.726  0.00  0.00    +0.109 C 
ENDROOT
BRANCH  12   7
ATOM      3  O   UNL     1       0.797  -2.277  25.267  0.00  0.00    -0.253 OA
ATOM      7  N   UNL     1      -1.207  -1.382  24.538  0.00  0.00    -0.295 N 
ATOM      9  N   UNL     1       0.758  -0.508  23.726  0.00  0.00    -0.269 N 
ATOM     19  C   UNL     1       0.191  -1.464  24.573  0.00  0.00    +0.304 C 
ATOM     38  H   UNL     1      -1.630  -0.639  23.990  0.00  0.00    +0.151 HD
ATOM     40  H   UNL     1       0.113   0.093  23.220  0.00  0.00    +0.156 HD
BRANCH   9  28
ATOM     28  C   UNL     1       2.130  -0.268  23.482  0.00  0.00    +0.035 A 
ATOM     32  C   UNL     1       2.542   0.960  22.965  0.00  0.00    +0.027 A 
ATOM     33  C   UNL     1       3.071  -1.260  23.759  0.00  0.00    +0.027 A 
ATOM     34  C   UNL     1       3.896   1.197  22.726  0.00  0.00    +0.047 A 
ATOM     35  C   UNL     1       4.425  -1.023  23.519  0.00  0.00    +0.047 A 
ATOM     36  C   UNL     1       4.838   0.205  23.003  0.00  0.00    +0.120 A 
BRANCH  36   5
ATOM      5  O   UNL     1       6.159   0.437  22.771  0.00  0.00    -0.495 OA
ATOM     37  C   UNL     1       7.073  -0.594  23.139  0.00  0.00    +0.277 C 
ENDBRANCH  36   5
ENDBRANCH   9  28
ENDBRANCH  12   7
BRANCH  13  16
ATOM      1  O   UNL     1      -3.390   0.180  23.516  0.00  0.00    -0.274 OA
ATOM      8  N   UNL     1      -4.984   1.035  24.982  0.00  0.00    -0.302 N 
ATOM     16  C   UNL     1      -4.155   0.052  24.469  0.00  0.00    +0.234 C 
ATOM     39  H   UNL     1      -5.637   0.789  25.720  0.00  0.00    +0.150 HD
BRANCH   8  18
ATOM     18  C   UNL     1      -5.050   2.374  24.443  0.00  0.00    +0.163 C 
BRANCH  18  23
ATOM      4  O   UNL     1      -4.280   3.288  26.559  0.00  0.00    -0.274 OA
ATOM     11  N   UNL     1      -6.064   4.289  25.514  0.00  0.00    -0.328 N 
ATOM     23  C   UNL     1      -5.078   3.331  25.625  0.00  0.00    +0.231 C 
ATOM     42  H   UNL     1      -6.700   4.327  24.724  0.00  0.00    +0.145 HD
ATOM     43  H   UNL     1      -6.183   4.999  26.229  0.00  0.00    +0.145 HD
ENDBRANCH  18  23
BRANCH  18  20
ATOM     20  C   UNL     1      -3.862   2.689  23.525  0.00  0.00    +0.069 C 
BRANCH  20  22
ATOM     10  N   UNL     1      -1.511   5.148  24.917  0.00  0.00    -0.360 N 
ATOM     22  C   UNL     1      -2.775   3.465  24.212  0.00  0.00    -0.020 A 
ATOM     24  C   UNL     1      -1.736   2.931  25.024  0.00  0.00    +0.003 A 
ATOM     25  C   UNL     1      -2.610   4.831  24.165  0.00  0.00    +0.087 A 
ATOM     26  C   UNL     1      -0.956   4.007  25.453  0.00  0.00    +0.047 A 
ATOM     27  C   UNL     1      -1.382   1.631  25.436  0.00  0.00    +0.010 A 
ATOM     29  C   UNL     1       0.163   3.849  26.277  0.00  0.00    +0.026 A 
ATOM     30  C   UNL     1      -0.265   1.456  26.261  0.00  0.00    +0.001 A 
ATOM     31  C   UNL     1       0.495   2.550  26.673  0.00  0.00    +0.002 A 
ATOM     41  H   UNL     1      -1.157   6.084  25.057  0.00  0.00    +0.165 HD
ENDBRANCH  20  22
ENDBRANCH  18  20
ENDBRANCH   8  18
ENDBRANCH  13  16
TORSDOF 8
ENDMDL
MODEL 3
REMARK VINA RESULT:       5.9      3.086      6.394
REMARK  Name = 11882034
REMARK  10 active torsions:
REMARK  status: ('A' for Active; 'I' for Inactive)
REMARK    1  A    between atoms: O_5  and  C_36
REMARK    2  A    between atoms: O_5  and  C_37
REMARK    3  A    between atoms: N_7  and  C_12
REMARK    4  A    between atoms: N_8  and  C_18
REMARK    5  A    between atoms: N_9  and  C_28
REMARK    6  A    between atoms: C_13  and  C_16
REMARK    7  A    between atoms: C_17  and  C_21
REMARK    8  A    between atoms: C_18  and  C_20
REMARK    9  A    between atoms: C_18  and  C_23
REMARK   10  A    between atoms: C_20  and  C_22
REMARK                            x       y       z     vdW  Elec       q    Type
REMARK                         _______ _______ _______ _____ _____    ______ ____
ROOT
ATOM      2  O   UNL     1      -6.086  -1.884  23.677  0.00  0.00    -0.276 OA
ATOM      6  N   UNL     1      -3.932  -2.367  24.372  0.00  0.00    -0.288 N 
ATOM     12  C   UNL     1      -1.739  -2.478  25.278  0.00  0.00    +0.094 C 
ATOM     13  C   UNL     1      -3.897  -1.407  25.466  0.00  0.00    +0.164 C 
ATOM     14  C   UNL     1      -2.660  -1.779  26.282  0.00  0.00    +0.055 C 
ATOM     15  C   UNL     1      -2.709  -3.169  24.326  0.00  0.00    +0.131 C 
ATOM     17  C   UNL     1      -5.072  -2.581  23.612  0.00  0.00    +0.213 C 
ATOM     21  C   UNL     1      -5.007  -3.743  22.653  0.00  0.00    +0.109 C 
ENDROOT
BRANCH  12   7
ATOM      3  O   UNL     1       1.121  -2.555  25.118  0.00  0.00    -0.253 OA
ATOM      7  N   UNL     1      -0.888  -1.540  24.588  0.00  0.00    -0.295 N 
ATOM      9  N   UNL     1       1.064  -0.604  23.816  0.00  0.00    -0.269 N 
ATOM     19  C   UNL     1       0.508  -1.650  24.558  0.00  0.00    +0.304 C 
ATOM     38  H   UNL     1      -1.315  -0.727  24.156  0.00  0.00    +0.151 HD
ATOM     40  H   UNL     1       0.414   0.068  23.417  0.00  0.00    +0.156 HD
BRANCH   9  28
ATOM     28  C   UNL     1       2.431  -0.358  23.551  0.00  0.00    +0.035 A 
ATOM     32  C   UNL     1       2.817   0.824  22.919  0.00  0.00    +0.027 A 
ATOM     33  C   UNL     1       3.393  -1.297  23.921  0.00  0.00    +0.027 A 
ATOM     34  C   UNL     1       4.166   1.067  22.659  0.00  0.00    +0.047 A 
ATOM     35  C   UNL     1       4.742  -1.055  23.660  0.00  0.00    +0.047 A 
ATOM     36  C   UNL     1       5.128   0.128  23.029  0.00  0.00    +0.120 A 
BRANCH  36   5
ATOM      5  O   UNL     1       6.444   0.366  22.776  0.00  0.00    -0.495 OA
ATOM     37  C   UNL     1       7.367  -0.669  23.111  0.00  0.00    +0.277 C 
ENDBRANCH  36   5
ENDBRANCH   9  28
ENDBRANCH  12   7
BRANCH  13  16
ATOM      1  O   UNL     1      -3.040   0.220  23.944  0.00  0.00    -0.274 OA
ATOM      8  N   UNL     1      -4.575   0.887  25.562  0.00  0.00    -0.302 N 
ATOM     16  C   UNL     1      -3.781  -0.028  24.892  0.00  0.00    +0.234 C 
ATOM     39  H   UNL     1      -5.213   0.552  26.277  0.00  0.00    +0.150 HD
BRANCH   8  18
ATOM     18  C   UNL     1      -4.627   2.290  25.218  0.00  0.00    +0.163 C 
BRANCH  18  23
ATOM      4  O   UNL     1      -6.937   1.922  24.560  0.00  0.00    -0.274 OA
ATOM     11  N   UNL     1      -6.394   3.893  25.607  0.00  0.00    -0.328 N 
ATOM     23  C   UNL     1      -6.095   2.660  25.067  0.00  0.00    +0.231 C 
ATOM     42  H   UNL     1      -5.692   4.481  26.045  0.00  0.00    +0.145 HD
ATOM     43  H   UNL     1      -7.341   4.255  25.585  0.00  0.00    +0.145 HD
ENDBRANCH  18  23
BRANCH  18  20
ATOM     20  C   UNL     1      -3.958   3.173  26.280  0.00  0.00    +0.069 C 
BRANCH  20  22
ATOM     10  N   UNL     1      -1.621   5.771  25.140  0.00  0.00    -0.360 N 
ATOM     22  C   UNL     1      -2.841   4.013  25.729  0.00  0.00    -0.020 A 
ATOM     24  C   UNL     1      -1.647   3.541  25.117  0.00  0.00    +0.003 A 
ATOM     25  C   UNL     1      -2.796   5.389  25.728  0.00  0.00    +0.087 A 
ATOM     26  C   UNL     1      -0.899   4.663  24.755  0.00  0.00    +0.047 A 
ATOM     27  C   UNL     1      -1.129   2.261  24.833  0.00  0.00    +0.010 A 
ATOM     29  C   UNL     1       0.346   4.570  24.125  0.00  0.00    +0.026 A 
ATOM     30  C   UNL     1       0.115   2.152  24.203  0.00  0.00    +0.001 A 
ATOM     31  C   UNL     1       0.840   3.290  23.853  0.00  0.00    +0.002 A 
ATOM     41  H   UNL     1      -1.325   6.728  25.005  0.00  0.00    +0.165 HD
ENDBRANCH  20  22
ENDBRANCH  18  20
ENDBRANCH   8  18
ENDBRANCH  13  16
TORSDOF 8
ENDMDL
MODEL 4
REMARK VINA RESULT:       6.1      2.222      5.753
REMARK  Name = 11882034
REMARK  10 active torsions:
REMARK  status: ('A' for Active; 'I' for Inactive)
REMARK    1  A    between atoms: O_5  and  C_36
REMARK    2  A    between atoms: O_5  and  C_37
REMARK    3  A    between atoms: N_7  and  C_12
REMARK    4  A    between atoms: N_8  and  C_18
REMARK    5  A    between atoms: N_9  and  C_28
REMARK    6  A    between atoms: C_13  and  C_16
REMARK    7  A    between atoms: C_17  and  C_21
REMARK    8  A    between atoms: C_18  and  C_20
REMARK    9  A    between atoms: C_18  and  C_23
REMARK   10  A    between atoms: C_20  and  C_22
REMARK                            x       y       z     vdW  Elec       q    Type
REMARK                         _______ _______ _______ _____ _____    ______ ____
ROOT
ATOM      2  O   UNL     1      -2.769   4.962  26.603  0.00  0.00    -0.276 OA
ATOM      6  N   UNL     1      -3.251   3.953  24.576  0.00  0.00    -0.288 N 
ATOM     12  C   UNL     1      -3.827   2.569  22.733  0.00  0.00    +0.094 C 
ATOM     13  C   UNL     1      -4.026   2.851  25.125  0.00  0.00    +0.164 C 
ATOM     14  C   UNL     1      -4.726   2.219  23.923  0.00  0.00    +0.055 C 
ATOM     15  C   UNL     1      -3.248   3.927  23.113  0.00  0.00    +0.131 C 
ATOM     17  C   UNL     1      -2.750   4.973  25.370  0.00  0.00    +0.213 C 
ATOM     21  C   UNL     1      -2.143   6.138  24.629  0.00  0.00    +0.109 C 
ENDROOT
BRANCH  12   7
ATOM      3  O   UNL     1      -1.007   2.954  23.062  0.00  0.00    -0.253 OA
ATOM      7  N   UNL     1      -2.794   1.583  22.535  0.00  0.00    -0.295 N 
ATOM      9  N   UNL     1      -0.668   0.713  22.454  0.00  0.00    -0.269 N 
ATOM     19  C   UNL     1      -1.431   1.854  22.718  0.00  0.00    +0.304 C 
ATOM     38  H   UNL     1      -3.058   0.667  22.185  0.00  0.00    +0.151 HD
ATOM     40  H   UNL     1      -1.176  -0.122  22.176  0.00  0.00    +0.156 HD
BRANCH   9  28
ATOM     28  C   UNL     1       0.738   0.574  22.523  0.00  0.00    +0.035 A 
ATOM     32  C   UNL     1       1.394  -0.313  21.670  0.00  0.00    +0.027 A 
ATOM     33  C   UNL     1       1.468   1.324  23.445  0.00  0.00    +0.027 A 
ATOM     34  C   UNL     1       2.781  -0.449  21.738  0.00  0.00    +0.047 A 
ATOM     35  C   UNL     1       2.855   1.187  23.514  0.00  0.00    +0.047 A 
ATOM     36  C   UNL     1       3.511   0.301  22.660  0.00  0.00    +0.120 A 
BRANCH  36   5
ATOM      5  O   UNL     1       4.864   0.169  22.725  0.00  0.00    -0.495 OA
ATOM     37  C   UNL     1       5.410  -0.328  23.945  0.00  0.00    +0.277 C 
ENDBRANCH  36   5
ENDBRANCH   9  28
ENDBRANCH  12   7
BRANCH  13  16
ATOM      1  O   UNL     1      -3.492   1.008  26.545  0.00  0.00    -0.274 OA
ATOM      8  N   UNL     1      -1.768   2.126  25.451  0.00  0.00    -0.302 N 
ATOM     16  C   UNL     1      -3.090   1.886  25.786  0.00  0.00    +0.234 C 
ATOM     39  H   UNL     1      -1.560   2.826  24.745  0.00  0.00    +0.150 HD
BRANCH   8  18
ATOM     18  C   UNL     1      -0.666   1.349  25.973  0.00  0.00    +0.163 C 
BRANCH  18  23
ATOM      4  O   UNL     1       0.239   2.009  28.129  0.00  0.00    -0.274 OA
ATOM     11  N   UNL     1       0.670   3.335  26.304  0.00  0.00    -0.328 N 
ATOM     23  C   UNL     1       0.101   2.248  26.931  0.00  0.00    +0.231 C 
ATOM     42  H   UNL     1       0.568   3.505  25.309  0.00  0.00    +0.145 HD
ATOM     43  H   UNL     1       1.222   4.008  26.825  0.00  0.00    +0.145 HD
ENDBRANCH  18  23
BRANCH  18  20
ATOM     20  C   UNL     1      -1.141   0.079  26.692  0.00  0.00    +0.069 C 
BRANCH  20  22
ATOM     10  N   UNL     1      -0.669  -2.929  24.634  0.00  0.00    -0.360 N 
ATOM     22  C   UNL     1      -1.225  -1.115  25.784  0.00  0.00    -0.020 A 
ATOM     24  C   UNL     1      -2.374  -1.559  25.072  0.00  0.00    +0.003 A 
ATOM     25  C   UNL     1      -0.193  -1.978  25.494  0.00  0.00    +0.087 A 
ATOM     26  C   UNL     1      -1.998  -2.699  24.358  0.00  0.00    +0.047 A 
ATOM     27  C   UNL     1      -3.702  -1.100  24.966  0.00  0.00    +0.010 A 
ATOM     29  C   UNL     1      -2.887  -3.405  23.540  0.00  0.00    +0.026 A 
ATOM     30  C   UNL     1      -4.603  -1.796  24.152  0.00  0.00    +0.001 A 
ATOM     31  C   UNL     1      -4.199  -2.931  23.450  0.00  0.00    +0.002 A 
ATOM     41  H   UNL     1      -0.124  -3.691  24.254  0.00  0.00    +0.165 HD
ENDBRANCH  20  22
ENDBRANCH  18  20
ENDBRANCH   8  18
ENDBRANCH  13  16
TORSDOF 8
ENDMDL
MODEL 5
REMARK VINA RESULT:       6.4      2.389      6.203
REMARK  Name = 11882034
REMARK  10 active torsions:
REMARK  status: ('A' for Active; 'I' for Inactive)
REMARK    1  A    between atoms: O_5  and  C_36
REMARK    2  A    between atoms: O_5  and  C_37
REMARK    3  A    between atoms: N_7  and  C_12
REMARK    4  A    between atoms: N_8  and  C_18
REMARK    5  A    between atoms: N_9  and  C_28
REMARK    6  A    between atoms: C_13  and  C_16
REMARK    7  A    between atoms: C_17  and  C_21
REMARK    8  A    between atoms: C_18  and  C_20
REMARK    9  A    between atoms: C_18  and  C_23
REMARK   10  A    between atoms: C_20  and  C_22
REMARK                            x       y       z     vdW  Elec       q    Type
REMARK                         _______ _______ _______ _____ _____    ______ ____
ROOT
ATOM      2  O   UNL     1      -4.916   1.037  26.736  0.00  0.00    -0.276 OA
ATOM      6  N   UNL     1      -3.857  -0.073  25.003  0.00  0.00    -0.288 N 
ATOM     12  C   UNL     1      -2.458  -1.285  23.513  0.00  0.00    +0.094 C 
ATOM     13  C   UNL     1      -2.949  -0.846  25.838  0.00  0.00    +0.164 C 
ATOM     14  C   UNL     1      -2.359  -1.905  24.909  0.00  0.00    +0.055 C 
ATOM     15  C   UNL     1      -3.721  -0.434  23.591  0.00  0.00    +0.131 C 
ATOM     17  C   UNL     1      -4.832   0.754  25.539  0.00  0.00    +0.213 C 
ATOM     21  C   UNL     1      -5.815   1.328  24.550  0.00  0.00    +0.109 C 
ENDROOT
BRANCH  12   7
ATOM      3  O   UNL     1       0.276  -1.962  24.041  0.00  0.00    -0.253 OA
ATOM      7  N   UNL     1      -1.297  -0.491  23.196  0.00  0.00    -0.295 N 
ATOM      9  N   UNL     1       0.928   0.072  23.068  0.00  0.00    -0.269 N 
ATOM     19  C   UNL     1       0.012  -0.896  23.489  0.00  0.00    +0.304 C 
ATOM     38  H   UNL     1      -1.435   0.433  22.799  0.00  0.00    +0.151 HD
ATOM     40  H   UNL     1       0.543   0.903  22.627  0.00  0.00    +0.156 HD
BRANCH   9  28
ATOM     28  C   UNL     1       2.337   0.041  23.180  0.00  0.00    +0.035 A 
ATOM     32  C   UNL     1       3.087   1.176  22.872  0.00  0.00    +0.027 A 
ATOM     33  C   UNL     1       2.978  -1.124  23.600  0.00  0.00    +0.027 A 
ATOM     34  C   UNL     1       4.477   1.146  22.985  0.00  0.00    +0.047 A 
ATOM     35  C   UNL     1       4.368  -1.155  23.712  0.00  0.00    +0.047 A 
ATOM     36  C   UNL     1       5.118  -0.019  23.405  0.00  0.00    +0.120 A 
BRANCH  36   5
ATOM      5  O   UNL     1       6.474  -0.048  23.517  0.00  0.00    -0.495 OA
ATOM     37  C   UNL     1       7.174  -0.971  22.684  0.00  0.00    +0.277 C 
ENDBRANCH  36   5
ENDBRANCH   9  28
ENDBRANCH  12   7
BRANCH  13  16
ATOM      1  O   UNL     1      -0.882  -0.361  26.929  0.00  0.00    -0.274 OA
ATOM      8  N   UNL     1      -2.201   1.403  26.175  0.00  0.00    -0.302 N 
ATOM     16  C   UNL     1      -1.889   0.069  26.372  0.00  0.00    +0.234 C 
ATOM     39  H   UNL     1      -3.021   1.639  25.624  0.00  0.00    +0.150 HD
BRANCH   8  18
ATOM     18  C   UNL     1      -1.353   2.487  26.618  0.00  0.00    +0.163 C 
BRANCH  18  23
ATOM      4  O   UNL     1       0.168   2.127  24.757  0.00  0.00    -0.274 OA
ATOM     11  N   UNL     1       1.047   2.355  26.866  0.00  0.00    -0.328 N 
ATOM     23  C   UNL     1       0.006   2.287  25.965  0.00  0.00    +0.231 C 
ATOM     42  H   UNL     1       0.900   2.513  27.858  0.00  0.00    +0.145 HD
ATOM     43  H   UNL     1       2.009   2.252  26.560  0.00  0.00    +0.145 HD
ENDBRANCH  18  23
BRANCH  18  20
ATOM     20  C   UNL     1      -1.928   3.861  26.250  0.00  0.00    +0.069 C 
BRANCH  20  22
ATOM     10  N   UNL     1      -4.835   4.019  24.006  0.00  0.00    -0.360 N 
ATOM     22  C   UNL     1      -2.942   3.799  25.143  0.00  0.00    -0.020 A 
ATOM     24  C   UNL     1      -2.743   3.261  23.842  0.00  0.00    +0.003 A 
ATOM     25  C   UNL     1      -4.237   4.257  25.214  0.00  0.00    +0.087 A 
ATOM     26  C   UNL     1      -3.946   3.411  23.148  0.00  0.00    +0.047 A 
ATOM     27  C   UNL     1      -1.652   2.659  23.183  0.00  0.00    +0.010 A 
ATOM     29  C   UNL     1      -4.113   2.989  21.825  0.00  0.00    +0.026 A 
ATOM     30  C   UNL     1      -1.804   2.231  21.860  0.00  0.00    +0.001 A 
ATOM     31  C   UNL     1      -3.018   2.393  21.193  0.00  0.00    +0.002 A 
ATOM     41  H   UNL     1      -5.790   4.255  23.777  0.00  0.00    +0.165 HD
ENDBRANCH  20  22
ENDBRANCH  18  20
ENDBRANCH   8  18
ENDBRANCH  13  16
TORSDOF 8
ENDMDL
MODEL 6
REMARK VINA RESULT:       6.7      2.584      6.787
REMARK  Name = 11882034
REMARK  10 active torsions:
REMARK  status: ('A' for Active; 'I' for Inactive)
REMARK    1  A    between atoms: O_5  and  C_36
REMARK    2  A    between atoms: O_5  and  C_37
REMARK    3  A    between atoms: N_7  and  C_12
REMARK    4  A    between atoms: N_8  and  C_18
REMARK    5  A    between atoms: N_9  and  C_28
REMARK    6  A    between atoms: C_13  and  C_16
REMARK    7  A    between atoms: C_17  and  C_21
REMARK    8  A    between atoms: C_18  and  C_20
REMARK    9  A    between atoms: C_18  and  C_23
REMARK   10  A    between atoms: C_20  and  C_22
REMARK                            x       y       z     vdW  Elec       q    Type
REMARK                         _______ _______ _______ _____ _____    ______ ____
ROOT
ATOM      2  O   UNL     1      -4.516   0.325  26.556  0.00  0.00    -0.276 OA
ATOM      6  N   UNL     1      -3.414  -1.019  25.027  0.00  0.00    -0.288 N 
ATOM     12  C   UNL     1      -1.953  -2.377  23.736  0.00  0.00    +0.094 C 
ATOM     13  C   UNL     1      -2.396  -1.507  25.947  0.00  0.00    +0.164 C 
ATOM     14  C   UNL     1      -1.733  -2.677  25.221  0.00  0.00    +0.055 C 
ATOM     15  C   UNL     1      -3.295  -1.654  23.714  0.00  0.00    +0.131 C 
ATOM     17  C   UNL     1      -4.449  -0.194  25.440  0.00  0.00    +0.213 C 
ATOM     21  C   UNL     1      -5.526   0.061  24.415  0.00  0.00    +0.109 C 
ENDROOT
BRANCH  12   7
ATOM      3  O   UNL     1       0.767  -2.277  24.630  0.00  0.00    -0.253 OA
ATOM      7  N   UNL     1      -0.896  -1.560  23.192  0.00  0.00    -0.295 N 
ATOM      9  N   UNL     1       1.216  -0.681  22.969  0.00  0.00    -0.269 N 
ATOM     19  C   UNL     1       0.414  -1.570  23.689  0.00  0.00    +0.304 C 
ATOM     38  H   UNL     1      -1.125  -0.899  22.456  0.00  0.00    +0.151 HD
ATOM     40  H   UNL     1       0.765  -0.167  22.216  0.00  0.00    +0.156 HD
BRANCH   9  28
ATOM     28  C   UNL     1       2.589  -0.401  23.158  0.00  0.00    +0.035 A 
ATOM     32  C   UNL     1       3.433  -1.375  23.690  0.00  0.00    +0.027 A 
ATOM     33  C   UNL     1       3.100   0.850  22.811  0.00  0.00    +0.027 A 
ATOM     34  C   UNL     1       4.788  -1.100  23.875  0.00  0.00    +0.047 A 
ATOM     35  C   UNL     1       4.455   1.126  22.996  0.00  0.00    +0.047 A 
ATOM     36  C   UNL     1       5.299   0.151  23.528  0.00  0.00    +0.120 A 
BRANCH  36   5
ATOM      5  O   UNL     1       6.621   0.420  23.707  0.00  0.00    -0.495 OA
ATOM     37  C   UNL     1       7.553  -0.453  23.071  0.00  0.00    +0.277 C 
ENDBRANCH  36   5
ENDBRANCH   9  28
ENDBRANCH  12   7
BRANCH  13  16
ATOM      1  O   UNL     1      -0.742  -0.371  27.239  0.00  0.00    -0.274 OA
ATOM      8  N   UNL     1      -1.407   0.543  25.204  0.00  0.00    -0.302 N 
ATOM     16  C   UNL     1      -1.420  -0.402  26.215  0.00  0.00    +0.234 C 
ATOM     39  H   UNL     1      -1.949   0.369  24.362  0.00  0.00    +0.150 HD
BRANCH   8  18
ATOM     18  C   UNL     1      -0.568   1.720  25.232  0.00  0.00    +0.163 C 
BRANCH  18  23
ATOM      4  O   UNL     1       0.164   3.189  23.441  0.00  0.00    -0.274 OA
ATOM     11  N   UNL     1      -1.669   1.852  23.085  0.00  0.00    -0.328 N 
ATOM     23  C   UNL     1      -0.638   2.353  23.851  0.00  0.00    +0.231 C 
ATOM     42  H   UNL     1      -2.309   1.143  23.428  0.00  0.00    +0.145 HD
ATOM     43  H   UNL     1      -1.820   2.179  22.136  0.00  0.00    +0.145 HD
ENDBRANCH  18  23
BRANCH  18  20
ATOM     20  C   UNL     1      -1.012   2.723  26.305  0.00  0.00    +0.069 C 
BRANCH  20  22
ATOM     10  N   UNL     1      -2.543   5.734  24.858  0.00  0.00    -0.360 N 
ATOM     22  C   UNL     1      -1.886   3.818  25.763  0.00  0.00    -0.020 A 
ATOM     24  C   UNL     1      -3.306   3.814  25.697  0.00  0.00    +0.003 A 
ATOM     25  C   UNL     1      -1.445   5.012  25.240  0.00  0.00    +0.087 A 
ATOM     26  C   UNL     1      -3.694   5.027  25.126  0.00  0.00    +0.047 A 
ATOM     27  C   UNL     1      -4.305   2.891  26.070  0.00  0.00    +0.010 A 
ATOM     29  C   UNL     1      -5.033   5.366  24.906  0.00  0.00    +0.026 A 
ATOM     30  C   UNL     1      -5.649   3.215  25.857  0.00  0.00    +0.001 A 
ATOM     31  C   UNL     1      -6.006   4.435  25.284  0.00  0.00    +0.002 A 
ATOM     41  H   UNL     1      -2.514   6.654  24.440  0.00  0.00    +0.165 HD
ENDBRANCH  20  22
ENDBRANCH  18  20
ENDBRANCH   8  18
ENDBRANCH  13  16
TORSDOF 8
ENDMDL
MODEL 7
REMARK VINA RESULT:       6.7      1.721      2.068
REMARK  Name = 11882034
REMARK  10 active torsions:
REMARK  status: ('A' for Active; 'I' for Inactive)
REMARK    1  A    between atoms: O_5  and  C_36
REMARK    2  A    between atoms: O_5  and  C_37
REMARK    3  A    between atoms: N_7  and  C_12
REMARK    4  A    between atoms: N_8  and  C_18
REMARK    5  A    between atoms: N_9  and  C_28
REMARK    6  A    between atoms: C_13  and  C_16
REMARK    7  A    between atoms: C_17  and  C_21
REMARK    8  A    between atoms: C_18  and  C_20
REMARK    9  A    between atoms: C_18  and  C_23
REMARK   10  A    between atoms: C_20  and  C_22
REMARK                            x       y       z     vdW  Elec       q    Type
REMARK                         _______ _______ _______ _____ _____    ______ ____
ROOT
ATOM      2  O   UNL     1      -6.156   0.747  24.670  0.00  0.00    -0.276 OA
ATOM      6  N   UNL     1      -4.900   2.691  24.696  0.00  0.00    -0.288 N 
ATOM     12  C   UNL     1      -3.398   4.506  24.393  0.00  0.00    +0.094 C 
ATOM     13  C   UNL     1      -4.377   2.562  23.344  0.00  0.00    +0.164 C 
ATOM     14  C   UNL     1      -3.761   3.923  23.025  0.00  0.00    +0.055 C 
ATOM     15  C   UNL     1      -4.476   3.947  25.315  0.00  0.00    +0.131 C 
ATOM     17  C   UNL     1      -5.822   1.798  25.220  0.00  0.00    +0.213 C 
ATOM     21  C   UNL     1      -6.412   2.180  26.555  0.00  0.00    +0.109 C 
ENDROOT
BRANCH  12   7
ATOM      3  O   UNL     1      -2.585   3.788  27.045  0.00  0.00    -0.253 OA
ATOM      7  N   UNL     1      -2.077   4.109  24.812  0.00  0.00    -0.295 N 
ATOM      9  N   UNL     1      -0.410   3.429  26.241  0.00  0.00    -0.269 N 
ATOM     19  C   UNL     1      -1.761   3.771  26.135  0.00  0.00    +0.304 C 
ATOM     38  H   UNL     1      -1.325   4.135  24.130  0.00  0.00    +0.151 HD
ATOM     40  H   UNL     1       0.140   3.469  25.387  0.00  0.00    +0.156 HD
BRANCH   9  28
ATOM     28  C   UNL     1       0.297   3.031  27.400  0.00  0.00    +0.035 A 
ATOM     32  C   UNL     1       1.691   3.063  27.412  0.00  0.00    +0.027 A 
ATOM     33  C   UNL     1      -0.401   2.607  28.530  0.00  0.00    +0.027 A 
ATOM     34  C   UNL     1       2.387   2.672  28.556  0.00  0.00    +0.047 A 
ATOM     35  C   UNL     1       0.295   2.215  29.674  0.00  0.00    +0.047 A 
ATOM     36  C   UNL     1       1.689   2.248  29.687  0.00  0.00    +0.120 A 
BRANCH  36   5
ATOM      5  O   UNL     1       2.369   1.868  30.803  0.00  0.00    -0.495 OA
ATOM     37  C   UNL     1       1.632   1.810  32.023  0.00  0.00    +0.277 C 
ENDBRANCH  36   5
ENDBRANCH   9  28
ENDBRANCH  12   7
BRANCH  13  16
ATOM      1  O   UNL     1      -2.571   1.330  22.385  0.00  0.00    -0.274 OA
ATOM      8  N   UNL     1      -3.401   0.683  24.462  0.00  0.00    -0.302 N 
ATOM     16  C   UNL     1      -3.345   1.475  23.328  0.00  0.00    +0.234 C 
ATOM     39  H   UNL     1      -4.026   0.949  25.216  0.00  0.00    +0.150 HD
BRANCH   8  18
ATOM     18  C   UNL     1      -2.527  -0.448  24.680  0.00  0.00    +0.163 C 
BRANCH  18  23
ATOM      4  O   UNL     1      -3.411  -2.428  25.777  0.00  0.00    -0.274 OA
ATOM     11  N   UNL     1      -4.254  -1.841  23.723  0.00  0.00    -0.328 N 
ATOM     23  C   UNL     1      -3.412  -1.680  24.802  0.00  0.00    +0.231 C 
ATOM     42  H   UNL     1      -4.261  -1.201  22.935  0.00  0.00    +0.145 HD
ATOM     43  H   UNL     1      -4.907  -2.617  23.683  0.00  0.00    +0.145 HD
ENDBRANCH  18  23
BRANCH  18  20
ATOM     20  C   UNL     1      -1.513  -0.626  23.543  0.00  0.00    +0.069 C 
BRANCH  20  22
ATOM     10  N   UNL     1       1.222   1.597  24.584  0.00  0.00    -0.360 N 
ATOM     22  C   UNL     1      -0.255   0.169  23.746  0.00  0.00    -0.020 A 
ATOM     24  C   UNL     1       0.926   0.103  22.955  0.00  0.00    +0.003 A 
ATOM     25  C   UNL     1      -0.042   1.097  24.739  0.00  0.00    +0.087 A 
ATOM     26  C   UNL     1       1.837   1.010  23.501  0.00  0.00    +0.047 A 
ATOM     27  C   UNL     1       1.309  -0.643  21.822  0.00  0.00    +0.010 A 
ATOM     29  C   UNL     1       3.116   1.208  22.971  0.00  0.00    +0.026 A 
ATOM     30  C   UNL     1       2.585  -0.456  21.280  0.00  0.00    +0.001 A 
ATOM     31  C   UNL     1       3.474   0.457  21.847  0.00  0.00    +0.002 A 
ATOM     41  H   UNL     1       1.644   2.299  25.177  0.00  0.00    +0.165 HD
ENDBRANCH  20  22
ENDBRANCH  18  20
ENDBRANCH   8  18
ENDBRANCH  13  16
TORSDOF 8
ENDMDL
MODEL 8
REMARK VINA RESULT:       6.8      2.495      5.468
REMARK  Name = 11882034
REMARK  10 active torsions:
REMARK  status: ('A' for Active; 'I' for Inactive)
REMARK    1  A    between atoms: O_5  and  C_36
REMARK    2  A    between atoms: O_5  and  C_37
REMARK    3  A    between atoms: N_7  and  C_12
REMARK    4  A    between atoms: N_8  and  C_18
REMARK    5  A    between atoms: N_9  and  C_28
REMARK    6  A    between atoms: C_13  and  C_16
REMARK    7  A    between atoms: C_17  and  C_21
REMARK    8  A    between atoms: C_18  and  C_20
REMARK    9  A    between atoms: C_18  and  C_23
REMARK   10  A    between atoms: C_20  and  C_22
REMARK                            x       y       z     vdW  Elec       q    Type
REMARK                         _______ _______ _______ _____ _____    ______ ____
ROOT
ATOM      2  O   UNL     1      -6.122   0.951  25.879  0.00  0.00    -0.276 OA
ATOM      6  N   UNL     1      -4.505   1.396  24.283  0.00  0.00    -0.288 N 
ATOM     12  C   UNL     1      -2.753   1.433  22.680  0.00  0.00    +0.094 C 
ATOM     13  C   UNL     1      -4.326   0.019  23.848  0.00  0.00    +0.164 C 
ATOM     14  C   UNL     1      -3.518   0.113  22.555  0.00  0.00    +0.055 C 
ATOM     15  C   UNL     1      -3.701   2.318  23.482  0.00  0.00    +0.131 C 
ATOM     17  C   UNL     1      -5.462   1.757  25.220  0.00  0.00    +0.213 C 
ATOM     21  C   UNL     1      -5.655   3.240  25.416  0.00  0.00    +0.109 C 
ENDROOT
BRANCH  12   7
ATOM      3  O   UNL     1      -0.256   0.722  21.468  0.00  0.00    -0.253 OA
ATOM      7  N   UNL     1      -1.488   1.259  23.350  0.00  0.00    -0.295 N 
ATOM      9  N   UNL     1       0.754   0.812  23.584  0.00  0.00    -0.269 N 
ATOM     19  C   UNL     1      -0.308   0.909  22.681  0.00  0.00    +0.304 C 
ATOM     38  H   UNL     1      -1.462   1.331  24.362  0.00  0.00    +0.151 HD
ATOM     40  H   UNL     1       0.541   0.997  24.560  0.00  0.00    +0.156 HD
BRANCH   9  28
ATOM     28  C   UNL     1       2.102   0.482  23.308  0.00  0.00    +0.035 A 
ATOM     32  C   UNL     1       2.568  -0.810  23.549  0.00  0.00    +0.027 A 
ATOM     33  C   UNL     1       2.965   1.450  22.794  0.00  0.00    +0.027 A 
ATOM     34  C   UNL     1       3.897  -1.134  23.275  0.00  0.00    +0.047 A 
ATOM     35  C   UNL     1       4.294   1.126  22.520  0.00  0.00    +0.047 A 
ATOM     36  C   UNL     1       4.760  -0.167  22.761  0.00  0.00    +0.120 A 
BRANCH  36   5
ATOM      5  O   UNL     1       6.056  -0.484  22.492  0.00  0.00    -0.495 OA
ATOM     37  C   UNL     1       6.979  -0.417  23.577  0.00  0.00    +0.277 C 
ENDBRANCH  36   5
ENDBRANCH   9  28
ENDBRANCH  12   7
BRANCH  13  16
ATOM      1  O   UNL     1      -3.955  -1.823  25.320  0.00  0.00    -0.274 OA
ATOM      8  N   UNL     1      -2.467  -0.033  25.357  0.00  0.00    -0.302 N 
ATOM     16  C   UNL     1      -3.578  -0.729  24.910  0.00  0.00    +0.234 C 
ATOM     39  H   UNL     1      -2.203   0.826  24.884  0.00  0.00    +0.150 HD
BRANCH   8  18
ATOM     18  C   UNL     1      -1.590  -0.527  26.394  0.00  0.00    +0.163 C 
BRANCH  18  23
ATOM      4  O   UNL     1      -0.452  -1.532  24.497  0.00  0.00    -0.274 OA
ATOM     11  N   UNL     1       0.429  -1.840  26.595  0.00  0.00    -0.328 N 
ATOM     23  C   UNL     1      -0.510  -1.353  25.711  0.00  0.00    +0.231 C 
ATOM     42  H   UNL     1       0.381  -1.664  27.593  0.00  0.00    +0.145 HD
ATOM     43  H   UNL     1       1.212  -2.397  26.269  0.00  0.00    +0.145 HD
ENDBRANCH  18  23
BRANCH  18  20
ATOM     20  C   UNL     1      -0.960   0.609  27.210  0.00  0.00    +0.069 C 
BRANCH  20  22
ATOM     10  N   UNL     1       0.585   3.142  25.041  0.00  0.00    -0.360 N 
ATOM     22  C   UNL     1      -0.570   1.793  26.371  0.00  0.00    -0.020 A 
ATOM     24  C   UNL     1      -1.343   2.966  26.150  0.00  0.00    +0.003 A 
ATOM     25  C   UNL     1       0.610   1.931  25.676  0.00  0.00    +0.087 A 
ATOM     26  C   UNL     1      -0.596   3.797  25.312  0.00  0.00    +0.047 A 
ATOM     27  C   UNL     1      -2.611   3.404  26.583  0.00  0.00    +0.010 A 
ATOM     29  C   UNL     1      -1.054   5.048  24.884  0.00  0.00    +0.026 A 
ATOM     30  C   UNL     1      -3.083   4.652  26.163  0.00  0.00    +0.001 A 
ATOM     31  C   UNL     1      -2.315   5.461  25.326  0.00  0.00    +0.002 A 
ATOM     41  H   UNL     1       1.326   3.505  24.457  0.00  0.00    +0.165 HD
ENDBRANCH  20  22
ENDBRANCH  18  20
ENDBRANCH   8  18
ENDBRANCH  13  16
TORSDOF 8
ENDMDL
MODEL 9
REMARK VINA RESULT:       6.9      2.586      4.354
REMARK  Name = 11882034
REMARK  10 active torsions:
REMARK  status: ('A' for Active; 'I' for Inactive)
REMARK    1  A    between atoms: O_5  and  C_36
REMARK    2  A    between atoms: O_5  and  C_37
REMARK    3  A    between atoms: N_7  and  C_12
REMARK    4  A    between atoms: N_8  and  C_18
REMARK    5  A    between atoms: N_9  and  C_28
REMARK    6  A    between atoms: C_13  and  C_16
REMARK    7  A    between atoms: C_17  and  C_21
REMARK    8  A    between atoms: C_18  and  C_20
REMARK    9  A    between atoms: C_18  and  C_23
REMARK   10  A    between atoms: C_20  and  C_22
REMARK                            x       y       z     vdW  Elec       q    Type
REMARK                         _______ _______ _______ _____ _____    ______ ____
ROOT
ATOM      2  O   UNL     1      -5.915   1.029  24.212  0.00  0.00    -0.276 OA
ATOM      6  N   UNL     1      -4.750   2.980  24.651  0.00  0.00    -0.288 N 
ATOM     12  C   UNL     1      -3.332   4.884  24.745  0.00  0.00    +0.094 C 
ATOM     13  C   UNL     1      -4.215   3.154  23.308  0.00  0.00    +0.164 C 
ATOM     14  C   UNL     1      -3.662   4.577  23.282  0.00  0.00    +0.055 C 
ATOM     15  C   UNL     1      -4.387   4.101  25.519  0.00  0.00    +0.131 C 
ATOM     17  C   UNL     1      -5.632   1.959  24.969  0.00  0.00    +0.213 C 
ATOM     21  C   UNL     1      -6.245   2.034  26.345  0.00  0.00    +0.109 C 
ENDROOT
BRANCH  12   7
ATOM      3  O   UNL     1      -2.453   3.891  27.285  0.00  0.00    -0.253 OA
ATOM      7  N   UNL     1      -1.996   4.468  25.092  0.00  0.00    -0.295 N 
ATOM      9  N   UNL     1      -0.288   3.666  26.405  0.00  0.00    -0.269 N 
ATOM     19  C   UNL     1      -1.647   3.992  26.363  0.00  0.00    +0.304 C 
ATOM     38  H   UNL     1      -1.258   4.584  24.404  0.00  0.00    +0.151 HD
ATOM     40  H   UNL     1       0.243   3.811  25.551  0.00  0.00    +0.156 HD
BRANCH   9  28
ATOM     28  C   UNL     1       0.449   3.156  27.499  0.00  0.00    +0.035 A 
ATOM     32  C   UNL     1      -0.218   2.671  28.624  0.00  0.00    +0.027 A 
ATOM     33  C   UNL     1       1.843   3.136  27.453  0.00  0.00    +0.027 A 
ATOM     34  C   UNL     1       0.509   2.166  29.703  0.00  0.00    +0.047 A 
ATOM     35  C   UNL     1       2.570   2.633  28.531  0.00  0.00    +0.047 A 
ATOM     36  C   UNL     1       1.903   2.147  29.656  0.00  0.00    +0.120 A 
BRANCH  36   5
ATOM      5  O   UNL     1       2.613   1.653  30.707  0.00  0.00    -0.495 OA
ATOM     37  C   UNL     1       1.959   1.622  31.975  0.00  0.00    +0.277 C 
ENDBRANCH  36   5
ENDBRANCH   9  28
ENDBRANCH  12   7
BRANCH  13  16
ATOM      1  O   UNL     1      -3.213   1.294  22.198  0.00  0.00    -0.274 OA
ATOM      8  N   UNL     1      -2.096   2.272  23.991  0.00  0.00    -0.302 N 
ATOM     16  C   UNL     1      -3.135   2.140  23.085  0.00  0.00    +0.234 C 
ATOM     39  H   UNL     1      -2.099   3.064  24.627  0.00  0.00    +0.150 HD
BRANCH   8  18
ATOM     18  C   UNL     1      -0.942   1.402  24.004  0.00  0.00    +0.163 C 
BRANCH  18  23
ATOM      4  O   UNL     1       0.233   3.500  23.654  0.00  0.00    -0.274 OA
ATOM     11  N   UNL     1       1.464   1.572  23.856  0.00  0.00    -0.328 N 
ATOM     23  C   UNL     1       0.283   2.281  23.803  0.00  0.00    +0.231 C 
ATOM     42  H   UNL     1       1.491   0.568  24.003  0.00  0.00    +0.145 HD
ATOM     43  H   UNL     1       2.358   2.039  23.750  0.00  0.00    +0.145 HD
ENDBRANCH  18  23
BRANCH  18  20
ATOM     20  C   UNL     1      -0.826   0.611  25.313  0.00  0.00    +0.069 C 
BRANCH  20  22
ATOM     10  N   UNL     1      -0.851  -3.060  25.124  0.00  0.00    -0.360 N 
ATOM     22  C   UNL     1      -1.105  -0.855  25.142  0.00  0.00    -0.020 A 
ATOM     24  C   UNL     1      -2.317  -1.439  24.680  0.00  0.00    +0.003 A 
ATOM     25  C   UNL     1      -0.222  -1.877  25.406  0.00  0.00    +0.087 A 
ATOM     26  C   UNL     1      -2.131  -2.823  24.678  0.00  0.00    +0.047 A 
ATOM     27  C   UNL     1      -3.560  -0.922  24.262  0.00  0.00    +0.010 A 
ATOM     29  C   UNL     1      -3.129  -3.719  24.279  0.00  0.00    +0.026 A 
ATOM     30  C   UNL     1      -4.568  -1.806  23.860  0.00  0.00    +0.001 A 
ATOM     31  C   UNL     1      -4.353  -3.183  23.868  0.00  0.00    +0.002 A 
ATOM     41  H   UNL     1      -0.434  -3.975  25.227  0.00  0.00    +0.165 HD
ENDBRANCH  20  22
ENDBRANCH  18  20
ENDBRANCH   8  18
ENDBRANCH  13  16
TORSDOF 8
ENDMDL
MODEL 10
REMARK VINA RESULT:       7.1      2.723      5.469
REMARK  Name = 11882034
REMARK  10 active torsions:
REMARK  status: ('A' for Active; 'I' for Inactive)
REMARK    1  A    between atoms: O_5  and  C_36
REMARK    2  A    between atoms: O_5  and  C_37
REMARK    3  A    between atoms: N_7  and  C_12
REMARK    4  A    between atoms: N_8  and  C_18
REMARK    5  A    between atoms: N_9  and  C_28
REMARK    6  A    between atoms: C_13  and  C_16
REMARK    7  A    between atoms: C_17  and  C_21
REMARK    8  A    between atoms: C_18  and  C_20
REMARK    9  A    between atoms: C_18  and  C_23
REMARK   10  A    between atoms: C_20  and  C_22
REMARK                            x       y       z     vdW  Elec       q    Type
REMARK                         _______ _______ _______ _____ _____    ______ ____
ROOT
ATOM      2  O   UNL     1      -6.489   3.324  25.311  0.00  0.00    -0.276 OA
ATOM      6  N   UNL     1      -4.249   3.292  25.893  0.00  0.00    -0.288 N 
ATOM     12  C   UNL     1      -1.887   3.443  26.104  0.00  0.00    +0.094 C 
ATOM     13  C   UNL     1      -3.821   4.306  24.940  0.00  0.00    +0.164 C 
ATOM     14  C   UNL     1      -2.405   4.684  25.371  0.00  0.00    +0.055 C 
ATOM     15  C   UNL     1      -3.141   2.861  26.747  0.00  0.00    +0.131 C 
ATOM     17  C   UNL     1      -5.581   2.942  26.052  0.00  0.00    +0.213 C 
ATOM     21  C   UNL     1      -5.878   2.024  27.211  0.00  0.00    +0.109 C 
ENDROOT
BRANCH  12   7
ATOM      3  O   UNL     1       0.924   3.073  25.689  0.00  0.00    -0.253 OA
ATOM      7  N   UNL     1      -1.265   2.507  25.201  0.00  0.00    -0.295 N 
ATOM      9  N   UNL     1       0.433   1.403  24.115  0.00  0.00    -0.269 N 
ATOM     19  C   UNL     1       0.124   2.388  25.057  0.00  0.00    +0.304 C 
ATOM     38  H   UNL     1      -1.860   1.951  24.595  0.00  0.00    +0.151 HD
ATOM     40  H   UNL     1      -0.351   0.926  23.678  0.00  0.00    +0.156 HD
BRANCH   9  28
ATOM     28  C   UNL     1       1.714   0.983  23.687  0.00  0.00    +0.035 A 
ATOM     32  C   UNL     1       2.072  -0.362  23.774  0.00  0.00    +0.027 A 
ATOM     33  C   UNL     1       2.618   1.914  23.177  0.00  0.00    +0.027 A 
ATOM     34  C   UNL     1       3.335  -0.777  23.350  0.00  0.00    +0.047 A 
ATOM     35  C   UNL     1       3.882   1.500  22.754  0.00  0.00    +0.047 A 
ATOM     36  C   UNL     1       4.240   0.154  22.840  0.00  0.00    +0.120 A 
BRANCH  36   5
ATOM      5  O   UNL     1       5.471  -0.250  22.425  0.00  0.00    -0.495 OA
ATOM     37  C   UNL     1       6.498  -0.322  23.412  0.00  0.00    +0.277 C 
ENDBRANCH  36   5
ENDBRANCH   9  28
ENDBRANCH  12   7
BRANCH  13  16
ATOM      1  O   UNL     1      -3.988   4.406  22.561  0.00  0.00    -0.274 OA
ATOM      8  N   UNL     1      -3.687   2.336  23.586  0.00  0.00    -0.302 N 
ATOM     16  C   UNL     1      -3.837   3.713  23.565  0.00  0.00    +0.234 C 
ATOM     39  H   UNL     1      -3.484   1.879  24.469  0.00  0.00    +0.150 HD
BRANCH   8  18
ATOM     18  C   UNL     1      -3.692   1.523  22.391  0.00  0.00    +0.163 C 
BRANCH  18  23
ATOM      4  O   UNL     1      -1.284   1.273  22.173  0.00  0.00    -0.274 OA
ATOM     11  N   UNL     1      -2.429   2.374  20.515  0.00  0.00    -0.328 N 
ATOM     23  C   UNL     1      -2.340   1.708  21.718  0.00  0.00    +0.231 C 
ATOM     42  H   UNL     1      -3.312   2.707  20.140  0.00  0.00    +0.145 HD
ATOM     43  H   UNL     1      -1.602   2.553  19.955  0.00  0.00    +0.145 HD
ENDBRANCH  18  23
BRANCH  18  20
ATOM     20  C   UNL     1      -3.938   0.040  22.700  0.00  0.00    +0.069 C 
BRANCH  20  22
ATOM     10  N   UNL     1      -3.778  -0.607  26.315  0.00  0.00    -0.360 N 
ATOM     22  C   UNL     1      -3.612  -0.329  24.119  0.00  0.00    -0.020 A 
ATOM     24  C   UNL     1      -2.407  -0.925  24.584  0.00  0.00    +0.003 A 
ATOM     25  C   UNL     1      -4.435  -0.145  25.207  0.00  0.00    +0.087 A 
ATOM     26  C   UNL     1      -2.536  -1.089  25.965  0.00  0.00    +0.047 A 
ATOM     27  C   UNL     1      -1.214  -1.343  23.961  0.00  0.00    +0.010 A 
ATOM     29  C   UNL     1      -1.530  -1.652  26.757  0.00  0.00    +0.026 A 
ATOM     30  C   UNL     1      -0.198  -1.909  24.740  0.00  0.00    +0.001 A 
ATOM     31  C   UNL     1      -0.355  -2.059  26.117  0.00  0.00    +0.002 A 
ATOM     41  H   UNL     1      -4.150  -0.595  27.255  0.00  0.00    +0.165 HD
ENDBRANCH  20  22
ENDBRANCH  18  20
ENDBRANCH   8  18
ENDBRANCH  13  16
TORSDOF 8
ENDMDL
