MODEL 1
REMARK VINA RESULT:      12.8      0.000      0.000
REMARK  Name = 11885093
REMARK  14 active torsions:
REMARK  status: ('A' for Active; 'I' for Inactive)
REMARK    1  A    between atoms: O_4  and  C_16
REMARK    2  A    between atoms: O_5  and  C_21
REMARK    3  A    between atoms: N_9  and  C_27
REMARK    4  A    between atoms: C_11  and  C_19
REMARK    5  A    between atoms: C_13  and  C_21
REMARK    6  A    between atoms: C_13  and  C_22
REMARK    7  A    between atoms: C_14  and  C_24
REMARK    8  A    between atoms: C_24  and  C_25
REMARK    9  A    between atoms: C_27  and  C_29
REMARK   10  A    between atoms: C_28  and  C_30
REMARK   11  A    between atoms: C_30  and  C_31
REMARK   12  A    between atoms: C_31  and  C_34
REMARK   13  A    between atoms: C_34  and  C_37
REMARK   14  A    between atoms: C_37  and  C_39
REMARK                            x       y       z     vdW  Elec       q    Type
REMARK                         _______ _______ _______ _____ _____    ______ ____
ROOT
ATOM      1  S   UNL     1      -1.074  -1.104  23.589  0.00  0.00    -0.057 S 
ATOM      7  O   UNL     1       2.885   1.342  23.343  0.00  0.00    -0.275 OA
ATOM      8  N   UNL     1      -0.011   1.222  23.971  0.00  0.00    -0.229 NA
ATOM     10  N   UNL     1       1.447  -0.520  23.169  0.00  0.00    -0.265 N 
ATOM     11  C   UNL     1      -3.546   2.572  24.716  0.00  0.00    -0.019 C 
ATOM     12  C   UNL     1      -4.038   1.179  25.309  0.00  0.00    +0.011 C 
ATOM     13  C   UNL     1      -5.560   1.069  25.709  0.00  0.00    +0.021 C 
ATOM     14  C   UNL     1      -1.951   2.608  24.799  0.00  0.00    +0.054 C 
ATOM     15  C   UNL     1      -4.107   3.729  25.582  0.00  0.00    +0.010 C 
ATOM     16  C   UNL     1      -5.966   2.325  26.530  0.00  0.00    +0.123 C 
ATOM     17  C   UNL     1      -3.527  -0.017  24.454  0.00  0.00    +0.049 C 
ATOM     18  C   UNL     1      -5.604   3.636  25.841  0.00  0.00    +0.032 C 
ATOM     19  C   UNL     1      -3.989   2.790  23.248  0.00  0.00    +0.012 C 
ATOM     20  C   UNL     1      -1.353   1.320  24.292  0.00  0.00    +0.058 A 
ATOM     22  C   UNL     1      -5.754  -0.168  26.630  0.00  0.00    +0.016 C 
ATOM     23  C   UNL     1      -2.074   0.150  24.163  0.00  0.00    +0.015 A 
ATOM     26  C   UNL     1       0.246  -0.007  23.581  0.00  0.00    +0.165 A 
ATOM     28  C   UNL     1       2.673   0.165  23.074  0.00  0.00    +0.219 C 
ATOM     43  H   UNL     1       1.426  -1.503  22.908  0.00  0.00    +0.157 HD
ENDROOT
BRANCH  16   4
ATOM      4  O   UNL     1      -7.368   2.320  26.797  0.00  0.00    -0.391 OA
ATOM     40  H   UNL     1      -7.663   1.393  26.806  0.00  0.00    +0.210 HD
ENDBRANCH  16   4
BRANCH  13  21
ATOM     21  C   UNL     1      -6.521   0.855  24.518  0.00  0.00    +0.165 C 
BRANCH  21   5
ATOM      5  O   UNL     1      -7.400   1.956  24.470  0.00  0.00    -0.394 OA
ATOM     41  H   UNL     1      -7.051   2.576  23.807  0.00  0.00    +0.209 HD
ENDBRANCH  21   5
ENDBRANCH  13  21
BRANCH  14  24
ATOM     24  C   UNL     1      -1.303   3.828  24.130  0.00  0.00    +0.106 C 
BRANCH  24  25
ATOM      6  O   UNL     1       0.327   5.469  24.839  0.00  0.00    -0.276 OA
ATOM      9  N   UNL     1       0.465   3.294  25.645  0.00  0.00    -0.311 N 
ATOM     25  C   UNL     1      -0.093   4.316  24.892  0.00  0.00    +0.214 C 
ATOM     42  H   UNL     1       0.038   2.373  25.624  0.00  0.00    +0.149 HD
BRANCH   9  27
ATOM     27  C   UNL     1       1.635   3.472  26.474  0.00  0.00    +0.139 C 
BRANCH  27  29
ATOM      2  F   UNL     1       3.147   1.407  30.626  0.00  0.00    -0.205 F 
ATOM      3  F   UNL     1      -1.273   3.087  30.369  0.00  0.00    -0.205 F 
ATOM     29  C   UNL     1       1.390   3.042  27.891  0.00  0.00    -0.025 A 
ATOM     32  C   UNL     1       0.149   3.269  28.484  0.00  0.00    +0.043 A 
ATOM     33  C   UNL     1       2.404   2.412  28.614  0.00  0.00    +0.043 A 
ATOM     35  C   UNL     1       2.174   2.012  29.930  0.00  0.00    +0.126 A 
ATOM     36  C   UNL     1      -0.080   2.869  29.800  0.00  0.00    +0.126 A 
ATOM     38  C   UNL     1       0.933   2.241  30.524  0.00  0.00    +0.076 A 
ENDBRANCH  27  29
ENDBRANCH   9  27
ENDBRANCH  24  25
ENDBRANCH  14  24
BRANCH  28  30
ATOM     30  C   UNL     1       3.779  -0.757  22.576  0.00  0.00    +0.096 C 
BRANCH  30  31
ATOM     31  C   UNL     1       4.483  -1.498  23.711  0.00  0.00    +0.009 C 
BRANCH  31  34
ATOM     34  C   UNL     1       5.358  -0.553  24.534  0.00  0.00    +0.000 C 
BRANCH  34  37
ATOM     37  C   UNL     1       6.179   0.371  23.636  0.00  0.00    -0.003 C 
ATOM     39  C   UNL     1       7.313  -0.376  22.953  0.00  0.00    +0.004 C 
ENDBRANCH  34  37
ENDBRANCH  31  34
ENDBRANCH  30  31
ENDBRANCH  28  30
TORSDOF 11
ENDMDL
MODEL 2
REMARK VINA RESULT:      13.8      2.039      3.253
REMARK  Name = 11885093
REMARK  14 active torsions:
REMARK  status: ('A' for Active; 'I' for Inactive)
REMARK    1  A    between atoms: O_4  and  C_16
REMARK    2  A    between atoms: O_5  and  C_21
REMARK    3  A    between atoms: N_9  and  C_27
REMARK    4  A    between atoms: C_11  and  C_19
REMARK    5  A    between atoms: C_13  and  C_21
REMARK    6  A    between atoms: C_13  and  C_22
REMARK    7  A    between atoms: C_14  and  C_24
REMARK    8  A    between atoms: C_24  and  C_25
REMARK    9  A    between atoms: C_27  and  C_29
REMARK   10  A    between atoms: C_28  and  C_30
REMARK   11  A    between atoms: C_30  and  C_31
REMARK   12  A    between atoms: C_31  and  C_34
REMARK   13  A    between atoms: C_34  and  C_37
REMARK   14  A    between atoms: C_37  and  C_39
REMARK                            x       y       z     vdW  Elec       q    Type
REMARK                         _______ _______ _______ _____ _____    ______ ____
ROOT
ATOM      1  S   UNL     1       0.442   2.740  23.891  0.00  0.00    -0.057 S 
ATOM      7  O   UNL     1       2.890  -1.031  22.665  0.00  0.00    -0.275 OA
ATOM      8  N   UNL     1       0.304   0.197  23.439  0.00  0.00    -0.229 NA
ATOM     10  N   UNL     1       2.466   1.231  23.184  0.00  0.00    -0.265 N 
ATOM     11  C   UNL     1      -3.358   0.314  24.643  0.00  0.00    -0.019 C 
ATOM     12  C   UNL     1      -3.562   1.807  24.130  0.00  0.00    +0.011 C 
ATOM     13  C   UNL     1      -4.938   2.498  24.468  0.00  0.00    +0.021 C 
ATOM     14  C   UNL     1      -2.133  -0.322  23.838  0.00  0.00    +0.054 C 
ATOM     15  C   UNL     1      -4.630  -0.517  24.333  0.00  0.00    +0.010 C 
ATOM     16  C   UNL     1      -6.098   1.516  24.142  0.00  0.00    +0.123 C 
ATOM     17  C   UNL     1      -2.321   2.692  24.447  0.00  0.00    +0.049 C 
ATOM     18  C   UNL     1      -5.924   0.145  24.785  0.00  0.00    +0.032 C 
ATOM     19  C   UNL     1      -3.070   0.234  26.163  0.00  0.00    +0.012 C 
ATOM     20  C   UNL     1      -0.961   0.626  23.796  0.00  0.00    +0.058 A 
ATOM     22  C   UNL     1      -5.117   3.744  23.556  0.00  0.00    +0.016 C 
ATOM     23  C   UNL     1      -1.072   1.978  24.055  0.00  0.00    +0.015 A 
ATOM     26  C   UNL     1       1.125   1.225  23.463  0.00  0.00    +0.165 A 
ATOM     28  C   UNL     1       3.258   0.129  22.810  0.00  0.00    +0.219 C 
ATOM     43  H   UNL     1       2.916   2.140  23.263  0.00  0.00    +0.157 HD
ENDROOT
BRANCH  16   4
ATOM      4  O   UNL     1      -7.351   2.061  24.557  0.00  0.00    -0.391 OA
ATOM     40  H   UNL     1      -7.654   1.551  25.327  0.00  0.00    +0.210 HD
ENDBRANCH  16   4
BRANCH  13  21
ATOM     21  C   UNL     1      -5.052   3.024  25.917  0.00  0.00    +0.165 C 
BRANCH  21   5
ATOM      5  O   UNL     1      -6.065   4.004  25.942  0.00  0.00    -0.394 OA
ATOM     41  H   UNL     1      -6.589   3.859  26.748  0.00  0.00    +0.209 HD
ENDBRANCH  21   5
ENDBRANCH  13  21
BRANCH  14  24
ATOM     24  C   UNL     1      -1.708  -1.717  24.317  0.00  0.00    +0.106 C 
BRANCH  24  25
ATOM      6  O   UNL     1       0.386  -2.214  25.422  0.00  0.00    -0.276 OA
ATOM      9  N   UNL     1      -1.182  -0.869  26.487  0.00  0.00    -0.311 N 
ATOM     25  C   UNL     1      -0.704  -1.648  25.444  0.00  0.00    +0.214 C 
ATOM     42  H   UNL     1      -2.099  -0.438  26.405  0.00  0.00    +0.149 HD
BRANCH   9  27
ATOM     27  C   UNL     1      -0.435  -0.628  27.700  0.00  0.00    +0.139 C 
BRANCH  27  29
ATOM      2  F   UNL     1       2.389   2.773  29.761  0.00  0.00    -0.205 F 
ATOM      3  F   UNL     1      -0.234   3.936  25.994  0.00  0.00    -0.205 F 
ATOM     29  C   UNL     1       0.099   0.774  27.762  0.00  0.00    -0.025 A 
ATOM     32  C   UNL     1      -0.323   1.722  26.830  0.00  0.00    +0.043 A 
ATOM     33  C   UNL     1       1.015   1.129  28.753  0.00  0.00    +0.043 A 
ATOM     35  C   UNL     1       1.509   2.432  28.810  0.00  0.00    +0.126 A 
ATOM     36  C   UNL     1       0.172   3.025  26.888  0.00  0.00    +0.126 A 
ATOM     38  C   UNL     1       1.088   3.380  27.878  0.00  0.00    +0.076 A 
ENDBRANCH  27  29
ENDBRANCH   9  27
ENDBRANCH  24  25
ENDBRANCH  14  24
BRANCH  28  30
ATOM     30  C   UNL     1       4.706   0.546  22.584  0.00  0.00    +0.096 C 
BRANCH  30  31
ATOM     31  C   UNL     1       5.512   0.600  23.880  0.00  0.00    +0.009 C 
BRANCH  31  34
ATOM     34  C   UNL     1       6.463  -0.592  23.994  0.00  0.00    +0.000 C 
BRANCH  34  37
ATOM     37  C   UNL     1       7.426  -0.652  22.808  0.00  0.00    -0.003 C 
ATOM     39  C   UNL     1       8.805  -0.135  23.183  0.00  0.00    +0.004 C 
ENDBRANCH  34  37
ENDBRANCH  31  34
ENDBRANCH  30  31
ENDBRANCH  28  30
TORSDOF 11
ENDMDL
MODEL 3
REMARK VINA RESULT:      14.3      2.989      4.708
REMARK  Name = 11885093
REMARK  14 active torsions:
REMARK  status: ('A' for Active; 'I' for Inactive)
REMARK    1  A    between atoms: O_4  and  C_16
REMARK    2  A    between atoms: O_5  and  C_21
REMARK    3  A    between atoms: N_9  and  C_27
REMARK    4  A    between atoms: C_11  and  C_19
REMARK    5  A    between atoms: C_13  and  C_21
REMARK    6  A    between atoms: C_13  and  C_22
REMARK    7  A    between atoms: C_14  and  C_24
REMARK    8  A    between atoms: C_24  and  C_25
REMARK    9  A    between atoms: C_27  and  C_29
REMARK   10  A    between atoms: C_28  and  C_30
REMARK   11  A    between atoms: C_30  and  C_31
REMARK   12  A    between atoms: C_31  and  C_34
REMARK   13  A    between atoms: C_34  and  C_37
REMARK   14  A    between atoms: C_37  and  C_39
REMARK                            x       y       z     vdW  Elec       q    Type
REMARK                         _______ _______ _______ _____ _____    ______ ____
ROOT
ATOM      1  S   UNL     1       0.885   2.304  25.690  0.00  0.00    -0.057 S 
ATOM      7  O   UNL     1       2.585   1.010  21.548  0.00  0.00    -0.275 OA
ATOM      8  N   UNL     1       0.309   1.967  23.191  0.00  0.00    -0.229 NA
ATOM     10  N   UNL     1       2.570   1.471  23.862  0.00  0.00    -0.265 N 
ATOM     11  C   UNL     1      -3.367   2.737  24.068  0.00  0.00    -0.019 C 
ATOM     12  C   UNL     1      -2.960   3.714  25.257  0.00  0.00    +0.011 C 
ATOM     13  C   UNL     1      -4.132   4.296  26.138  0.00  0.00    +0.021 C 
ATOM     14  C   UNL     1      -2.123   2.630  23.070  0.00  0.00    +0.054 C 
ATOM     15  C   UNL     1      -4.565   3.341  23.290  0.00  0.00    +0.010 C 
ATOM     16  C   UNL     1      -5.264   4.814  25.206  0.00  0.00    +0.123 C 
ATOM     17  C   UNL     1      -1.779   3.136  26.090  0.00  0.00    +0.049 C 
ATOM     18  C   UNL     1      -5.719   3.781  24.180  0.00  0.00    +0.032 C 
ATOM     19  C   UNL     1      -3.755   1.321  24.558  0.00  0.00    +0.012 C 
ATOM     20  C   UNL     1      -0.839   2.401  23.828  0.00  0.00    +0.058 A 
ATOM     22  C   UNL     1      -3.603   5.515  26.944  0.00  0.00    +0.016 C 
ATOM     23  C   UNL     1      -0.702   2.651  25.178  0.00  0.00    +0.015 A 
ATOM     26  C   UNL     1       1.278   1.873  24.075  0.00  0.00    +0.165 A 
ATOM     28  C   UNL     1       3.141   1.071  22.639  0.00  0.00    +0.219 C 
ATOM     43  H   UNL     1       3.161   1.471  24.689  0.00  0.00    +0.157 HD
ENDROOT
BRANCH  16   4
ATOM      4  O   UNL     1      -6.395   5.228  25.972  0.00  0.00    -0.391 OA
ATOM     40  H   UNL     1      -6.238   4.966  26.895  0.00  0.00    +0.210 HD
ENDBRANCH  16   4
BRANCH  13  21
ATOM     21  C   UNL     1      -4.692   3.312  27.190  0.00  0.00    +0.165 C 
BRANCH  21   5
ATOM      5  O   UNL     1      -5.847   2.712  26.648  0.00  0.00    -0.394 OA
ATOM     41  H   UNL     1      -5.642   1.774  26.496  0.00  0.00    +0.209 HD
ENDBRANCH  21   5
ENDBRANCH  13  21
BRANCH  14  24
ATOM     24  C   UNL     1      -2.297   1.608  21.939  0.00  0.00    +0.106 C 
BRANCH  24  25
ATOM      6  O   UNL     1      -3.244  -0.541  22.521  0.00  0.00    -0.276 OA
ATOM      9  N   UNL     1      -0.969  -0.172  22.818  0.00  0.00    -0.311 N 
ATOM     25  C   UNL     1      -2.256   0.186  22.449  0.00  0.00    +0.214 C 
ATOM     42  H   UNL     1      -0.217   0.503  22.714  0.00  0.00    +0.149 HD
BRANCH   9  27
ATOM     27  C   UNL     1      -0.631  -1.476  23.344  0.00  0.00    +0.139 C 
BRANCH  27  29
ATOM      2  F   UNL     1      -4.283  -4.461  24.584  0.00  0.00    -0.205 F 
ATOM      3  F   UNL     1      -2.771  -1.250  27.720  0.00  0.00    -0.205 F 
ATOM     29  C   UNL     1      -1.650  -1.963  24.333  0.00  0.00    -0.025 A 
ATOM     32  C   UNL     1      -1.739  -1.369  25.592  0.00  0.00    +0.043 A 
ATOM     33  C   UNL     1      -2.510  -3.007  23.992  0.00  0.00    +0.043 A 
ATOM     35  C   UNL     1      -3.457  -3.458  24.911  0.00  0.00    +0.126 A 
ATOM     36  C   UNL     1      -2.686  -1.821  26.511  0.00  0.00    +0.126 A 
ATOM     38  C   UNL     1      -3.545  -2.865  26.171  0.00  0.00    +0.076 A 
ENDBRANCH  27  29
ENDBRANCH   9  27
ENDBRANCH  24  25
ENDBRANCH  14  24
BRANCH  28  30
ATOM     30  C   UNL     1       4.608   0.700  22.814  0.00  0.00    +0.096 C 
BRANCH  30  31
ATOM     31  C   UNL     1       5.045   0.702  24.278  0.00  0.00    +0.009 C 
BRANCH  31  34
ATOM     34  C   UNL     1       5.724  -0.614  24.658  0.00  0.00    +0.000 C 
BRANCH  34  37
ATOM     37  C   UNL     1       5.234  -1.767  23.782  0.00  0.00    -0.003 C 
ATOM     39  C   UNL     1       3.749  -2.025  23.979  0.00  0.00    +0.004 C 
ENDBRANCH  34  37
ENDBRANCH  31  34
ENDBRANCH  30  31
ENDBRANCH  28  30
TORSDOF 11
ENDMDL
MODEL 4
REMARK VINA RESULT:      14.5      3.090      4.420
REMARK  Name = 11885093
REMARK  14 active torsions:
REMARK  status: ('A' for Active; 'I' for Inactive)
REMARK    1  A    between atoms: O_4  and  C_16
REMARK    2  A    between atoms: O_5  and  C_21
REMARK    3  A    between atoms: N_9  and  C_27
REMARK    4  A    between atoms: C_11  and  C_19
REMARK    5  A    between atoms: C_13  and  C_21
REMARK    6  A    between atoms: C_13  and  C_22
REMARK    7  A    between atoms: C_14  and  C_24
REMARK    8  A    between atoms: C_24  and  C_25
REMARK    9  A    between atoms: C_27  and  C_29
REMARK   10  A    between atoms: C_28  and  C_30
REMARK   11  A    between atoms: C_30  and  C_31
REMARK   12  A    between atoms: C_31  and  C_34
REMARK   13  A    between atoms: C_34  and  C_37
REMARK   14  A    between atoms: C_37  and  C_39
REMARK                            x       y       z     vdW  Elec       q    Type
REMARK                         _______ _______ _______ _____ _____    ______ ____
ROOT
ATOM      1  S   UNL     1       1.564  -1.961  23.561  0.00  0.00    -0.057 S 
ATOM      7  O   UNL     1       4.802   1.389  23.518  0.00  0.00    -0.275 OA
ATOM      8  N   UNL     1       1.954   0.590  23.719  0.00  0.00    -0.229 NA
ATOM     10  N   UNL     1       3.907  -0.792  23.432  0.00  0.00    -0.265 N 
ATOM     11  C   UNL     1      -1.876   1.045  23.703  0.00  0.00    -0.019 C 
ATOM     12  C   UNL     1      -2.123  -0.348  24.433  0.00  0.00    +0.011 C 
ATOM     13  C   UNL     1      -3.621  -0.805  24.614  0.00  0.00    +0.021 C 
ATOM     14  C   UNL     1      -0.378   1.507  24.016  0.00  0.00    +0.054 C 
ATOM     15  C   UNL     1      -2.846   2.109  24.280  0.00  0.00    +0.010 C 
ATOM     16  C   UNL     1      -4.459   0.389  25.154  0.00  0.00    +0.123 C 
ATOM     17  C   UNL     1      -1.193  -1.460  23.866  0.00  0.00    +0.049 C 
ATOM     18  C   UNL     1      -4.299   1.659  24.325  0.00  0.00    +0.032 C 
ATOM     19  C   UNL     1      -2.080   0.966  22.170  0.00  0.00    +0.012 C 
ATOM     20  C   UNL     1       0.592   0.370  23.817  0.00  0.00    +0.058 A 
ATOM     22  C   UNL     1      -3.682  -1.932  25.683  0.00  0.00    +0.016 C 
ATOM     23  C   UNL     1       0.207  -0.954  23.771  0.00  0.00    +0.015 A 
ATOM     26  C   UNL     1       2.564  -0.566  23.574  0.00  0.00    +0.165 A 
ATOM     28  C   UNL     1       4.930   0.174  23.412  0.00  0.00    +0.219 C 
ATOM     43  H   UNL     1       4.169  -1.769  23.333  0.00  0.00    +0.157 HD
ENDROOT
BRANCH  16   4
ATOM      4  O   UNL     1      -5.844   0.048  25.207  0.00  0.00    -0.391 OA
ATOM     40  H   UNL     1      -5.995  -0.672  24.571  0.00  0.00    +0.210 HD
ENDBRANCH  16   4
BRANCH  13  21
ATOM     21  C   UNL     1      -4.268  -1.402  23.344  0.00  0.00    +0.165 C 
BRANCH  21   5
ATOM      5  O   UNL     1      -4.430  -2.786  23.551  0.00  0.00    -0.394 OA
ATOM     41  H   UNL     1      -4.589  -2.920  24.501  0.00  0.00    +0.209 HD
ENDBRANCH  21   5
ENDBRANCH  13  21
BRANCH  14  24
ATOM     24  C   UNL     1       0.072   2.767  23.264  0.00  0.00    +0.106 C 
BRANCH  24  25
ATOM      6  O   UNL     1      -0.243   5.157  23.468  0.00  0.00    -0.276 OA
ATOM      9  N   UNL     1      -1.263   3.731  24.994  0.00  0.00    -0.311 N 
ATOM     25  C   UNL     1      -0.476   4.028  23.891  0.00  0.00    +0.214 C 
ATOM     42  H   UNL     1      -1.398   2.761  25.261  0.00  0.00    +0.149 HD
BRANCH   9  27
ATOM     27  C   UNL     1      -1.916   4.743  25.793  0.00  0.00    +0.139 C 
BRANCH  27  29
ATOM      2  F   UNL     1      -6.417   6.086  24.477  0.00  0.00    -0.205 F 
ATOM      3  F   UNL     1      -5.874   2.340  27.323  0.00  0.00    -0.205 F 
ATOM     29  C   UNL     1      -3.405   4.556  25.829  0.00  0.00    -0.025 A 
ATOM     32  C   UNL     1      -3.959   3.514  26.573  0.00  0.00    +0.043 A 
ATOM     33  C   UNL     1      -4.236   5.425  25.121  0.00  0.00    +0.043 A 
ATOM     35  C   UNL     1      -5.619   5.251  25.156  0.00  0.00    +0.126 A 
ATOM     36  C   UNL     1      -5.342   3.340  26.607  0.00  0.00    +0.126 A 
ATOM     38  C   UNL     1      -6.172   4.208  25.899  0.00  0.00    +0.076 A 
ENDBRANCH  27  29
ENDBRANCH   9  27
ENDBRANCH  24  25
ENDBRANCH  14  24
BRANCH  28  30
ATOM     30  C   UNL     1       6.296  -0.477  23.238  0.00  0.00    +0.096 C 
BRANCH  30  31
ATOM     31  C   UNL     1       7.448   0.495  23.487  0.00  0.00    +0.009 C 
BRANCH  31  34
ATOM     34  C   UNL     1       8.781  -0.090  23.020  0.00  0.00    +0.000 C 
BRANCH  34  37
ATOM     37  C   UNL     1       9.908   0.242  23.998  0.00  0.00    -0.003 C 
ATOM     39  C   UNL     1       9.902   1.714  24.377  0.00  0.00    +0.004 C 
ENDBRANCH  34  37
ENDBRANCH  31  34
ENDBRANCH  30  31
ENDBRANCH  28  30
TORSDOF 11
ENDMDL
MODEL 5
REMARK VINA RESULT:      14.6      2.883      4.458
REMARK  Name = 11885093
REMARK  14 active torsions:
REMARK  status: ('A' for Active; 'I' for Inactive)
REMARK    1  A    between atoms: O_4  and  C_16
REMARK    2  A    between atoms: O_5  and  C_21
REMARK    3  A    between atoms: N_9  and  C_27
REMARK    4  A    between atoms: C_11  and  C_19
REMARK    5  A    between atoms: C_13  and  C_21
REMARK    6  A    between atoms: C_13  and  C_22
REMARK    7  A    between atoms: C_14  and  C_24
REMARK    8  A    between atoms: C_24  and  C_25
REMARK    9  A    between atoms: C_27  and  C_29
REMARK   10  A    between atoms: C_28  and  C_30
REMARK   11  A    between atoms: C_30  and  C_31
REMARK   12  A    between atoms: C_31  and  C_34
REMARK   13  A    between atoms: C_34  and  C_37
REMARK   14  A    between atoms: C_37  and  C_39
REMARK                            x       y       z     vdW  Elec       q    Type
REMARK                         _______ _______ _______ _____ _____    ______ ____
ROOT
ATOM      1  S   UNL     1       0.520   2.207  25.331  0.00  0.00    -0.057 S 
ATOM      7  O   UNL     1       1.614   0.083  21.330  0.00  0.00    -0.275 OA
ATOM      8  N   UNL     1      -0.404   1.409  23.051  0.00  0.00    -0.229 NA
ATOM     10  N   UNL     1       1.928   0.985  23.487  0.00  0.00    -0.265 N 
ATOM     11  C   UNL     1      -3.917   2.445  24.259  0.00  0.00    -0.019 C 
ATOM     12  C   UNL     1      -3.344   3.621  25.166  0.00  0.00    +0.011 C 
ATOM     13  C   UNL     1      -4.377   4.398  26.069  0.00  0.00    +0.021 C 
ATOM     14  C   UNL     1      -2.826   2.109  23.140  0.00  0.00    +0.054 C 
ATOM     15  C   UNL     1      -5.212   2.923  23.552  0.00  0.00    +0.010 C 
ATOM     16  C   UNL     1      -5.629   4.759  25.219  0.00  0.00    +0.123 C 
ATOM     17  C   UNL     1      -2.057   3.180  25.924  0.00  0.00    +0.049 C 
ATOM     18  C   UNL     1      -6.226   3.561  24.489  0.00  0.00    +0.032 C 
ATOM     19  C   UNL     1      -4.235   1.163  25.067  0.00  0.00    +0.012 C 
ATOM     20  C   UNL     1      -1.449   1.992  23.743  0.00  0.00    +0.058 A 
ATOM     22  C   UNL     1      -3.737   5.734  26.539  0.00  0.00    +0.016 C 
ATOM     23  C   UNL     1      -1.122   2.496  24.986  0.00  0.00    +0.015 A 
ATOM     26  C   UNL     1       0.681   1.459  23.794  0.00  0.00    +0.165 A 
ATOM     28  C   UNL     1       2.320   0.338  22.300  0.00  0.00    +0.219 C 
ATOM     43  H   UNL     1       2.630   1.128  24.208  0.00  0.00    +0.157 HD
ENDROOT
BRANCH  16   4
ATOM      4  O   UNL     1      -6.639   5.348  26.037  0.00  0.00    -0.391 OA
ATOM     40  H   UNL     1      -6.884   6.199  25.636  0.00  0.00    +0.210 HD
ENDBRANCH  16   4
BRANCH  13  21
ATOM     21  C   UNL     1      -4.785   3.655  27.361  0.00  0.00    +0.165 C 
BRANCH  21   5
ATOM      5  O   UNL     1      -5.875   2.817  27.051  0.00  0.00    -0.394 OA
ATOM     41  H   UNL     1      -5.517   1.933  26.863  0.00  0.00    +0.209 HD
ENDBRANCH  21   5
ENDBRANCH  13  21
BRANCH  14  24
ATOM     24  C   UNL     1      -3.161   0.892  22.267  0.00  0.00    +0.106 C 
BRANCH  24  25
ATOM      6  O   UNL     1      -1.547  -0.843  22.754  0.00  0.00    -0.276 OA
ATOM      9  N   UNL     1      -3.699  -1.002  23.618  0.00  0.00    -0.311 N 
ATOM     25  C   UNL     1      -2.685  -0.400  22.889  0.00  0.00    +0.214 C 
ATOM     42  H   UNL     1      -4.607  -0.551  23.672  0.00  0.00    +0.149 HD
BRANCH   9  27
ATOM     27  C   UNL     1      -3.529  -2.253  24.322  0.00  0.00    +0.139 C 
BRANCH  27  29
ATOM      2  F   UNL     1      -0.569  -0.338  27.691  0.00  0.00    -0.205 F 
ATOM      3  F   UNL     1       0.731  -4.321  25.485  0.00  0.00    -0.205 F 
ATOM     29  C   UNL     1      -2.259  -2.281  25.121  0.00  0.00    -0.025 A 
ATOM     32  C   UNL     1      -1.336  -3.309  24.929  0.00  0.00    +0.043 A 
ATOM     33  C   UNL     1      -2.000  -1.276  26.054  0.00  0.00    +0.043 A 
ATOM     35  C   UNL     1      -0.819  -1.302  26.795  0.00  0.00    +0.126 A 
ATOM     36  C   UNL     1      -0.156  -3.334  25.671  0.00  0.00    +0.126 A 
ATOM     38  C   UNL     1       0.104  -2.331  26.604  0.00  0.00    +0.076 A 
ENDBRANCH  27  29
ENDBRANCH   9  27
ENDBRANCH  24  25
ENDBRANCH  14  24
BRANCH  28  30
ATOM     30  C   UNL     1       3.796  -0.035  22.339  0.00  0.00    +0.096 C 
BRANCH  30  31
ATOM     31  C   UNL     1       4.658   1.044  22.991  0.00  0.00    +0.009 C 
BRANCH  31  34
ATOM     34  C   UNL     1       5.398   0.502  24.214  0.00  0.00    +0.000 C 
BRANCH  34  37
ATOM     37  C   UNL     1       5.825  -0.951  24.009  0.00  0.00    -0.003 C 
ATOM     39  C   UNL     1       4.634  -1.894  24.048  0.00  0.00    +0.004 C 
ENDBRANCH  34  37
ENDBRANCH  31  34
ENDBRANCH  30  31
ENDBRANCH  28  30
TORSDOF 11
ENDMDL
MODEL 6
REMARK VINA RESULT:      14.7      1.429      2.106
REMARK  Name = 11885093
REMARK  14 active torsions:
REMARK  status: ('A' for Active; 'I' for Inactive)
REMARK    1  A    between atoms: O_4  and  C_16
REMARK    2  A    between atoms: O_5  and  C_21
REMARK    3  A    between atoms: N_9  and  C_27
REMARK    4  A    between atoms: C_11  and  C_19
REMARK    5  A    between atoms: C_13  and  C_21
REMARK    6  A    between atoms: C_13  and  C_22
REMARK    7  A    between atoms: C_14  and  C_24
REMARK    8  A    between atoms: C_24  and  C_25
REMARK    9  A    between atoms: C_27  and  C_29
REMARK   10  A    between atoms: C_28  and  C_30
REMARK   11  A    between atoms: C_30  and  C_31
REMARK   12  A    between atoms: C_31  and  C_34
REMARK   13  A    between atoms: C_34  and  C_37
REMARK   14  A    between atoms: C_37  and  C_39
REMARK                            x       y       z     vdW  Elec       q    Type
REMARK                         _______ _______ _______ _____ _____    ______ ____
ROOT
ATOM      1  S   UNL     1       0.502  -1.225  23.120  0.00  0.00    -0.057 S 
ATOM      7  O   UNL     1       3.818   2.043  22.912  0.00  0.00    -0.275 OA
ATOM      8  N   UNL     1       1.029   1.268  23.559  0.00  0.00    -0.229 NA
ATOM     10  N   UNL     1       2.826  -0.087  22.696  0.00  0.00    -0.265 N 
ATOM     11  C   UNL     1      -2.706   1.782  24.368  0.00  0.00    -0.019 C 
ATOM     12  C   UNL     1      -2.870   0.300  24.926  0.00  0.00    +0.011 C 
ATOM     13  C   UNL     1      -4.323  -0.155  25.334  0.00  0.00    +0.021 C 
ATOM     14  C   UNL     1      -1.157   2.168  24.440  0.00  0.00    +0.054 C 
ATOM     15  C   UNL     1      -3.497   2.764  25.271  0.00  0.00    +0.010 C 
ATOM     16  C   UNL     1      -4.986   0.958  26.194  0.00  0.00    +0.123 C 
ATOM     17  C   UNL     1      -2.118  -0.731  24.034  0.00  0.00    +0.049 C 
ATOM     18  C   UNL     1      -4.932   2.335  25.539  0.00  0.00    +0.032 C 
ATOM     19  C   UNL     1      -3.207   1.934  22.911  0.00  0.00    +0.012 C 
ATOM     20  C   UNL     1      -0.296   1.058  23.893  0.00  0.00    +0.058 A 
ATOM     22  C   UNL     1      -4.226  -1.428  26.222  0.00  0.00    +0.016 C 
ATOM     23  C   UNL     1      -0.742  -0.239  23.736  0.00  0.00    +0.015 A 
ATOM     26  C   UNL     1       1.547   0.137  23.132  0.00  0.00    +0.165 A 
ATOM     28  C   UNL     1       3.868   0.855  22.611  0.00  0.00    +0.219 C 
ATOM     43  H   UNL     1       3.020  -1.043  22.409  0.00  0.00    +0.157 HD
ENDROOT
BRANCH  16   4
ATOM      4  O   UNL     1      -6.349   0.635  26.471  0.00  0.00    -0.391 OA
ATOM     40  H   UNL     1      -6.549   0.951  27.369  0.00  0.00    +0.210 HD
ENDBRANCH  16   4
BRANCH  13  21
ATOM     21  C   UNL     1      -5.230  -0.546  24.146  0.00  0.00    +0.165 C 
BRANCH  21   5
ATOM      5  O   UNL     1      -4.895  -1.860  23.761  0.00  0.00    -0.394 OA
ATOM     41  H   UNL     1      -4.159  -1.798  23.129  0.00  0.00    +0.209 HD
ENDBRANCH  21   5
ENDBRANCH  13  21
BRANCH  14  24
ATOM     24  C   UNL     1      -0.805   3.518  23.801  0.00  0.00    +0.106 C 
BRANCH  24  25
ATOM      6  O   UNL     1      -0.343   5.714  24.706  0.00  0.00    -0.276 OA
ATOM      9  N   UNL     1       0.386   3.826  25.848  0.00  0.00    -0.311 N 
ATOM     25  C   UNL     1      -0.245   4.494  24.809  0.00  0.00    +0.214 C 
ATOM     42  H   UNL     1       0.409   2.810  25.844  0.00  0.00    +0.149 HD
BRANCH   9  27
ATOM     27  C   UNL     1       1.017   4.505  26.957  0.00  0.00    +0.139 C 
BRANCH  27  29
ATOM      2  F   UNL     1       0.560   1.991  31.110  0.00  0.00    -0.205 F 
ATOM      3  F   UNL     1       4.540   1.553  28.583  0.00  0.00    -0.205 F 
ATOM     29  C   UNL     1       1.556   3.541  27.974  0.00  0.00    -0.025 A 
ATOM     32  C   UNL     1       2.822   2.983  27.802  0.00  0.00    +0.043 A 
ATOM     33  C   UNL     1       0.791   3.207  29.092  0.00  0.00    +0.043 A 
ATOM     35  C   UNL     1       1.293   2.312  30.037  0.00  0.00    +0.126 A 
ATOM     36  C   UNL     1       3.324   2.088  28.747  0.00  0.00    +0.126 A 
ATOM     38  C   UNL     1       2.560   1.753  29.864  0.00  0.00    +0.076 A 
ENDBRANCH  27  29
ENDBRANCH   9  27
ENDBRANCH  24  25
ENDBRANCH  14  24
BRANCH  28  30
ATOM     30  C   UNL     1       5.144   0.215  22.079  0.00  0.00    +0.096 C 
BRANCH  30  31
ATOM     31  C   UNL     1       6.270   0.201  23.111  0.00  0.00    +0.009 C 
BRANCH  31  34
ATOM     34  C   UNL     1       5.735  -0.083  24.515  0.00  0.00    +0.000 C 
BRANCH  34  37
ATOM     37  C   UNL     1       5.662  -1.585  24.790  0.00  0.00    -0.003 C 
ATOM     39  C   UNL     1       4.585  -2.254  23.950  0.00  0.00    +0.004 C 
ENDBRANCH  34  37
ENDBRANCH  31  34
ENDBRANCH  30  31
ENDBRANCH  28  30
TORSDOF 11
ENDMDL
