MODEL 1
REMARK VINA RESULT:      10.6      0.000      0.000
REMARK  Name = 7134303
REMARK  9 active torsions:
REMARK  status: ('A' for Active; 'I' for Inactive)
REMARK    1  A    between atoms: N_8  and  C_14
REMARK    2  A    between atoms: N_9  and  C_21
REMARK    3  A    between atoms: C_15  and  C_19
REMARK    4  A    between atoms: C_20  and  C_24
REMARK    5  A    between atoms: C_21  and  C_22
REMARK    6  A    between atoms: C_21  and  C_26
REMARK    7  A    between atoms: C_22  and  C_25
REMARK    8  A    between atoms: C_23  and  C_27
REMARK    9  A    between atoms: C_32  and  C_39
REMARK                            x       y       z     vdW  Elec       q    Type
REMARK                         _______ _______ _______ _____ _____    ______ ____
ROOT
ATOM      3  O   UNL     1      -2.368  -0.051  26.437  0.00  0.00    -0.267 OA
ATOM      7  N   UNL     1      -1.002   0.155  24.571  0.00  0.00    -0.283 N 
ATOM     14  C   UNL     1       1.569   0.991  23.449  0.00  0.00    +0.077 C 
ATOM     15  C   UNL     1      -0.329   1.336  25.123  0.00  0.00    +0.164 C 
ATOM     16  C   UNL     1       1.181   1.357  24.884  0.00  0.00    +0.054 C 
ATOM     17  C   UNL     1       0.910  -0.329  23.053  0.00  0.00    +0.041 C 
ATOM     18  C   UNL     1      -0.604  -0.263  23.215  0.00  0.00    +0.111 C 
ATOM     20  C   UNL     1      -2.063  -0.426  25.303  0.00  0.00    +0.283 C 
ENDROOT
BRANCH  20  24
ATOM      4  O   UNL     1      -3.946  -1.180  24.010  0.00  0.00    -0.458 OA
ATOM     24  C   UNL     1      -2.809  -1.508  24.668  0.00  0.00    +0.189 A 
ATOM     29  C   UNL     1      -2.569  -2.853  24.607  0.00  0.00    +0.054 A 
ATOM     33  C   UNL     1      -3.637  -3.401  23.855  0.00  0.00    +0.042 A 
ATOM     35  C   UNL     1      -4.447  -2.342  23.516  0.00  0.00    +0.196 A 
ENDBRANCH  20  24
BRANCH  15  19
ATOM      2  O   UNL     1      -1.032   2.734  23.319  0.00  0.00    -0.274 OA
ATOM      9  N   UNL     1      -1.573   3.350  25.497  0.00  0.00    -0.302 N 
ATOM     19  C   UNL     1      -1.014   2.532  24.530  0.00  0.00    +0.234 C 
ATOM     41  H   UNL     1      -1.552   3.051  26.469  0.00  0.00    +0.150 HD
BRANCH   9  21
ATOM     21  C   UNL     1      -2.271   4.577  25.189  0.00  0.00    +0.163 C 
BRANCH  21  26
ATOM      6  O   UNL     1      -1.412   6.841  24.992  0.00  0.00    -0.274 OA
ATOM     11  N   UNL     1       0.008   5.087  24.566  0.00  0.00    -0.328 N 
ATOM     26  C   UNL     1      -1.214   5.632  24.898  0.00  0.00    +0.231 C 
ATOM     43  H   UNL     1       0.163   4.084  24.516  0.00  0.00    +0.145 HD
ATOM     44  H   UNL     1       0.804   5.681  24.361  0.00  0.00    +0.145 HD
ENDBRANCH  21  26
BRANCH  21  22
ATOM     22  C   UNL     1      -3.219   4.423  23.993  0.00  0.00    +0.069 C 
BRANCH  22  25
ATOM     10  N   UNL     1      -4.760   1.152  23.486  0.00  0.00    -0.360 N 
ATOM     25  C   UNL     1      -3.991   3.125  24.035  0.00  0.00    -0.020 A 
ATOM     28  C   UNL     1      -4.883   2.741  25.048  0.00  0.00    +0.003 A 
ATOM     30  C   UNL     1      -3.920   2.157  23.087  0.00  0.00    +0.087 A 
ATOM     31  C   UNL     1      -5.361   1.481  24.679  0.00  0.00    +0.047 A 
ATOM     34  C   UNL     1      -5.345   3.318  26.247  0.00  0.00    +0.010 A 
ATOM     36  C   UNL     1      -6.284   0.768  25.455  0.00  0.00    +0.026 A 
ATOM     37  C   UNL     1      -6.268   2.617  27.031  0.00  0.00    +0.001 A 
ATOM     38  C   UNL     1      -6.729   1.362  26.639  0.00  0.00    +0.002 A 
ATOM     42  H   UNL     1      -4.917   0.293  22.978  0.00  0.00    +0.165 HD
ENDBRANCH  22  25
ENDBRANCH  21  22
ENDBRANCH   9  21
ENDBRANCH  15  19
BRANCH  14   8
ATOM      5  O   UNL     1       3.129  -1.334  23.788  0.00  0.00    -0.270 OA
ATOM      8  N   UNL     1       3.003   0.910  23.313  0.00  0.00    -0.308 N 
ATOM     23  C   UNL     1       3.702  -0.283  23.497  0.00  0.00    +0.254 C 
ATOM     40  H   UNL     1       3.509   1.741  23.020  0.00  0.00    +0.149 HD
BRANCH  23  27
ATOM      1  S   UNL     1       5.872  -1.099  22.042  0.00  0.00    +0.041 S 
ATOM     12  N   UNL     1       7.386   0.298  23.470  0.00  0.00    -0.146 NA
ATOM     13  N   UNL     1       7.397  -0.532  22.439  0.00  0.00    -0.110 NA
ATOM     27  C   UNL     1       5.155  -0.211  23.291  0.00  0.00    +0.117 A 
ATOM     32  C   UNL     1       6.102   0.481  23.959  0.00  0.00    +0.081 A 
ATOM     39  C   UNL     1       5.919   1.383  25.114  0.00  0.00    +0.069 C 
ENDBRANCH  23  27
ENDBRANCH  14   8
TORSDOF 8
ENDMDL
MODEL 2
REMARK VINA RESULT:      10.6      1.395      2.210
REMARK  Name = 7134303
REMARK  9 active torsions:
REMARK  status: ('A' for Active; 'I' for Inactive)
REMARK    1  A    between atoms: N_8  and  C_14
REMARK    2  A    between atoms: N_9  and  C_21
REMARK    3  A    between atoms: C_15  and  C_19
REMARK    4  A    between atoms: C_20  and  C_24
REMARK    5  A    between atoms: C_21  and  C_22
REMARK    6  A    between atoms: C_21  and  C_26
REMARK    7  A    between atoms: C_22  and  C_25
REMARK    8  A    between atoms: C_23  and  C_27
REMARK    9  A    between atoms: C_32  and  C_39
REMARK                            x       y       z     vdW  Elec       q    Type
REMARK                         _______ _______ _______ _____ _____    ______ ____
ROOT
ATOM      3  O   UNL     1      -2.797   0.934  26.211  0.00  0.00    -0.267 OA
ATOM      7  N   UNL     1      -1.194   0.671  24.552  0.00  0.00    -0.283 N 
ATOM     14  C   UNL     1       1.591   0.988  23.711  0.00  0.00    +0.077 C 
ATOM     15  C   UNL     1      -0.429   1.829  25.029  0.00  0.00    +0.164 C 
ATOM     16  C   UNL     1       1.085   1.620  25.010  0.00  0.00    +0.054 C 
ATOM     17  C   UNL     1       0.800  -0.282  23.408  0.00  0.00    +0.041 C 
ATOM     18  C   UNL     1      -0.697  -0.000  23.338  0.00  0.00    +0.111 C 
ATOM     20  C   UNL     1      -2.412   0.351  25.195  0.00  0.00    +0.283 C 
ENDROOT
BRANCH  20  24
ATOM      4  O   UNL     1      -2.913  -1.988  24.944  0.00  0.00    -0.458 OA
ATOM     24  C   UNL     1      -3.224  -0.713  24.614  0.00  0.00    +0.189 A 
ATOM     29  C   UNL     1      -4.289  -0.667  23.757  0.00  0.00    +0.054 A 
ATOM     33  C   UNL     1      -4.668  -2.014  23.542  0.00  0.00    +0.042 A 
ATOM     35  C   UNL     1      -3.800  -2.779  24.286  0.00  0.00    +0.196 A 
ENDBRANCH  20  24
BRANCH  15  19
ATOM      2  O   UNL     1      -0.225   4.052  24.178  0.00  0.00    -0.274 OA
ATOM      9  N   UNL     1      -2.005   2.731  23.465  0.00  0.00    -0.302 N 
ATOM     19  C   UNL     1      -0.851   2.995  24.184  0.00  0.00    +0.234 C 
ATOM     41  H   UNL     1      -2.404   1.797  23.498  0.00  0.00    +0.150 HD
BRANCH   9  21
ATOM     21  C   UNL     1      -2.632   3.697  22.592  0.00  0.00    +0.163 C 
BRANCH  21  26
ATOM      6  O   UNL     1      -4.415   3.229  21.010  0.00  0.00    -0.274 OA
ATOM     11  N   UNL     1      -2.579   1.848  21.036  0.00  0.00    -0.328 N 
ATOM     26  C   UNL     1      -3.326   2.916  21.486  0.00  0.00    +0.231 C 
ATOM     43  H   UNL     1      -1.670   1.617  21.423  0.00  0.00    +0.145 HD
ATOM     44  H   UNL     1      -2.921   1.252  20.289  0.00  0.00    +0.145 HD
ENDBRANCH  21  26
BRANCH  21  22
ATOM     22  C   UNL     1      -3.638   4.586  23.334  0.00  0.00    +0.069 C 
BRANCH  22  25
ATOM     10  N   UNL     1      -3.862   3.776  26.887  0.00  0.00    -0.360 N 
ATOM     25  C   UNL     1      -3.944   4.073  24.721  0.00  0.00    -0.020 A 
ATOM     28  C   UNL     1      -4.933   3.128  25.040  0.00  0.00    +0.003 A 
ATOM     30  C   UNL     1      -3.296   4.464  25.847  0.00  0.00    +0.087 A 
ATOM     31  C   UNL     1      -4.863   2.954  26.424  0.00  0.00    +0.047 A 
ATOM     34  C   UNL     1      -5.887   2.393  24.310  0.00  0.00    +0.010 A 
ATOM     36  C   UNL     1      -5.706   2.076  27.116  0.00  0.00    +0.026 A 
ATOM     37  C   UNL     1      -6.735   1.512  24.989  0.00  0.00    +0.001 A 
ATOM     38  C   UNL     1      -6.645   1.357  26.371  0.00  0.00    +0.002 A 
ATOM     42  H   UNL     1      -3.585   3.860  27.855  0.00  0.00    +0.165 HD
ENDBRANCH  22  25
ENDBRANCH  21  22
ENDBRANCH   9  21
ENDBRANCH  15  19
BRANCH  14   8
ATOM      5  O   UNL     1       3.219   0.069  21.599  0.00  0.00    -0.270 OA
ATOM      8  N   UNL     1       3.003   0.706  23.796  0.00  0.00    -0.308 N 
ATOM     23  C   UNL     1       3.739   0.253  22.701  0.00  0.00    +0.254 C 
ATOM     40  H   UNL     1       3.483   0.895  24.671  0.00  0.00    +0.149 HD
BRANCH  23  27
ATOM      1  S   UNL     1       6.111  -0.746  21.769  0.00  0.00    +0.041 S 
ATOM     12  N   UNL     1       7.276   0.010  23.854  0.00  0.00    -0.146 NA
ATOM     13  N   UNL     1       7.494  -0.605  22.703  0.00  0.00    -0.110 NA
ATOM     27  C   UNL     1       5.173   0.041  22.937  0.00  0.00    +0.117 A 
ATOM     32  C   UNL     1       5.948   0.379  23.989  0.00  0.00    +0.081 A 
ATOM     39  C   UNL     1       5.541   1.079  25.225  0.00  0.00    +0.069 C 
ENDBRANCH  23  27
ENDBRANCH  14   8
TORSDOF 8
ENDMDL
MODEL 3
REMARK VINA RESULT:      11.0      1.938      3.588
REMARK  Name = 7134303
REMARK  9 active torsions:
REMARK  status: ('A' for Active; 'I' for Inactive)
REMARK    1  A    between atoms: N_8  and  C_14
REMARK    2  A    between atoms: N_9  and  C_21
REMARK    3  A    between atoms: C_15  and  C_19
REMARK    4  A    between atoms: C_20  and  C_24
REMARK    5  A    between atoms: C_21  and  C_22
REMARK    6  A    between atoms: C_21  and  C_26
REMARK    7  A    between atoms: C_22  and  C_25
REMARK    8  A    between atoms: C_23  and  C_27
REMARK    9  A    between atoms: C_32  and  C_39
REMARK                            x       y       z     vdW  Elec       q    Type
REMARK                         _______ _______ _______ _____ _____    ______ ____
ROOT
ATOM      3  O   UNL     1      -4.270  -1.026  26.002  0.00  0.00    -0.267 OA
ATOM      7  N   UNL     1      -2.615  -0.702  24.406  0.00  0.00    -0.283 N 
ATOM     14  C   UNL     1       0.046   0.330  23.756  0.00  0.00    +0.077 C 
ATOM     15  C   UNL     1      -2.137   0.519  25.068  0.00  0.00    +0.164 C 
ATOM     16  C   UNL     1      -0.615   0.650  25.099  0.00  0.00    +0.054 C 
ATOM     17  C   UNL     1      -0.435  -1.029  23.251  0.00  0.00    +0.041 C 
ATOM     18  C   UNL     1      -1.955  -1.074  23.142  0.00  0.00    +0.111 C 
ATOM     20  C   UNL     1      -3.743  -1.365  24.940  0.00  0.00    +0.283 C 
ENDROOT
BRANCH  20  24
ATOM      4  O   UNL     1      -3.627  -3.671  24.264  0.00  0.00    -0.458 OA
ATOM     24  C   UNL     1      -4.285  -2.491  24.185  0.00  0.00    +0.189 A 
ATOM     29  C   UNL     1      -5.381  -2.586  23.372  0.00  0.00    +0.054 A 
ATOM     33  C   UNL     1      -5.406  -3.925  22.915  0.00  0.00    +0.042 A 
ATOM     35  C   UNL     1      -4.318  -4.544  23.485  0.00  0.00    +0.196 A 
ENDBRANCH  20  24
BRANCH  15  19
ATOM      2  O   UNL     1      -2.522   1.953  23.197  0.00  0.00    -0.274 OA
ATOM      9  N   UNL     1      -3.683   2.347  25.176  0.00  0.00    -0.302 N 
ATOM     19  C   UNL     1      -2.792   1.669  24.361  0.00  0.00    +0.234 C 
ATOM     41  H   UNL     1      -3.876   1.984  26.105  0.00  0.00    +0.150 HD
BRANCH   9  21
ATOM     21  C   UNL     1      -4.427   3.507  24.741  0.00  0.00    +0.163 C 
BRANCH  21  26
ATOM      6  O   UNL     1      -6.335   4.526  25.849  0.00  0.00    -0.274 OA
ATOM     11  N   UNL     1      -6.234   2.234  25.722  0.00  0.00    -0.328 N 
ATOM     26  C   UNL     1      -5.744   3.505  25.504  0.00  0.00    +0.231 C 
ATOM     43  H   UNL     1      -5.746   1.401  25.409  0.00  0.00    +0.145 HD
ATOM     44  H   UNL     1      -7.112   2.092  26.208  0.00  0.00    +0.145 HD
ENDBRANCH  21  26
BRANCH  21  22
ATOM     22  C   UNL     1      -3.665   4.814  24.990  0.00  0.00    +0.069 C 
BRANCH  22  25
ATOM     10  N   UNL     1      -0.090   4.740  24.257  0.00  0.00    -0.360 N 
ATOM     25  C   UNL     1      -2.168   4.628  24.931  0.00  0.00    -0.020 A 
ATOM     28  C   UNL     1      -1.398   3.921  25.869  0.00  0.00    +0.003 A 
ATOM     30  C   UNL     1      -1.368   5.123  23.954  0.00  0.00    +0.087 A 
ATOM     31  C   UNL     1      -0.078   4.005  25.421  0.00  0.00    +0.047 A 
ATOM     34  C   UNL     1      -1.669   3.214  27.056  0.00  0.00    +0.010 A 
ATOM     36  C   UNL     1       0.990   3.414  26.107  0.00  0.00    +0.026 A 
ATOM     37  C   UNL     1      -0.611   2.617  27.751  0.00  0.00    +0.001 A 
ATOM     38  C   UNL     1       0.697   2.716  27.282  0.00  0.00    +0.002 A 
ATOM     42  H   UNL     1       0.728   4.963  23.708  0.00  0.00    +0.165 HD
ENDBRANCH  22  25
ENDBRANCH  21  22
ENDBRANCH   9  21
ENDBRANCH  15  19
BRANCH  14   8
ATOM      5  O   UNL     1       1.882  -0.281  21.704  0.00  0.00    -0.270 OA
ATOM      8  N   UNL     1       1.484   0.353  23.875  0.00  0.00    -0.308 N 
ATOM     23  C   UNL     1       2.324   0.037  22.808  0.00  0.00    +0.254 C 
ATOM     40  H   UNL     1       1.892   0.663  24.753  0.00  0.00    +0.149 HD
BRANCH  23  27
ATOM      1  S   UNL     1       4.583   1.582  22.746  0.00  0.00    +0.041 S 
ATOM     12  N   UNL     1       5.931  -0.307  23.690  0.00  0.00    -0.146 NA
ATOM     13  N   UNL     1       6.038   0.946  23.275  0.00  0.00    -0.110 NA
ATOM     27  C   UNL     1       3.765   0.139  23.077  0.00  0.00    +0.117 A 
ATOM     32  C   UNL     1       4.630  -0.769  23.577  0.00  0.00    +0.081 A 
ATOM     39  C   UNL     1       4.344  -2.154  24.001  0.00  0.00    +0.069 C 
ENDBRANCH  23  27
ENDBRANCH  14   8
TORSDOF 8
ENDMDL
MODEL 4
REMARK VINA RESULT:      11.6      3.110      5.612
REMARK  Name = 7134303
REMARK  9 active torsions:
REMARK  status: ('A' for Active; 'I' for Inactive)
REMARK    1  A    between atoms: N_8  and  C_14
REMARK    2  A    between atoms: N_9  and  C_21
REMARK    3  A    between atoms: C_15  and  C_19
REMARK    4  A    between atoms: C_20  and  C_24
REMARK    5  A    between atoms: C_21  and  C_22
REMARK    6  A    between atoms: C_21  and  C_26
REMARK    7  A    between atoms: C_22  and  C_25
REMARK    8  A    between atoms: C_23  and  C_27
REMARK    9  A    between atoms: C_32  and  C_39
REMARK                            x       y       z     vdW  Elec       q    Type
REMARK                         _______ _______ _______ _____ _____    ______ ____
ROOT
ATOM      3  O   UNL     1      -3.943   3.899  23.032  0.00  0.00    -0.267 OA
ATOM      7  N   UNL     1      -2.581   2.648  24.437  0.00  0.00    -0.283 N 
ATOM     14  C   UNL     1       0.025   2.313  25.725  0.00  0.00    +0.077 C 
ATOM     15  C   UNL     1      -1.368   3.055  23.718  0.00  0.00    +0.164 C 
ATOM     16  C   UNL     1      -0.182   3.362  24.631  0.00  0.00    +0.054 C 
ATOM     17  C   UNL     1      -1.281   2.088  26.484  0.00  0.00    +0.041 C 
ATOM     18  C   UNL     1      -2.408   1.686  25.540  0.00  0.00    +0.111 C 
ATOM     20  C   UNL     1      -3.835   3.092  23.958  0.00  0.00    +0.283 C 
ENDROOT
BRANCH  20  24
ATOM      4  O   UNL     1      -5.389   3.089  25.794  0.00  0.00    -0.458 OA
ATOM     24  C   UNL     1      -5.032   2.558  24.601  0.00  0.00    +0.189 A 
ATOM     29  C   UNL     1      -5.901   1.576  24.213  0.00  0.00    +0.054 A 
ATOM     33  C   UNL     1      -6.872   1.493  25.240  0.00  0.00    +0.042 A 
ATOM     35  C   UNL     1      -6.516   2.434  26.179  0.00  0.00    +0.196 A 
ENDBRANCH  20  24
BRANCH  15  19
ATOM      2  O   UNL     1      -1.863   1.623  21.872  0.00  0.00    -0.274 OA
ATOM      9  N   UNL     1       0.177   1.384  22.967  0.00  0.00    -0.302 N 
ATOM     19  C   UNL     1      -1.064   1.956  22.742  0.00  0.00    +0.234 C 
ATOM     41  H   UNL     1       0.784   1.785  23.677  0.00  0.00    +0.150 HD
BRANCH   9  21
ATOM     21  C   UNL     1       0.699   0.291  22.179  0.00  0.00    +0.163 C 
BRANCH  21  26
ATOM      6  O   UNL     1       2.813  -0.896  22.335  0.00  0.00    -0.274 OA
ATOM     11  N   UNL     1       2.696   1.250  23.146  0.00  0.00    -0.328 N 
ATOM     26  C   UNL     1       2.161   0.121  22.562  0.00  0.00    +0.231 C 
ATOM     43  H   UNL     1       2.151   2.092  23.305  0.00  0.00    +0.145 HD
ATOM     44  H   UNL     1       3.667   1.275  23.437  0.00  0.00    +0.145 HD
ENDBRANCH  21  26
BRANCH  21  22
ATOM     22  C   UNL     1      -0.072  -1.014  22.412  0.00  0.00    +0.069 C 
BRANCH  22  25
ATOM     10  N   UNL     1      -0.447  -1.402  26.022  0.00  0.00    -0.360 N 
ATOM     25  C   UNL     1      -0.512  -1.174  23.848  0.00  0.00    -0.020 A 
ATOM     28  C   UNL     1      -1.842  -1.248  24.288  0.00  0.00    +0.003 A 
ATOM     30  C   UNL     1       0.333  -1.267  24.905  0.00  0.00    +0.087 A 
ATOM     31  C   UNL     1      -1.779  -1.393  25.676  0.00  0.00    +0.047 A 
ATOM     34  C   UNL     1      -3.106  -1.209  23.667  0.00  0.00    +0.010 A 
ATOM     36  C   UNL     1      -2.922  -1.501  26.476  0.00  0.00    +0.026 A 
ATOM     37  C   UNL     1      -4.258  -1.317  24.455  0.00  0.00    +0.001 A 
ATOM     38  C   UNL     1      -4.165  -1.461  25.837  0.00  0.00    +0.002 A 
ATOM     42  H   UNL     1      -0.097  -1.493  26.966  0.00  0.00    +0.165 HD
ENDBRANCH  22  25
ENDBRANCH  21  22
ENDBRANCH   9  21
ENDBRANCH  15  19
BRANCH  14   8
ATOM      5  O   UNL     1      -0.110   2.279  28.542  0.00  0.00    -0.270 OA
ATOM      8  N   UNL     1       1.079   2.714  26.625  0.00  0.00    -0.308 N 
ATOM     23  C   UNL     1       0.932   2.667  28.011  0.00  0.00    +0.254 C 
ATOM     40  H   UNL     1       1.974   2.989  26.230  0.00  0.00    +0.149 HD
BRANCH  23  27
ATOM      1  S   UNL     1       3.091   4.335  28.236  0.00  0.00    +0.041 S 
ATOM     12  N   UNL     1       3.734   3.252  30.402  0.00  0.00    -0.146 NA
ATOM     13  N   UNL     1       4.108   4.202  29.560  0.00  0.00    -0.110 NA
ATOM     27  C   UNL     1       2.106   3.077  28.793  0.00  0.00    +0.117 A 
ATOM     32  C   UNL     1       2.588   2.607  29.963  0.00  0.00    +0.081 A 
ATOM     39  C   UNL     1       2.040   1.517  30.795  0.00  0.00    +0.069 C 
ENDBRANCH  23  27
ENDBRANCH  14   8
TORSDOF 8
ENDMDL
MODEL 5
REMARK VINA RESULT:      12.9      1.815      4.753
REMARK  Name = 7134303
REMARK  9 active torsions:
REMARK  status: ('A' for Active; 'I' for Inactive)
REMARK    1  A    between atoms: N_8  and  C_14
REMARK    2  A    between atoms: N_9  and  C_21
REMARK    3  A    between atoms: C_15  and  C_19
REMARK    4  A    between atoms: C_20  and  C_24
REMARK    5  A    between atoms: C_21  and  C_22
REMARK    6  A    between atoms: C_21  and  C_26
REMARK    7  A    between atoms: C_22  and  C_25
REMARK    8  A    between atoms: C_23  and  C_27
REMARK    9  A    between atoms: C_32  and  C_39
REMARK                            x       y       z     vdW  Elec       q    Type
REMARK                         _______ _______ _______ _____ _____    ______ ____
ROOT
ATOM      3  O   UNL     1      -3.140   2.452  21.714  0.00  0.00    -0.267 OA
ATOM      7  N   UNL     1      -1.570   2.259  23.413  0.00  0.00    -0.283 N 
ATOM     14  C   UNL     1       0.844   0.958  24.434  0.00  0.00    +0.077 C 
ATOM     15  C   UNL     1      -1.341   0.840  23.119  0.00  0.00    +0.164 C 
ATOM     16  C   UNL     1       0.127   0.421  23.194  0.00  0.00    +0.054 C 
ATOM     17  C   UNL     1       0.639   2.467  24.542  0.00  0.00    +0.041 C 
ATOM     18  C   UNL     1      -0.843   2.824  24.564  0.00  0.00    +0.111 C 
ATOM     20  C   UNL     1      -2.552   2.956  22.673  0.00  0.00    +0.283 C 
ENDROOT
BRANCH  20  24
ATOM      4  O   UNL     1      -4.069   4.822  22.727  0.00  0.00    -0.458 OA
ATOM     24  C   UNL     1      -2.861   4.323  23.080  0.00  0.00    +0.189 A 
ATOM     29  C   UNL     1      -2.130   5.241  23.782  0.00  0.00    +0.054 A 
ATOM     33  C   UNL     1      -2.946   6.395  23.873  0.00  0.00    +0.042 A 
ATOM     35  C   UNL     1      -4.115   6.089  23.216  0.00  0.00    +0.196 A 
ENDBRANCH  20  24
BRANCH  15  19
ATOM      2  O   UNL     1      -1.830  -0.203  25.211  0.00  0.00    -0.274 OA
ATOM      9  N   UNL     1      -3.408  -0.313  23.503  0.00  0.00    -0.302 N 
ATOM     19  C   UNL     1      -2.202   0.063  24.072  0.00  0.00    +0.234 C 
ATOM     41  H   UNL     1      -3.638   0.019  22.570  0.00  0.00    +0.150 HD
BRANCH   9  21
ATOM     21  C   UNL     1      -4.406  -1.087  24.204  0.00  0.00    +0.163 C 
BRANCH  21  26
ATOM      6  O   UNL     1      -3.750  -3.322  23.513  0.00  0.00    -0.274 OA
ATOM     11  N   UNL     1      -3.361  -2.685  25.686  0.00  0.00    -0.328 N 
ATOM     26  C   UNL     1      -3.831  -2.481  24.406  0.00  0.00    +0.231 C 
ATOM     43  H   UNL     1      -3.413  -1.972  26.406  0.00  0.00    +0.145 HD
ATOM     44  H   UNL     1      -2.939  -3.569  25.950  0.00  0.00    +0.145 HD
ENDBRANCH  21  26
BRANCH  21  22
ATOM     22  C   UNL     1      -4.785  -0.463  25.553  0.00  0.00    +0.069 C 
BRANCH  22  25
ATOM     10  N   UNL     1      -6.826   2.490  24.890  0.00  0.00    -0.360 N 
ATOM     25  C   UNL     1      -5.409   0.904  25.399  0.00  0.00    -0.020 A 
ATOM     28  C   UNL     1      -4.825   2.116  25.803  0.00  0.00    +0.003 A 
ATOM     30  C   UNL     1      -6.625   1.137  24.845  0.00  0.00    +0.087 A 
ATOM     31  C   UNL     1      -5.745   3.113  25.470  0.00  0.00    +0.047 A 
ATOM     34  C   UNL     1      -3.614   2.487  26.418  0.00  0.00    +0.010 A 
ATOM     36  C   UNL     1      -5.510   4.470  25.723  0.00  0.00    +0.026 A 
ATOM     37  C   UNL     1      -3.366   3.840  26.676  0.00  0.00    +0.001 A 
ATOM     38  C   UNL     1      -4.300   4.814  26.333  0.00  0.00    +0.002 A 
ATOM     42  H   UNL     1      -7.650   2.965  24.548  0.00  0.00    +0.165 HD
ENDBRANCH  22  25
ENDBRANCH  21  22
ENDBRANCH   9  21
ENDBRANCH  15  19
BRANCH  14   8
ATOM      5  O   UNL     1       2.284   0.156  22.145  0.00  0.00    -0.270 OA
ATOM      8  N   UNL     1       2.250   0.633  24.392  0.00  0.00    -0.308 N 
ATOM     23  C   UNL     1       2.889   0.244  23.215  0.00  0.00    +0.254 C 
ATOM     40  H   UNL     1       2.798   0.745  25.240  0.00  0.00    +0.149 HD
BRANCH  23  27
ATOM      1  S   UNL     1       5.440   1.214  23.009  0.00  0.00    +0.041 S 
ATOM     12  N   UNL     1       6.369  -1.020  23.660  0.00  0.00    -0.146 NA
ATOM     13  N   UNL     1       6.739   0.206  23.325  0.00  0.00    -0.110 NA
ATOM     27  C   UNL     1       4.330  -0.022  23.327  0.00  0.00    +0.117 A 
ATOM     32  C   UNL     1       4.989  -1.150  23.662  0.00  0.00    +0.081 A 
ATOM     39  C   UNL     1       4.414  -2.464  24.017  0.00  0.00    +0.069 C 
ENDBRANCH  23  27
ENDBRANCH  14   8
TORSDOF 8
ENDMDL
MODEL 6
REMARK VINA RESULT:      13.2      1.669      4.165
REMARK  Name = 7134303
REMARK  9 active torsions:
REMARK  status: ('A' for Active; 'I' for Inactive)
REMARK    1  A    between atoms: N_8  and  C_14
REMARK    2  A    between atoms: N_9  and  C_21
REMARK    3  A    between atoms: C_15  and  C_19
REMARK    4  A    between atoms: C_20  and  C_24
REMARK    5  A    between atoms: C_21  and  C_22
REMARK    6  A    between atoms: C_21  and  C_26
REMARK    7  A    between atoms: C_22  and  C_25
REMARK    8  A    between atoms: C_23  and  C_27
REMARK    9  A    between atoms: C_32  and  C_39
REMARK                            x       y       z     vdW  Elec       q    Type
REMARK                         _______ _______ _______ _____ _____    ______ ____
ROOT
ATOM      3  O   UNL     1      -1.750   2.028  22.239  0.00  0.00    -0.267 OA
ATOM      7  N   UNL     1       0.148   1.442  23.441  0.00  0.00    -0.283 N 
ATOM     14  C   UNL     1       2.705   0.021  23.514  0.00  0.00    +0.077 C 
ATOM     15  C   UNL     1       0.285   0.173  22.715  0.00  0.00    +0.164 C 
ATOM     16  C   UNL     1       1.727  -0.181  22.355  0.00  0.00    +0.054 C 
ATOM     17  C   UNL     1       2.552   1.429  24.086  0.00  0.00    +0.041 C 
ATOM     18  C   UNL     1       1.116   1.696  24.522  0.00  0.00    +0.111 C 
ATOM     20  C   UNL     1      -0.960   2.271  23.154  0.00  0.00    +0.283 C 
ENDROOT
BRANCH  20  24
ATOM      4  O   UNL     1      -2.061   3.374  24.986  0.00  0.00    -0.458 OA
ATOM     24  C   UNL     1      -1.152   3.454  23.987  0.00  0.00    +0.189 A 
ATOM     29  C   UNL     1      -0.562   4.688  23.950  0.00  0.00    +0.054 A 
ATOM     33  C   UNL     1      -1.149   5.427  25.005  0.00  0.00    +0.042 A 
ATOM     35  C   UNL     1      -2.054   4.583  25.605  0.00  0.00    +0.196 A 
ENDBRANCH  20  24
BRANCH  15  19
ATOM      2  O   UNL     1       0.242  -1.888  23.921  0.00  0.00    -0.274 OA
ATOM      9  N   UNL     1      -1.677  -0.572  23.873  0.00  0.00    -0.302 N 
ATOM     19  C   UNL     1      -0.361  -0.877  23.571  0.00  0.00    +0.234 C 
ATOM     41  H   UNL     1      -2.055   0.326  23.581  0.00  0.00    +0.150 HD
BRANCH   9  21
ATOM     21  C   UNL     1      -2.527  -1.431  24.664  0.00  0.00    +0.163 C 
BRANCH  21  26
ATOM      6  O   UNL     1      -2.903  -1.504  27.064  0.00  0.00    -0.274 OA
ATOM     11  N   UNL     1      -0.933  -0.613  26.287  0.00  0.00    -0.328 N 
ATOM     26  C   UNL     1      -2.177  -1.185  26.124  0.00  0.00    +0.231 C 
ATOM     43  H   UNL     1      -0.335  -0.377  25.501  0.00  0.00    +0.145 HD
ATOM     44  H   UNL     1      -0.571  -0.408  27.212  0.00  0.00    +0.145 HD
ENDBRANCH  21  26
BRANCH  21  22
ATOM     22  C   UNL     1      -4.017  -1.163  24.418  0.00  0.00    +0.069 C 
BRANCH  22  25
ATOM     10  N   UNL     1      -4.374   2.321  23.385  0.00  0.00    -0.360 N 
ATOM     25  C   UNL     1      -4.315   0.307  24.237  0.00  0.00    -0.020 A 
ATOM     28  C   UNL     1      -5.046   1.105  25.131  0.00  0.00    +0.003 A 
ATOM     30  C   UNL     1      -3.908   1.050  23.178  0.00  0.00    +0.087 A 
ATOM     31  C   UNL     1      -5.072   2.384  24.569  0.00  0.00    +0.047 A 
ATOM     34  C   UNL     1      -5.696   0.891  26.362  0.00  0.00    +0.010 A 
ATOM     36  C   UNL     1      -5.719   3.463  25.181  0.00  0.00    +0.026 A 
ATOM     37  C   UNL     1      -6.346   1.962  26.986  0.00  0.00    +0.001 A 
ATOM     38  C   UNL     1      -6.356   3.227  26.403  0.00  0.00    +0.002 A 
ATOM     42  H   UNL     1      -4.227   3.101  22.759  0.00  0.00    +0.165 HD
ENDBRANCH  22  25
ENDBRANCH  21  22
ENDBRANCH   9  21
ENDBRANCH  15  19
BRANCH  14   8
ATOM      5  O   UNL     1       5.028   0.530  25.032  0.00  0.00    -0.270 OA
ATOM      8  N   UNL     1       4.063  -0.213  23.084  0.00  0.00    -0.308 N 
ATOM     23  C   UNL     1       5.160   0.067  23.898  0.00  0.00    +0.254 C 
ATOM     40  H   UNL     1       4.216  -0.646  22.177  0.00  0.00    +0.149 HD
BRANCH  23  27
ATOM      1  S   UNL     1       6.673  -1.663  22.411  0.00  0.00    +0.041 S 
ATOM     12  N   UNL     1       8.692  -0.215  22.737  0.00  0.00    -0.146 NA
ATOM     13  N   UNL     1       8.297  -1.338  22.158  0.00  0.00    -0.110 NA
ATOM     27  C   UNL     1       6.477  -0.257  23.331  0.00  0.00    +0.117 A 
ATOM     32  C   UNL     1       7.650   0.404  23.408  0.00  0.00    +0.081 A 
ATOM     39  C   UNL     1       7.930   1.674  24.109  0.00  0.00    +0.069 C 
ENDBRANCH  23  27
ENDBRANCH  14   8
TORSDOF 8
ENDMDL
MODEL 7
REMARK VINA RESULT:      13.6      1.978      4.657
REMARK  Name = 7134303
REMARK  9 active torsions:
REMARK  status: ('A' for Active; 'I' for Inactive)
REMARK    1  A    between atoms: N_8  and  C_14
REMARK    2  A    between atoms: N_9  and  C_21
REMARK    3  A    between atoms: C_15  and  C_19
REMARK    4  A    between atoms: C_20  and  C_24
REMARK    5  A    between atoms: C_21  and  C_22
REMARK    6  A    between atoms: C_21  and  C_26
REMARK    7  A    between atoms: C_22  and  C_25
REMARK    8  A    between atoms: C_23  and  C_27
REMARK    9  A    between atoms: C_32  and  C_39
REMARK                            x       y       z     vdW  Elec       q    Type
REMARK                         _______ _______ _______ _____ _____    ______ ____
ROOT
ATOM      3  O   UNL     1      -3.590   3.792  22.644  0.00  0.00    -0.267 OA
ATOM      7  N   UNL     1      -2.154   2.508  23.940  0.00  0.00    -0.283 N 
ATOM     14  C   UNL     1       0.346   0.997  24.130  0.00  0.00    +0.077 C 
ATOM     15  C   UNL     1      -1.678   1.758  22.771  0.00  0.00    +0.164 C 
ATOM     16  C   UNL     1      -0.173   1.491  22.778  0.00  0.00    +0.054 C 
ATOM     17  C   UNL     1      -0.107   1.945  25.239  0.00  0.00    +0.041 C 
ATOM     18  C   UNL     1      -1.623   2.098  25.252  0.00  0.00    +0.111 C 
ATOM     20  C   UNL     1      -3.170   3.474  23.759  0.00  0.00    +0.283 C 
ENDROOT
BRANCH  20  24
ATOM      4  O   UNL     1      -4.969   4.629  24.861  0.00  0.00    -0.458 OA
ATOM     24  C   UNL     1      -3.726   4.101  24.954  0.00  0.00    +0.189 A 
ATOM     29  C   UNL     1      -3.207   4.267  26.208  0.00  0.00    +0.054 A 
ATOM     33  C   UNL     1      -4.203   4.948  26.949  0.00  0.00    +0.042 A 
ATOM     35  C   UNL     1      -5.255   5.145  26.085  0.00  0.00    +0.196 A 
ENDBRANCH  20  24
BRANCH  15  19
ATOM      2  O   UNL     1      -3.574   0.435  22.171  0.00  0.00    -0.274 OA
ATOM      9  N   UNL     1      -1.850  -0.552  23.384  0.00  0.00    -0.302 N 
ATOM     19  C   UNL     1      -2.479   0.490  22.724  0.00  0.00    +0.234 C 
ATOM     41  H   UNL     1      -0.913  -0.409  23.752  0.00  0.00    +0.150 HD
BRANCH   9  21
ATOM     21  C   UNL     1      -2.422  -1.874  23.503  0.00  0.00    +0.163 C 
BRANCH  21  26
ATOM      6  O   UNL     1      -1.978  -3.697  25.046  0.00  0.00    -0.274 OA
ATOM     11  N   UNL     1      -0.549  -1.898  25.031  0.00  0.00    -0.328 N 
ATOM     26  C   UNL     1      -1.663  -2.593  24.608  0.00  0.00    +0.231 C 
ATOM     43  H   UNL     1      -0.288  -0.997  24.642  0.00  0.00    +0.145 HD
ATOM     44  H   UNL     1       0.054  -2.273  25.755  0.00  0.00    +0.145 HD
ENDBRANCH  21  26
BRANCH  21  22
ATOM     22  C   UNL     1      -3.922  -1.831  23.823  0.00  0.00    +0.069 C 
BRANCH  22  25
ATOM     10  N   UNL     1      -4.208  -0.174  27.064  0.00  0.00    -0.360 N 
ATOM     25  C   UNL     1      -4.229  -0.973  25.027  0.00  0.00    -0.020 A 
ATOM     28  C   UNL     1      -5.121   0.111  25.048  0.00  0.00    +0.003 A 
ATOM     30  C   UNL     1      -3.676  -1.142  26.254  0.00  0.00    +0.087 A 
ATOM     31  C   UNL     1      -5.092   0.606  26.354  0.00  0.00    +0.047 A 
ATOM     34  C   UNL     1      -5.958   0.736  24.104  0.00  0.00    +0.010 A 
ATOM     36  C   UNL     1      -5.863   1.700  26.763  0.00  0.00    +0.026 A 
ATOM     37  C   UNL     1      -6.735   1.831  24.499  0.00  0.00    +0.001 A 
ATOM     38  C   UNL     1      -6.687   2.304  25.808  0.00  0.00    +0.002 A 
ATOM     42  H   UNL     1      -3.983  -0.048  28.041  0.00  0.00    +0.165 HD
ENDBRANCH  22  25
ENDBRANCH  21  22
ENDBRANCH   9  21
ENDBRANCH  15  19
BRANCH  14   8
ATOM      5  O   UNL     1       1.850  -0.545  22.310  0.00  0.00    -0.270 OA
ATOM      8  N   UNL     1       1.784   0.876  24.113  0.00  0.00    -0.308 N 
ATOM     23  C   UNL     1       2.453   0.090  23.176  0.00  0.00    +0.254 C 
ATOM     40  H   UNL     1       2.323   1.427  24.775  0.00  0.00    +0.149 HD
BRANCH  23  27
ATOM      1  S   UNL     1       4.782   1.495  22.869  0.00  0.00    +0.041 S 
ATOM     12  N   UNL     1       6.111  -0.500  23.600  0.00  0.00    -0.146 NA
ATOM     13  N   UNL     1       6.247   0.755  23.201  0.00  0.00    -0.110 NA
ATOM     27  C   UNL     1       3.920   0.095  23.268  0.00  0.00    +0.117 A 
ATOM     32  C   UNL     1       4.778  -0.878  23.638  0.00  0.00    +0.081 A 
ATOM     39  C   UNL     1       4.456  -2.255  24.064  0.00  0.00    +0.069 C 
ENDBRANCH  23  27
ENDBRANCH  14   8
TORSDOF 8
ENDMDL
MODEL 8
REMARK VINA RESULT:      14.3      2.616      6.291
REMARK  Name = 7134303
REMARK  9 active torsions:
REMARK  status: ('A' for Active; 'I' for Inactive)
REMARK    1  A    between atoms: N_8  and  C_14
REMARK    2  A    between atoms: N_9  and  C_21
REMARK    3  A    between atoms: C_15  and  C_19
REMARK    4  A    between atoms: C_20  and  C_24
REMARK    5  A    between atoms: C_21  and  C_22
REMARK    6  A    between atoms: C_21  and  C_26
REMARK    7  A    between atoms: C_22  and  C_25
REMARK    8  A    between atoms: C_23  and  C_27
REMARK    9  A    between atoms: C_32  and  C_39
REMARK                            x       y       z     vdW  Elec       q    Type
REMARK                         _______ _______ _______ _____ _____    ______ ____
ROOT
ATOM      3  O   UNL     1       3.171   1.870  22.286  0.00  0.00    -0.267 OA
ATOM      7  N   UNL     1       1.838   0.498  23.602  0.00  0.00    -0.283 N 
ATOM     14  C   UNL     1      -0.811  -0.624  24.138  0.00  0.00    +0.077 C 
ATOM     15  C   UNL     1       0.647   1.320  23.352  0.00  0.00    +0.164 C 
ATOM     16  C   UNL     1      -0.628   0.508  23.125  0.00  0.00    +0.054 C 
ATOM     17  C   UNL     1       0.451  -1.481  24.195  0.00  0.00    +0.041 C 
ATOM     18  C   UNL     1       1.678  -0.640  24.524  0.00  0.00    +0.111 C 
ATOM     20  C   UNL     1       3.074   0.912  23.056  0.00  0.00    +0.283 C 
ENDROOT
BRANCH  20  24
ATOM      4  O   UNL     1       4.166  -1.188  23.480  0.00  0.00    -0.458 OA
ATOM     24  C   UNL     1       4.266   0.161  23.436  0.00  0.00    +0.189 A 
ATOM     29  C   UNL     1       5.525   0.577  23.774  0.00  0.00    +0.054 A 
ATOM     33  C   UNL     1       6.260  -0.601  24.046  0.00  0.00    +0.042 A 
ATOM     35  C   UNL     1       5.389  -1.648  23.854  0.00  0.00    +0.196 A 
ENDBRANCH  20  24
BRANCH  15  19
ATOM      2  O   UNL     1       1.207   2.121  25.532  0.00  0.00    -0.274 OA
ATOM      9  N   UNL     1      -0.441   3.226  24.314  0.00  0.00    -0.302 N 
ATOM     19  C   UNL     1       0.524   2.254  24.520  0.00  0.00    +0.234 C 
ATOM     41  H   UNL     1      -0.902   3.280  23.410  0.00  0.00    +0.150 HD
BRANCH   9  21
ATOM     21  C   UNL     1      -0.769   4.235  25.295  0.00  0.00    +0.163 C 
BRANCH  21  26
ATOM      6  O   UNL     1      -1.522   6.517  24.932  0.00  0.00    -0.274 OA
ATOM     11  N   UNL     1       0.003   5.617  23.468  0.00  0.00    -0.328 N 
ATOM     26  C   UNL     1      -0.834   5.567  24.563  0.00  0.00    +0.231 C 
ATOM     43  H   UNL     1       0.583   4.832  23.190  0.00  0.00    +0.145 HD
ATOM     44  H   UNL     1       0.066   6.454  22.899  0.00  0.00    +0.145 HD
ENDBRANCH  21  26
BRANCH  21  22
ATOM     22  C   UNL     1      -2.099   3.947  26.003  0.00  0.00    +0.069 C 
BRANCH  22  25
ATOM     10  N   UNL     1      -4.082   2.547  23.276  0.00  0.00    -0.360 N 
ATOM     25  C   UNL     1      -3.116   3.315  25.082  0.00  0.00    -0.020 A 
ATOM     28  C   UNL     1      -4.368   2.815  25.472  0.00  0.00    +0.003 A 
ATOM     30  C   UNL     1      -2.947   3.150  23.746  0.00  0.00    +0.087 A 
ATOM     31  C   UNL     1      -4.967   2.330  24.307  0.00  0.00    +0.047 A 
ATOM     34  C   UNL     1      -5.071   2.715  26.689  0.00  0.00    +0.010 A 
ATOM     36  C   UNL     1      -6.240   1.748  24.300  0.00  0.00    +0.026 A 
ATOM     37  C   UNL     1      -6.345   2.136  26.696  0.00  0.00    +0.001 A 
ATOM     38  C   UNL     1      -6.919   1.661  25.519  0.00  0.00    +0.002 A 
ATOM     42  H   UNL     1      -4.248   2.296  22.311  0.00  0.00    +0.165 HD
ENDBRANCH  22  25
ENDBRANCH  21  22
ENDBRANCH   9  21
ENDBRANCH  15  19
BRANCH  14   8
ATOM      5  O   UNL     1      -3.327  -0.508  25.408  0.00  0.00    -0.270 OA
ATOM      8  N   UNL     1      -1.963  -1.427  23.804  0.00  0.00    -0.308 N 
ATOM     23  C   UNL     1      -3.175  -1.308  24.483  0.00  0.00    +0.254 C 
ATOM     40  H   UNL     1      -1.898  -2.061  23.012  0.00  0.00    +0.149 HD
BRANCH  23  27
ATOM      1  S   UNL     1      -5.858  -1.607  24.031  0.00  0.00    +0.041 S 
ATOM     12  N   UNL     1      -5.478  -3.925  23.158  0.00  0.00    -0.146 NA
ATOM     13  N   UNL     1      -6.437  -3.042  23.391  0.00  0.00    -0.110 NA
ATOM     27  C   UNL     1      -4.264  -2.172  24.005  0.00  0.00    +0.117 A 
ATOM     32  C   UNL     1      -4.234  -3.427  23.510  0.00  0.00    +0.081 A 
ATOM     39  C   UNL     1      -3.055  -4.294  23.311  0.00  0.00    +0.069 C 
ENDBRANCH  23  27
ENDBRANCH  14   8
TORSDOF 8
ENDMDL
