MODEL 1
REMARK VINA RESULT:      -5.4      0.000      0.000
REMARK  Name = 51137552
REMARK  8 active torsions:
REMARK  status: ('A' for Active; 'I' for Inactive)
REMARK    1  A    between atoms: O_2  and  C_20
REMARK    2  A    between atoms: O_2  and  C_22
REMARK    3  A    between atoms: N_3  and  C_10
REMARK    4  A    between atoms: C_6  and  C_11
REMARK    5  A    between atoms: C_10  and  C_12
REMARK    6  A    between atoms: C_13  and  C_16
REMARK    7  A    between atoms: C_16  and  C_17
REMARK    8  A    between atoms: C_17  and  C_21
REMARK                            x       y       z     vdW  Elec       q    Type
REMARK                         _______ _______ _______ _____ _____    ______ ____
ROOT
ATOM      3  N   UNL     1       0.506   1.841  24.447  0.00  0.00    -0.297 NA
ATOM      6  C   UNL     1       0.003  -0.427  24.765  0.00  0.00    +0.092 C 
ATOM      7  C   UNL     1       0.856  -0.263  23.496  0.00  0.00    +0.029 C 
ATOM      8  C   UNL     1      -0.501   0.988  25.081  0.00  0.00    +0.097 C 
ATOM      9  C   UNL     1       0.766   1.218  23.149  0.00  0.00    +0.085 C 
ENDROOT
BRANCH   6  11
ATOM      1  O   UNL     1      -2.323  -0.975  24.232  0.00  0.00    -0.424 OA
ATOM      4  N   UNL     1      -1.104  -2.727  24.903  0.00  0.00    -0.112 NA
ATOM      5  N   UNL     1      -2.385  -3.174  24.637  0.00  0.00    -0.112 NA
ATOM     11  C   UNL     1      -1.114  -1.439  24.653  0.00  0.00    +0.222 A 
ATOM     13  C   UNL     1      -3.061  -2.119  24.248  0.00  0.00    +0.217 A 
BRANCH  13  16
ATOM     16  C   UNL     1      -4.466  -2.007  23.838  0.00  0.00    +0.097 C 
BRANCH  16  17
ATOM     17  C   UNL     1      -5.099  -0.649  24.212  0.00  0.00    +0.006 C 
ATOM     21  C   UNL     1      -4.468  -0.027  25.449  0.00  0.00    +0.004 C 
ENDBRANCH  16  17
ENDBRANCH  13  16
ENDBRANCH   6  11
BRANCH   3  10
ATOM     10  C   UNL     1       0.064   3.222  24.319  0.00  0.00    +0.119 C 
BRANCH  10  12
ATOM     12  C   UNL     1      -1.400   3.373  24.641  0.00  0.00    -0.033 A 
ATOM     14  C   UNL     1      -2.364   2.932  23.735  0.00  0.00    +0.008 A 
ATOM     15  C   UNL     1      -1.792   3.956  25.846  0.00  0.00    +0.008 A 
ATOM     18  C   UNL     1      -3.719   3.071  24.033  0.00  0.00    +0.046 A 
ATOM     19  C   UNL     1      -3.147   4.097  26.145  0.00  0.00    +0.046 A 
ATOM     20  C   UNL     1      -4.110   3.655  25.238  0.00  0.00    +0.120 A 
BRANCH  20   2
ATOM      2  O   UNL     1      -5.432   3.791  25.530  0.00  0.00    -0.495 OA
ATOM     22  C   UNL     1      -6.189   2.592  25.690  0.00  0.00    +0.277 C 
ENDBRANCH  20   2
ENDBRANCH  10  12
ENDBRANCH   3  10
TORSDOF 6
ENDMDL
MODEL 2
REMARK VINA RESULT:      -5.4      2.036      4.970
REMARK  Name = 51137552
REMARK  8 active torsions:
REMARK  status: ('A' for Active; 'I' for Inactive)
REMARK    1  A    between atoms: O_2  and  C_20
REMARK    2  A    between atoms: O_2  and  C_22
REMARK    3  A    between atoms: N_3  and  C_10
REMARK    4  A    between atoms: C_6  and  C_11
REMARK    5  A    between atoms: C_10  and  C_12
REMARK    6  A    between atoms: C_13  and  C_16
REMARK    7  A    between atoms: C_16  and  C_17
REMARK    8  A    between atoms: C_17  and  C_21
REMARK                            x       y       z     vdW  Elec       q    Type
REMARK                         _______ _______ _______ _____ _____    ______ ____
ROOT
ATOM      3  N   UNL     1      -2.965  -1.399  24.518  0.00  0.00    -0.297 NA
ATOM      6  C   UNL     1      -0.652  -1.143  24.225  0.00  0.00    +0.092 C 
ATOM      7  C   UNL     1      -0.970  -1.271  25.725  0.00  0.00    +0.029 C 
ATOM      8  C   UNL     1      -2.004  -0.838  23.566  0.00  0.00    +0.097 C 
ATOM      9  C   UNL     1      -2.466  -1.005  25.835  0.00  0.00    +0.085 C 
ENDROOT
BRANCH   6  11
ATOM      1  O   UNL     1       1.494  -0.576  23.194  0.00  0.00    -0.424 OA
ATOM      4  N   UNL     1       0.460   1.158  24.158  0.00  0.00    -0.112 NA
ATOM      5  N   UNL     1       1.649   1.615  23.619  0.00  0.00    -0.112 NA
ATOM     11  C   UNL     1       0.412  -0.125  23.886  0.00  0.00    +0.222 A 
ATOM     13  C   UNL     1       2.219   0.570  23.067  0.00  0.00    +0.217 A 
BRANCH  13  16
ATOM     16  C   UNL     1       3.495   0.471  22.349  0.00  0.00    +0.097 C 
BRANCH  16  17
ATOM     17  C   UNL     1       4.720   0.720  23.256  0.00  0.00    +0.006 C 
ATOM     21  C   UNL     1       5.261  -0.558  23.879  0.00  0.00    +0.004 C 
ENDBRANCH  16  17
ENDBRANCH  13  16
ENDBRANCH   6  11
BRANCH   3  10
ATOM     10  C   UNL     1      -4.322  -0.934  24.277  0.00  0.00    +0.119 C 
BRANCH  10  12
ATOM     12  C   UNL     1      -4.465   0.541  24.550  0.00  0.00    -0.033 A 
ATOM     14  C   UNL     1      -3.698   1.461  23.835  0.00  0.00    +0.008 A 
ATOM     15  C   UNL     1      -5.365   0.987  25.518  0.00  0.00    +0.008 A 
ATOM     18  C   UNL     1      -3.831   2.826  24.086  0.00  0.00    +0.046 A 
ATOM     19  C   UNL     1      -5.498   2.352  25.770  0.00  0.00    +0.046 A 
ATOM     20  C   UNL     1      -4.731   3.271  25.055  0.00  0.00    +0.120 A 
BRANCH  20   2
ATOM      2  O   UNL     1      -4.862   4.603  25.300  0.00  0.00    -0.495 OA
ATOM     22  C   UNL     1      -6.183   5.096  25.523  0.00  0.00    +0.277 C 
ENDBRANCH  20   2
ENDBRANCH  10  12
ENDBRANCH   3  10
TORSDOF 6
ENDMDL
MODEL 3
REMARK VINA RESULT:      -5.3      0.924      1.523
REMARK  Name = 51137552
REMARK  8 active torsions:
REMARK  status: ('A' for Active; 'I' for Inactive)
REMARK    1  A    between atoms: O_2  and  C_20
REMARK    2  A    between atoms: O_2  and  C_22
REMARK    3  A    between atoms: N_3  and  C_10
REMARK    4  A    between atoms: C_6  and  C_11
REMARK    5  A    between atoms: C_10  and  C_12
REMARK    6  A    between atoms: C_13  and  C_16
REMARK    7  A    between atoms: C_16  and  C_17
REMARK    8  A    between atoms: C_17  and  C_21
REMARK                            x       y       z     vdW  Elec       q    Type
REMARK                         _______ _______ _______ _____ _____    ______ ____
ROOT
ATOM      3  N   UNL     1      -0.022   3.025  24.884  0.00  0.00    -0.297 NA
ATOM      6  C   UNL     1       0.203   0.693  24.990  0.00  0.00    +0.092 C 
ATOM      7  C   UNL     1       0.711   1.197  23.629  0.00  0.00    +0.029 C 
ATOM      8  C   UNL     1      -0.605   1.865  25.562  0.00  0.00    +0.097 C 
ATOM      9  C   UNL     1       0.144   2.605  23.492  0.00  0.00    +0.085 C 
ENDROOT
BRANCH   6  11
ATOM      1  O   UNL     1      -1.819  -0.537  24.364  0.00  0.00    -0.424 OA
ATOM      4  N   UNL     1      -0.261  -1.793  25.364  0.00  0.00    -0.112 NA
ATOM      5  N   UNL     1      -1.339  -2.606  25.067  0.00  0.00    -0.112 NA
ATOM     11  C   UNL     1      -0.585  -0.595  24.936  0.00  0.00    +0.222 A 
ATOM     13  C   UNL     1      -2.224  -1.831  24.484  0.00  0.00    +0.217 A 
BRANCH  13  16
ATOM     16  C   UNL     1      -3.553  -2.162  23.957  0.00  0.00    +0.097 C 
BRANCH  16  17
ATOM     17  C   UNL     1      -4.595  -1.050  24.206  0.00  0.00    +0.006 C 
ATOM     21  C   UNL     1      -4.340  -0.281  25.493  0.00  0.00    +0.004 C 
ENDBRANCH  16  17
ENDBRANCH  13  16
ENDBRANCH   6  11
BRANCH   3  10
ATOM     10  C   UNL     1      -0.849   4.216  25.008  0.00  0.00    +0.119 C 
BRANCH  10  12
ATOM     12  C   UNL     1      -2.311   3.872  25.131  0.00  0.00    -0.033 A 
ATOM     14  C   UNL     1      -2.990   4.126  26.322  0.00  0.00    +0.008 A 
ATOM     15  C   UNL     1      -2.986   3.300  24.052  0.00  0.00    +0.008 A 
ATOM     18  C   UNL     1      -4.343   3.808  26.436  0.00  0.00    +0.046 A 
ATOM     19  C   UNL     1      -4.339   2.981  24.166  0.00  0.00    +0.046 A 
ATOM     20  C   UNL     1      -5.017   3.235  25.358  0.00  0.00    +0.120 A 
BRANCH  20   2
ATOM      2  O   UNL     1      -6.338   2.926  25.467  0.00  0.00    -0.495 OA
ATOM     22  C   UNL     1      -6.810   1.814  24.708  0.00  0.00    +0.277 C 
ENDBRANCH  20   2
ENDBRANCH  10  12
ENDBRANCH   3  10
TORSDOF 6
ENDMDL
MODEL 4
REMARK VINA RESULT:      -5.0      2.502      5.982
REMARK  Name = 51137552
REMARK  8 active torsions:
REMARK  status: ('A' for Active; 'I' for Inactive)
REMARK    1  A    between atoms: O_2  and  C_20
REMARK    2  A    between atoms: O_2  and  C_22
REMARK    3  A    between atoms: N_3  and  C_10
REMARK    4  A    between atoms: C_6  and  C_11
REMARK    5  A    between atoms: C_10  and  C_12
REMARK    6  A    between atoms: C_13  and  C_16
REMARK    7  A    between atoms: C_16  and  C_17
REMARK    8  A    between atoms: C_17  and  C_21
REMARK                            x       y       z     vdW  Elec       q    Type
REMARK                         _______ _______ _______ _____ _____    ______ ____
ROOT
ATOM      3  N   UNL     1      -3.264  -1.684  25.052  0.00  0.00    -0.297 NA
ATOM      6  C   UNL     1      -4.784   0.080  25.326  0.00  0.00    +0.092 C 
ATOM      7  C   UNL     1      -4.947  -0.526  23.922  0.00  0.00    +0.029 C 
ATOM      8  C   UNL     1      -3.435  -0.452  25.825  0.00  0.00    +0.097 C 
ATOM      9  C   UNL     1      -3.678  -1.337  23.693  0.00  0.00    +0.085 C 
ENDROOT
BRANCH   6  11
ATOM      1  O   UNL     1      -3.714   2.282  25.291  0.00  0.00    -0.424 OA
ATOM      4  N   UNL     1      -5.940   2.353  25.509  0.00  0.00    -0.112 NA
ATOM      5  N   UNL     1      -5.469   3.653  25.503  0.00  0.00    -0.112 NA
ATOM     11  C   UNL     1      -4.882   1.587  25.383  0.00  0.00    +0.222 A 
ATOM     13  C   UNL     1      -4.166   3.563  25.374  0.00  0.00    +0.217 A 
BRANCH  13  16
ATOM     16  C   UNL     1      -3.157   4.627  25.307  0.00  0.00    +0.097 C 
BRANCH  16  17
ATOM     17  C   UNL     1      -1.718   4.110  25.522  0.00  0.00    +0.006 C 
ATOM     21  C   UNL     1      -0.677   4.942  24.788  0.00  0.00    +0.004 C 
ENDBRANCH  16  17
ENDBRANCH  13  16
ENDBRANCH   6  11
BRANCH   3  10
ATOM     10  C   UNL     1      -1.900  -2.187  25.103  0.00  0.00    +0.119 C 
BRANCH  10  12
ATOM     12  C   UNL     1      -0.902  -1.151  24.654  0.00  0.00    -0.033 A 
ATOM     14  C   UNL     1      -0.845   0.086  25.294  0.00  0.00    +0.008 A 
ATOM     15  C   UNL     1      -0.036  -1.431  23.597  0.00  0.00    +0.008 A 
ATOM     18  C   UNL     1       0.079   1.045  24.879  0.00  0.00    +0.046 A 
ATOM     19  C   UNL     1       0.888  -0.472  23.180  0.00  0.00    +0.046 A 
ATOM     20  C   UNL     1       0.944   0.766  23.821  0.00  0.00    +0.120 A 
BRANCH  20   2
ATOM      2  O   UNL     1       1.847   1.700  23.415  0.00  0.00    -0.495 OA
ATOM     22  C   UNL     1       3.088   1.223  22.897  0.00  0.00    +0.277 C 
ENDBRANCH  20   2
ENDBRANCH  10  12
ENDBRANCH   3  10
TORSDOF 6
ENDMDL
MODEL 5
REMARK VINA RESULT:      -4.7      2.584      5.766
REMARK  Name = 51137552
REMARK  8 active torsions:
REMARK  status: ('A' for Active; 'I' for Inactive)
REMARK    1  A    between atoms: O_2  and  C_20
REMARK    2  A    between atoms: O_2  and  C_22
REMARK    3  A    between atoms: N_3  and  C_10
REMARK    4  A    between atoms: C_6  and  C_11
REMARK    5  A    between atoms: C_10  and  C_12
REMARK    6  A    between atoms: C_13  and  C_16
REMARK    7  A    between atoms: C_16  and  C_17
REMARK    8  A    between atoms: C_17  and  C_21
REMARK                            x       y       z     vdW  Elec       q    Type
REMARK                         _______ _______ _______ _____ _____    ______ ____
ROOT
ATOM      3  N   UNL     1      -2.052   2.544  25.409  0.00  0.00    -0.297 NA
ATOM      6  C   UNL     1       0.158   2.130  24.744  0.00  0.00    +0.092 C 
ATOM      7  C   UNL     1      -0.338   3.432  24.094  0.00  0.00    +0.029 C 
ATOM      8  C   UNL     1      -1.115   1.432  25.239  0.00  0.00    +0.097 C 
ATOM      9  C   UNL     1      -1.855   3.387  24.229  0.00  0.00    +0.085 C 
ENDROOT
BRANCH   6  11
ATOM      1  O   UNL     1       2.302   1.614  23.681  0.00  0.00    -0.424 OA
ATOM      4  N   UNL     1       0.668   0.169  23.185  0.00  0.00    -0.112 NA
ATOM      5  N   UNL     1       1.814  -0.237  22.524  0.00  0.00    -0.112 NA
ATOM     11  C   UNL     1       1.000   1.253  23.846  0.00  0.00    +0.222 A 
ATOM     13  C   UNL     1       2.741   0.635  22.843  0.00  0.00    +0.217 A 
BRANCH  13  16
ATOM     16  C   UNL     1       4.149   0.696  22.431  0.00  0.00    +0.097 C 
BRANCH  16  17
ATOM     17  C   UNL     1       5.130   0.503  23.608  0.00  0.00    +0.006 C 
ATOM     21  C   UNL     1       5.165  -0.929  24.118  0.00  0.00    +0.004 C 
ENDBRANCH  16  17
ENDBRANCH  13  16
ENDBRANCH   6  11
BRANCH   3  10
ATOM     10  C   UNL     1      -3.429   2.096  25.546  0.00  0.00    +0.119 C 
BRANCH  10  12
ATOM     12  C   UNL     1      -3.584   0.642  25.183  0.00  0.00    -0.033 A 
ATOM     14  C   UNL     1      -3.245  -0.348  26.105  0.00  0.00    +0.008 A 
ATOM     15  C   UNL     1      -4.065   0.285  23.923  0.00  0.00    +0.008 A 
ATOM     18  C   UNL     1      -3.389  -1.694  25.770  0.00  0.00    +0.046 A 
ATOM     19  C   UNL     1      -4.208  -1.061  23.586  0.00  0.00    +0.046 A 
ATOM     20  C   UNL     1      -3.869  -2.050  24.509  0.00  0.00    +0.120 A 
BRANCH  20   2
ATOM      2  O   UNL     1      -4.011  -3.363  24.181  0.00  0.00    -0.495 OA
ATOM     22  C   UNL     1      -2.964  -3.959  23.417  0.00  0.00    +0.277 C 
ENDBRANCH  20   2
ENDBRANCH  10  12
ENDBRANCH   3  10
TORSDOF 6
ENDMDL
MODEL 6
REMARK VINA RESULT:      -4.6     15.441     18.061
REMARK  Name = 51137552
REMARK  8 active torsions:
REMARK  status: ('A' for Active; 'I' for Inactive)
REMARK    1  A    between atoms: O_2  and  C_20
REMARK    2  A    between atoms: O_2  and  C_22
REMARK    3  A    between atoms: N_3  and  C_10
REMARK    4  A    between atoms: C_6  and  C_11
REMARK    5  A    between atoms: C_10  and  C_12
REMARK    6  A    between atoms: C_13  and  C_16
REMARK    7  A    between atoms: C_16  and  C_17
REMARK    8  A    between atoms: C_17  and  C_21
REMARK                            x       y       z     vdW  Elec       q    Type
REMARK                         _______ _______ _______ _____ _____    ______ ____
ROOT
ATOM      3  N   UNL     1      -3.829  -9.715   9.841  0.00  0.00    -0.297 NA
ATOM      6  C   UNL     1      -5.827  -8.842   8.978  0.00  0.00    +0.092 C 
ATOM      7  C   UNL     1      -5.179  -7.811   9.918  0.00  0.00    +0.029 C 
ATOM      8  C   UNL     1      -5.113 -10.162   9.297  0.00  0.00    +0.097 C 
ATOM      9  C   UNL     1      -4.163  -8.603  10.731  0.00  0.00    +0.085 C 
ENDROOT
BRANCH   6  11
ATOM      1  O   UNL     1      -8.023  -7.772   9.130  0.00  0.00    -0.424 OA
ATOM      4  N   UNL     1      -8.095 -10.008   9.145  0.00  0.00    -0.112 NA
ATOM      5  N   UNL     1      -9.393  -9.538   9.235  0.00  0.00    -0.112 NA
ATOM     11  C   UNL     1      -7.331  -8.943   9.086  0.00  0.00    +0.222 A 
ATOM     13  C   UNL     1      -9.302  -8.228   9.224  0.00  0.00    +0.217 A 
BRANCH  13  16
ATOM     16  C   UNL     1     -10.364  -7.217   9.292  0.00  0.00    +0.097 C 
BRANCH  16  17
ATOM     17  C   UNL     1     -10.270  -6.165   8.166  0.00  0.00    +0.006 C 
ATOM     21  C   UNL     1      -9.781  -4.813   8.662  0.00  0.00    +0.004 C 
ENDBRANCH  16  17
ENDBRANCH  13  16
ENDBRANCH   6  11
BRANCH   3  10
ATOM     10  C   UNL     1      -3.117 -10.781  10.530  0.00  0.00    +0.119 C 
BRANCH  10  12
ATOM     12  C   UNL     1      -3.299 -10.703  12.023  0.00  0.00    -0.033 A 
ATOM     14  C   UNL     1      -2.185 -10.667  12.861  0.00  0.00    +0.008 A 
ATOM     15  C   UNL     1      -4.582 -10.668  12.568  0.00  0.00    +0.008 A 
ATOM     18  C   UNL     1      -2.353 -10.595  14.244  0.00  0.00    +0.046 A 
ATOM     19  C   UNL     1      -4.751 -10.596  13.951  0.00  0.00    +0.046 A 
ATOM     20  C   UNL     1      -3.636 -10.560  14.788  0.00  0.00    +0.120 A 
BRANCH  20   2
ATOM      2  O   UNL     1      -3.802 -10.488  16.137  0.00  0.00    -0.495 OA
ATOM     22  C   UNL     1      -5.126 -10.264  16.618  0.00  0.00    +0.277 C 
ENDBRANCH  20   2
ENDBRANCH  10  12
ENDBRANCH   3  10
TORSDOF 6
ENDMDL
MODEL 7
REMARK VINA RESULT:      -4.5     15.108     17.416
REMARK  Name = 51137552
REMARK  8 active torsions:
REMARK  status: ('A' for Active; 'I' for Inactive)
REMARK    1  A    between atoms: O_2  and  C_20
REMARK    2  A    between atoms: O_2  and  C_22
REMARK    3  A    between atoms: N_3  and  C_10
REMARK    4  A    between atoms: C_6  and  C_11
REMARK    5  A    between atoms: C_10  and  C_12
REMARK    6  A    between atoms: C_13  and  C_16
REMARK    7  A    between atoms: C_16  and  C_17
REMARK    8  A    between atoms: C_17  and  C_21
REMARK                            x       y       z     vdW  Elec       q    Type
REMARK                         _______ _______ _______ _____ _____    ______ ____
ROOT
ATOM      3  N   UNL     1      -4.733  -9.928   9.627  0.00  0.00    -0.297 NA
ATOM      6  C   UNL     1      -6.998  -9.443   9.994  0.00  0.00    +0.092 C 
ATOM      7  C   UNL     1      -6.185  -8.138  10.002  0.00  0.00    +0.029 C 
ATOM      8  C   UNL     1      -5.951 -10.554  10.146  0.00  0.00    +0.097 C 
ATOM      9  C   UNL     1      -4.737  -8.576  10.185  0.00  0.00    +0.085 C 
ENDROOT
BRANCH   6  11
ATOM      1  O   UNL     1      -7.699  -9.717  12.324  0.00  0.00    -0.424 OA
ATOM      4  N   UNL     1      -9.391  -9.414  10.892  0.00  0.00    -0.112 NA
ATOM      5  N   UNL     1      -9.924  -9.553  12.160  0.00  0.00    -0.112 NA
ATOM     11  C   UNL     1      -8.091  -9.517  11.035  0.00  0.00    +0.222 A 
ATOM     13  C   UNL     1      -8.901  -9.728  12.963  0.00  0.00    +0.217 A 
BRANCH  13  16
ATOM     16  C   UNL     1      -8.877  -9.926  14.418  0.00  0.00    +0.097 C 
BRANCH  16  17
ATOM     17  C   UNL     1      -7.511 -10.426  14.936  0.00  0.00    +0.006 C 
ATOM     21  C   UNL     1      -7.036  -9.672  16.169  0.00  0.00    +0.004 C 
ENDBRANCH  16  17
ENDBRANCH  13  16
ENDBRANCH   6  11
BRANCH   3  10
ATOM     10  C   UNL     1      -3.533 -10.670   9.982  0.00  0.00    +0.119 C 
BRANCH  10  12
ATOM     12  C   UNL     1      -3.231 -10.578  11.455  0.00  0.00    -0.033 A 
ATOM     14  C   UNL     1      -4.246 -10.781  12.389  0.00  0.00    +0.008 A 
ATOM     15  C   UNL     1      -1.936 -10.288  11.884  0.00  0.00    +0.008 A 
ATOM     18  C   UNL     1      -3.967 -10.696  13.753  0.00  0.00    +0.046 A 
ATOM     19  C   UNL     1      -1.656 -10.203  13.248  0.00  0.00    +0.046 A 
ATOM     20  C   UNL     1      -2.671 -10.406  14.182  0.00  0.00    +0.120 A 
BRANCH  20   2
ATOM      2  O   UNL     1      -2.397 -10.324  15.512  0.00  0.00    -0.495 OA
ATOM     22  C   UNL     1      -1.028 -10.422  15.901  0.00  0.00    +0.277 C 
ENDBRANCH  20   2
ENDBRANCH  10  12
ENDBRANCH   3  10
TORSDOF 6
ENDMDL
MODEL 8
REMARK VINA RESULT:      -4.4      2.187      4.288
REMARK  Name = 51137552
REMARK  8 active torsions:
REMARK  status: ('A' for Active; 'I' for Inactive)
REMARK    1  A    between atoms: O_2  and  C_20
REMARK    2  A    between atoms: O_2  and  C_22
REMARK    3  A    between atoms: N_3  and  C_10
REMARK    4  A    between atoms: C_6  and  C_11
REMARK    5  A    between atoms: C_10  and  C_12
REMARK    6  A    between atoms: C_13  and  C_16
REMARK    7  A    between atoms: C_16  and  C_17
REMARK    8  A    between atoms: C_17  and  C_21
REMARK                            x       y       z     vdW  Elec       q    Type
REMARK                         _______ _______ _______ _____ _____    ______ ____
ROOT
ATOM      3  N   UNL     1      -4.465   2.861  24.123  0.00  0.00    -0.297 NA
ATOM      6  C   UNL     1      -4.822   0.556  23.877  0.00  0.00    +0.092 C 
ATOM      7  C   UNL     1      -5.647   1.080  25.064  0.00  0.00    +0.029 C 
ATOM      8  C   UNL     1      -3.804   1.668  23.589  0.00  0.00    +0.097 C 
ATOM      9  C   UNL     1      -5.038   2.436  25.400  0.00  0.00    +0.085 C 
ENDROOT
BRANCH   6  11
ATOM      1  O   UNL     1      -2.869  -0.791  24.480  0.00  0.00    -0.424 OA
ATOM      4  N   UNL     1      -4.686  -1.994  23.977  0.00  0.00    -0.112 NA
ATOM      5  N   UNL     1      -3.666  -2.873  24.297  0.00  0.00    -0.112 NA
ATOM     11  C   UNL     1      -4.175  -0.792  24.098  0.00  0.00    +0.222 A 
ATOM     13  C   UNL     1      -2.626  -2.126  24.584  0.00  0.00    +0.217 A 
BRANCH  13  16
ATOM     16  C   UNL     1      -1.273  -2.525  24.992  0.00  0.00    +0.097 C 
BRANCH  16  17
ATOM     17  C   UNL     1      -0.331  -1.322  25.215  0.00  0.00    +0.006 C 
ATOM     21  C   UNL     1       0.104  -0.664  23.914  0.00  0.00    +0.004 C 
ENDBRANCH  16  17
ENDBRANCH  13  16
ENDBRANCH   6  11
BRANCH   3  10
ATOM     10  C   UNL     1      -3.551   3.983  24.272  0.00  0.00    +0.119 C 
BRANCH  10  12
ATOM     12  C   UNL     1      -2.283   3.583  24.982  0.00  0.00    -0.033 A 
ATOM     14  C   UNL     1      -1.142   3.266  24.246  0.00  0.00    +0.008 A 
ATOM     15  C   UNL     1      -2.252   3.531  26.375  0.00  0.00    +0.008 A 
ATOM     18  C   UNL     1       0.032   2.896  24.903  0.00  0.00    +0.046 A 
ATOM     19  C   UNL     1      -1.079   3.160  27.033  0.00  0.00    +0.046 A 
ATOM     20  C   UNL     1       0.062   2.843  26.297  0.00  0.00    +0.120 A 
BRANCH  20   2
ATOM      2  O   UNL     1       1.207   2.484  26.939  0.00  0.00    -0.495 OA
ATOM     22  C   UNL     1       1.203   2.557  28.364  0.00  0.00    +0.277 C 
ENDBRANCH  20   2
ENDBRANCH  10  12
ENDBRANCH   3  10
TORSDOF 6
ENDMDL
MODEL 9
REMARK VINA RESULT:      -3.9     14.572     17.025
REMARK  Name = 51137552
REMARK  8 active torsions:
REMARK  status: ('A' for Active; 'I' for Inactive)
REMARK    1  A    between atoms: O_2  and  C_20
REMARK    2  A    between atoms: O_2  and  C_22
REMARK    3  A    between atoms: N_3  and  C_10
REMARK    4  A    between atoms: C_6  and  C_11
REMARK    5  A    between atoms: C_10  and  C_12
REMARK    6  A    between atoms: C_13  and  C_16
REMARK    7  A    between atoms: C_16  and  C_17
REMARK    8  A    between atoms: C_17  and  C_21
REMARK                            x       y       z     vdW  Elec       q    Type
REMARK                         _______ _______ _______ _____ _____    ______ ____
ROOT
ATOM      3  N   UNL     1      -8.100 -10.019  11.831  0.00  0.00    -0.297 NA
ATOM      6  C   UNL     1      -7.707 -10.530  14.085  0.00  0.00    +0.092 C 
ATOM      7  C   UNL     1      -8.825  -9.479  13.984  0.00  0.00    +0.029 C 
ATOM      8  C   UNL     1      -7.037 -10.520  12.705  0.00  0.00    +0.097 C 
ATOM      9  C   UNL     1      -8.710  -8.916  12.573  0.00  0.00    +0.085 C 
ENDROOT
BRANCH   6  11
ATOM      1  O   UNL     1      -5.451 -10.736  15.015  0.00  0.00    -0.424 OA
ATOM      4  N   UNL     1      -6.919  -9.758  16.391  0.00  0.00    -0.112 NA
ATOM      5  N   UNL     1      -5.696  -9.809  17.036  0.00  0.00    -0.112 NA
ATOM     11  C   UNL     1      -6.729 -10.310  15.216  0.00  0.00    +0.222 A 
ATOM     13  C   UNL     1      -4.870 -10.388  16.196  0.00  0.00    +0.217 A 
BRANCH  13  16
ATOM     16  C   UNL     1      -3.444 -10.699  16.351  0.00  0.00    +0.097 C 
BRANCH  16  17
ATOM     17  C   UNL     1      -2.638 -10.501  15.049  0.00  0.00    +0.006 C 
ATOM     21  C   UNL     1      -1.255  -9.918  15.296  0.00  0.00    +0.004 C 
ENDBRANCH  16  17
ENDBRANCH  13  16
ENDBRANCH   6  11
BRANCH   3  10
ATOM     10  C   UNL     1      -7.599  -9.601  10.530  0.00  0.00    +0.119 C 
BRANCH  10  12
ATOM     12  C   UNL     1      -6.095  -9.505  10.513  0.00  0.00    -0.033 A 
ATOM     14  C   UNL     1      -5.324 -10.654  10.342  0.00  0.00    +0.008 A 
ATOM     15  C   UNL     1      -5.475  -8.265  10.668  0.00  0.00    +0.008 A 
ATOM     18  C   UNL     1      -3.932 -10.565  10.326  0.00  0.00    +0.046 A 
ATOM     19  C   UNL     1      -4.083  -8.175  10.653  0.00  0.00    +0.046 A 
ATOM     20  C   UNL     1      -3.312  -9.325  10.482  0.00  0.00    +0.120 A 
BRANCH  20   2
ATOM      2  O   UNL     1      -1.954  -9.236  10.465  0.00  0.00    -0.495 OA
ATOM     22  C   UNL     1      -1.259  -9.673  11.632  0.00  0.00    +0.277 C 
ENDBRANCH  20   2
ENDBRANCH  10  12
ENDBRANCH   3  10
TORSDOF 6
ENDMDL
MODEL 10
REMARK VINA RESULT:      -3.8      1.459      4.323
REMARK  Name = 51137552
REMARK  8 active torsions:
REMARK  status: ('A' for Active; 'I' for Inactive)
REMARK    1  A    between atoms: O_2  and  C_20
REMARK    2  A    between atoms: O_2  and  C_22
REMARK    3  A    between atoms: N_3  and  C_10
REMARK    4  A    between atoms: C_6  and  C_11
REMARK    5  A    between atoms: C_10  and  C_12
REMARK    6  A    between atoms: C_13  and  C_16
REMARK    7  A    between atoms: C_16  and  C_17
REMARK    8  A    between atoms: C_17  and  C_21
REMARK                            x       y       z     vdW  Elec       q    Type
REMARK                         _______ _______ _______ _____ _____    ______ ____
ROOT
ATOM      3  N   UNL     1      -3.311  -1.570  24.320  0.00  0.00    -0.297 NA
ATOM      6  C   UNL     1      -1.050  -1.106  23.904  0.00  0.00    +0.092 C 
ATOM      7  C   UNL     1      -1.192  -1.782  25.278  0.00  0.00    +0.029 C 
ATOM      8  C   UNL     1      -2.472  -0.654  23.545  0.00  0.00    +0.097 C 
ATOM      9  C   UNL     1      -2.668  -1.653  25.632  0.00  0.00    +0.085 C 
ENDROOT
BRANCH   6  11
ATOM      1  O   UNL     1      -0.474   1.248  24.248  0.00  0.00    -0.424 OA
ATOM      4  N   UNL     1       1.214   0.001  23.474  0.00  0.00    -0.112 NA
ATOM      5  N   UNL     1       1.673   1.297  23.622  0.00  0.00    -0.112 NA
ATOM     11  C   UNL     1      -0.043   0.020  23.851  0.00  0.00    +0.222 A 
ATOM     13  C   UNL     1       0.655   1.990  24.076  0.00  0.00    +0.217 A 
BRANCH  13  16
ATOM     16  C   UNL     1       0.571   3.415  24.416  0.00  0.00    +0.097 C 
BRANCH  16  17
ATOM     17  C   UNL     1      -0.626   3.747  25.334  0.00  0.00    +0.006 C 
ATOM     21  C   UNL     1      -1.280   5.077  24.991  0.00  0.00    +0.004 C 
ENDBRANCH  16  17
ENDBRANCH  13  16
ENDBRANCH   6  11
BRANCH   3  10
ATOM     10  C   UNL     1      -4.692  -1.120  24.408  0.00  0.00    +0.119 C 
BRANCH  10  12
ATOM     12  C   UNL     1      -4.783   0.359  24.677  0.00  0.00    -0.033 A 
ATOM     14  C   UNL     1      -3.992   1.251  23.953  0.00  0.00    +0.008 A 
ATOM     15  C   UNL     1      -5.660   0.837  25.652  0.00  0.00    +0.008 A 
ATOM     18  C   UNL     1      -4.077   2.621  24.202  0.00  0.00    +0.046 A 
ATOM     19  C   UNL     1      -5.745   2.206  25.902  0.00  0.00    +0.046 A 
ATOM     20  C   UNL     1      -4.953   3.098  25.177  0.00  0.00    +0.120 A 
BRANCH  20   2
ATOM      2  O   UNL     1      -5.038   4.434  25.421  0.00  0.00    -0.495 OA
ATOM     22  C   UNL     1      -6.346   4.993  25.527  0.00  0.00    +0.277 C 
ENDBRANCH  20   2
ENDBRANCH  10  12
ENDBRANCH   3  10
TORSDOF 6
ENDMDL
