MODEL 1
REMARK VINA RESULT:      -3.0      0.000      0.000
REMARK  Name = 38029159
REMARK  14 active torsions:
REMARK  status: ('A' for Active; 'I' for Inactive)
REMARK    1  A    between atoms: N_3  and  C_14
REMARK    2  A    between atoms: N_4  and  C_21
REMARK    3  A    between atoms: N_4  and  C_22
REMARK    4  A    between atoms: N_5  and  C_23
REMARK    5  A    between atoms: C_7  and  C_11
REMARK    6  A    between atoms: C_8  and  C_14
REMARK    7  A    between atoms: C_10  and  C_15
REMARK    8  A    between atoms: C_11  and  C_16
REMARK    9  A    between atoms: C_11  and  C_17
REMARK   10  A    between atoms: C_12  and  C_18
REMARK   11  A    between atoms: C_15  and  C_19
REMARK   12  A    between atoms: C_21  and  C_24
REMARK   13  A    between atoms: C_23  and  C_25
REMARK   14  A    between atoms: C_23  and  C_26
REMARK                            x       y       z     vdW  Elec       q    Type
REMARK                         _______ _______ _______ _____ _____    ______ ____
ROOT
ATOM      7  C   UNL     1      -1.046   0.587  24.486  0.00  0.00    +0.000 C 
ATOM      8  C   UNL     1      -0.271  -0.740  24.290  0.00  0.00    +0.032 C 
ATOM      9  C   UNL     1      -2.128   0.421  25.564  0.00  0.00    +0.012 C 
ATOM     10  C   UNL     1      -3.138  -0.686  25.208  0.00  0.00    +0.023 C 
ATOM     12  C   UNL     1      -2.447  -1.952  24.744  0.00  0.00    -0.073 C 
ATOM     13  C   UNL     1      -1.162  -1.959  24.349  0.00  0.00    -0.022 C 
ATOM     18  C   UNL     1      -3.255  -3.219  24.785  0.00  0.00    +0.039 C 
ENDROOT
BRANCH   7  11
ATOM     11  C   UNL     1      -0.111   1.740  24.864  0.00  0.00    -0.013 C 
ATOM     16  C   UNL     1      -0.334   2.931  23.937  0.00  0.00    +0.007 C 
ATOM     17  C   UNL     1      -0.322   2.141  26.321  0.00  0.00    +0.007 C 
ENDBRANCH   7  11
BRANCH   8  14
ATOM     14  C   UNL     1       0.502  -0.738  22.966  0.00  0.00    +0.113 C 
BRANCH  14   3
ATOM      2  O   UNL     1       2.686   1.145  22.839  0.00  0.00    -0.253 OA
ATOM      3  N   UNL     1       1.888  -1.010  23.187  0.00  0.00    -0.299 N 
ATOM      5  N   UNL     1       4.153  -0.575  23.366  0.00  0.00    -0.297 N 
ATOM     20  C   UNL     1       2.894  -0.038  23.106  0.00  0.00    +0.300 C 
ATOM     31  H   UNL     1       2.157  -1.943  23.483  0.00  0.00    +0.150 HD
ATOM     32  H   UNL     1       4.230  -1.579  23.499  0.00  0.00    +0.150 HD
BRANCH   5  23
ATOM     23  C   UNL     1       5.360   0.215  23.346  0.00  0.00    +0.068 C 
ATOM     25  C   UNL     1       6.525  -0.609  22.816  0.00  0.00    +0.027 C 
ATOM     26  C   UNL     1       5.661   0.768  24.734  0.00  0.00    +0.027 C 
ENDBRANCH   5  23
ENDBRANCH  14   3
ENDBRANCH   8  14
BRANCH  10  15
ATOM     15  C   UNL     1      -4.149  -0.197  24.165  0.00  0.00    +0.103 C 
BRANCH  15  19
ATOM      1  O   UNL     1      -3.563   1.979  23.349  0.00  0.00    -0.276 OA
ATOM      4  N   UNL     1      -5.164   1.885  25.024  0.00  0.00    -0.300 N 
ATOM     19  C   UNL     1      -4.252   1.316  24.129  0.00  0.00    +0.216 C 
ATOM     22  C   UNL     1      -5.969   1.081  25.937  0.00  0.00    +0.132 C 
BRANCH   4  21
ATOM     21  C   UNL     1      -5.381   3.327  25.112  0.00  0.00    +0.144 C 
BRANCH  21  24
ATOM      6  N   UNL     1      -2.533   5.600  24.098  0.00  0.00    -0.263 NA
ATOM     24  C   UNL     1      -4.087   4.087  25.167  0.00  0.00    -0.012 A 
ATOM     27  C   UNL     1      -3.254   4.005  26.278  0.00  0.00    +0.008 A 
ATOM     28  C   UNL     1      -3.684   4.891  24.113  0.00  0.00    +0.115 A 
ATOM     29  C   UNL     1      -2.061   4.719  26.299  0.00  0.00    +0.020 A 
ATOM     30  C   UNL     1      -1.750   5.495  25.194  0.00  0.00    +0.111 A 
ENDBRANCH  21  24
ENDBRANCH   4  21
ENDBRANCH  15  19
ENDBRANCH  10  15
TORSDOF 8
ENDMDL
MODEL 2
REMARK VINA RESULT:      -1.2      1.546      3.248
REMARK  Name = 38029159
REMARK  14 active torsions:
REMARK  status: ('A' for Active; 'I' for Inactive)
REMARK    1  A    between atoms: N_3  and  C_14
REMARK    2  A    between atoms: N_4  and  C_21
REMARK    3  A    between atoms: N_4  and  C_22
REMARK    4  A    between atoms: N_5  and  C_23
REMARK    5  A    between atoms: C_7  and  C_11
REMARK    6  A    between atoms: C_8  and  C_14
REMARK    7  A    between atoms: C_10  and  C_15
REMARK    8  A    between atoms: C_11  and  C_16
REMARK    9  A    between atoms: C_11  and  C_17
REMARK   10  A    between atoms: C_12  and  C_18
REMARK   11  A    between atoms: C_15  and  C_19
REMARK   12  A    between atoms: C_21  and  C_24
REMARK   13  A    between atoms: C_23  and  C_25
REMARK   14  A    between atoms: C_23  and  C_26
REMARK                            x       y       z     vdW  Elec       q    Type
REMARK                         _______ _______ _______ _____ _____    ______ ____
ROOT
ATOM      7  C   UNL     1      -3.110  -1.050  24.647  0.00  0.00    +0.000 C 
ATOM      8  C   UNL     1      -1.922  -0.377  23.917  0.00  0.00    +0.032 C 
ATOM      9  C   UNL     1      -4.415  -0.826  23.867  0.00  0.00    +0.012 C 
ATOM     10  C   UNL     1      -4.736   0.669  23.688  0.00  0.00    +0.023 C 
ATOM     12  C   UNL     1      -3.526   1.454  23.222  0.00  0.00    -0.073 C 
ATOM     13  C   UNL     1      -2.278   0.964  23.321  0.00  0.00    -0.022 C 
ATOM     18  C   UNL     1      -3.788   2.797  22.599  0.00  0.00    +0.039 C 
ENDROOT
BRANCH   7  11
ATOM     11  C   UNL     1      -2.879  -2.551  24.848  0.00  0.00    -0.013 C 
ATOM     16  C   UNL     1      -4.039  -3.351  24.264  0.00  0.00    +0.007 C 
ATOM     17  C   UNL     1      -1.557  -2.975  24.215  0.00  0.00    +0.007 C 
ENDBRANCH   7  11
BRANCH   8  14
ATOM     14  C   UNL     1      -0.718  -0.217  24.853  0.00  0.00    +0.113 C 
BRANCH  14   3
ATOM      2  O   UNL     1       1.290   1.668  23.990  0.00  0.00    -0.253 OA
ATOM      3  N   UNL     1       0.501  -0.511  24.168  0.00  0.00    -0.299 N 
ATOM      5  N   UNL     1       2.527  -0.097  23.130  0.00  0.00    -0.297 N 
ATOM     20  C   UNL     1       1.430   0.464  23.780  0.00  0.00    +0.300 C 
ATOM     31  H   UNL     1       0.745  -1.483  24.009  0.00  0.00    +0.150 HD
ATOM     32  H   UNL     1       2.512  -1.094  22.934  0.00  0.00    +0.150 HD
BRANCH   5  23
ATOM     23  C   UNL     1       3.626   0.691  22.629  0.00  0.00    +0.068 C 
ATOM     25  C   UNL     1       3.812   0.455  21.136  0.00  0.00    +0.027 C 
ATOM     26  C   UNL     1       4.903   0.380  23.400  0.00  0.00    +0.027 C 
ENDBRANCH   5  23
ENDBRANCH  14   3
ENDBRANCH   8  14
BRANCH  10  15
ATOM     15  C   UNL     1      -5.317   1.268  24.974  0.00  0.00    +0.103 C 
BRANCH  15  19
ATOM      1  O   UNL     1      -3.274   1.539  26.199  0.00  0.00    -0.276 OA
ATOM      4  N   UNL     1      -4.577   3.434  25.905  0.00  0.00    -0.300 N 
ATOM     19  C   UNL     1      -4.290   2.074  25.748  0.00  0.00    +0.216 C 
ATOM     22  C   UNL     1      -5.785   4.045  25.362  0.00  0.00    +0.132 C 
BRANCH   4  21
ATOM     21  C   UNL     1      -3.690   4.345  26.624  0.00  0.00    +0.144 C 
BRANCH  21  24
ATOM      6  N   UNL     1      -0.172   3.546  25.490  0.00  0.00    -0.263 NA
ATOM     24  C   UNL     1      -2.356   4.478  25.949  0.00  0.00    -0.012 A 
ATOM     27  C   UNL     1      -2.046   5.598  25.186  0.00  0.00    +0.008 A 
ATOM     28  C   UNL     1      -1.393   3.489  26.069  0.00  0.00    +0.115 A 
ATOM     29  C   UNL     1      -0.801   5.693  24.574  0.00  0.00    +0.020 A 
ATOM     30  C   UNL     1       0.092   4.650  24.756  0.00  0.00    +0.111 A 
ENDBRANCH  21  24
ENDBRANCH   4  21
ENDBRANCH  15  19
ENDBRANCH  10  15
TORSDOF 8
ENDMDL
MODEL 3
REMARK VINA RESULT:      -1.0      1.766      7.044
REMARK  Name = 38029159
REMARK  14 active torsions:
REMARK  status: ('A' for Active; 'I' for Inactive)
REMARK    1  A    between atoms: N_3  and  C_14
REMARK    2  A    between atoms: N_4  and  C_21
REMARK    3  A    between atoms: N_4  and  C_22
REMARK    4  A    between atoms: N_5  and  C_23
REMARK    5  A    between atoms: C_7  and  C_11
REMARK    6  A    between atoms: C_8  and  C_14
REMARK    7  A    between atoms: C_10  and  C_15
REMARK    8  A    between atoms: C_11  and  C_16
REMARK    9  A    between atoms: C_11  and  C_17
REMARK   10  A    between atoms: C_12  and  C_18
REMARK   11  A    between atoms: C_15  and  C_19
REMARK   12  A    between atoms: C_21  and  C_24
REMARK   13  A    between atoms: C_23  and  C_25
REMARK   14  A    between atoms: C_23  and  C_26
REMARK                            x       y       z     vdW  Elec       q    Type
REMARK                         _______ _______ _______ _____ _____    ______ ____
ROOT
ATOM      7  C   UNL     1      -3.243   2.869  25.371  0.00  0.00    +0.000 C 
ATOM      8  C   UNL     1      -4.301   2.603  24.272  0.00  0.00    +0.032 C 
ATOM      9  C   UNL     1      -2.009   3.561  24.772  0.00  0.00    +0.012 C 
ATOM     10  C   UNL     1      -1.356   2.723  23.657  0.00  0.00    +0.023 C 
ATOM     12  C   UNL     1      -2.381   2.196  22.673  0.00  0.00    -0.073 C 
ATOM     13  C   UNL     1      -3.694   2.163  22.961  0.00  0.00    -0.022 C 
ATOM     18  C   UNL     1      -1.866   1.750  21.332  0.00  0.00    +0.039 C 
ENDROOT
BRANCH   7  11
ATOM     11  C   UNL     1      -3.809   3.718  26.513  0.00  0.00    -0.013 C 
ATOM     16  C   UNL     1      -2.957   4.967  26.720  0.00  0.00    +0.007 C 
ATOM     17  C   UNL     1      -5.260   4.094  26.228  0.00  0.00    +0.007 C 
ENDBRANCH   7  11
BRANCH   8  14
ATOM     14  C   UNL     1      -5.328   1.563  24.733  0.00  0.00    +0.113 C 
BRANCH  14   3
ATOM      2  O   UNL     1      -4.072  -0.782  23.616  0.00  0.00    -0.253 OA
ATOM      3  N   UNL     1      -4.691   0.503  25.450  0.00  0.00    -0.299 N 
ATOM      5  N   UNL     1      -3.555  -1.486  25.766  0.00  0.00    -0.297 N 
ATOM     20  C   UNL     1      -4.101  -0.608  24.833  0.00  0.00    +0.300 C 
ATOM     31  H   UNL     1      -4.600   0.587  26.458  0.00  0.00    +0.150 HD
ATOM     32  H   UNL     1      -3.700  -1.293  26.752  0.00  0.00    +0.150 HD
BRANCH   5  23
ATOM     23  C   UNL     1      -2.889  -2.710  25.391  0.00  0.00    +0.068 C 
ATOM     25  C   UNL     1      -1.430  -2.437  25.049  0.00  0.00    +0.027 C 
ATOM     26  C   UNL     1      -3.613  -3.378  24.228  0.00  0.00    +0.027 C 
ENDBRANCH   5  23
ENDBRANCH  14   3
ENDBRANCH   8  14
BRANCH  10  15
ATOM     15  C   UNL     1      -0.520   1.580  24.243  0.00  0.00    +0.103 C 
BRANCH  15  19
ATOM      1  O   UNL     1       1.667   2.185  23.470  0.00  0.00    -0.276 OA
ATOM      4  N   UNL     1       0.836   0.139  22.762  0.00  0.00    -0.300 N 
ATOM     19  C   UNL     1       0.762   1.347  23.465  0.00  0.00    +0.216 C 
ATOM     22  C   UNL     1      -0.247  -0.838  22.772  0.00  0.00    +0.132 C 
BRANCH   4  21
ATOM     21  C   UNL     1       2.002  -0.234  21.966  0.00  0.00    +0.144 C 
BRANCH  21  24
ATOM      6  N   UNL     1       4.714  -1.518  24.266  0.00  0.00    -0.263 NA
ATOM     24  C   UNL     1       3.255  -0.277  22.791  0.00  0.00    -0.012 A 
ATOM     27  C   UNL     1       4.103   0.823  22.865  0.00  0.00    +0.008 A 
ATOM     28  C   UNL     1       3.603  -1.413  23.504  0.00  0.00    +0.115 A 
ATOM     29  C   UNL     1       5.256   0.753  23.639  0.00  0.00    +0.020 A 
ATOM     30  C   UNL     1       5.514  -0.429  24.314  0.00  0.00    +0.111 A 
ENDBRANCH  21  24
ENDBRANCH   4  21
ENDBRANCH  15  19
ENDBRANCH  10  15
TORSDOF 8
ENDMDL
MODEL 4
REMARK VINA RESULT:      -0.8      1.856      4.815
REMARK  Name = 38029159
REMARK  14 active torsions:
REMARK  status: ('A' for Active; 'I' for Inactive)
REMARK    1  A    between atoms: N_3  and  C_14
REMARK    2  A    between atoms: N_4  and  C_21
REMARK    3  A    between atoms: N_4  and  C_22
REMARK    4  A    between atoms: N_5  and  C_23
REMARK    5  A    between atoms: C_7  and  C_11
REMARK    6  A    between atoms: C_8  and  C_14
REMARK    7  A    between atoms: C_10  and  C_15
REMARK    8  A    between atoms: C_11  and  C_16
REMARK    9  A    between atoms: C_11  and  C_17
REMARK   10  A    between atoms: C_12  and  C_18
REMARK   11  A    between atoms: C_15  and  C_19
REMARK   12  A    between atoms: C_21  and  C_24
REMARK   13  A    between atoms: C_23  and  C_25
REMARK   14  A    between atoms: C_23  and  C_26
REMARK                            x       y       z     vdW  Elec       q    Type
REMARK                         _______ _______ _______ _____ _____    ______ ____
ROOT
ATOM      7  C   UNL     1      -2.807   2.601  23.895  0.00  0.00    +0.000 C 
ATOM      8  C   UNL     1      -1.534   2.936  24.710  0.00  0.00    +0.032 C 
ATOM      9  C   UNL     1      -3.851   3.719  24.047  0.00  0.00    +0.012 C 
ATOM     10  C   UNL     1      -4.256   3.941  25.516  0.00  0.00    +0.023 C 
ATOM     12  C   UNL     1      -3.048   4.014  26.429  0.00  0.00    -0.073 C 
ATOM     13  C   UNL     1      -1.837   3.572  26.046  0.00  0.00    -0.022 C 
ATOM     18  C   UNL     1      -3.255   4.648  27.777  0.00  0.00    +0.039 C 
ENDROOT
BRANCH   7  11
ATOM     11  C   UNL     1      -2.493   2.385  22.412  0.00  0.00    -0.013 C 
ATOM     16  C   UNL     1      -2.395   0.894  22.100  0.00  0.00    +0.007 C 
ATOM     17  C   UNL     1      -3.553   3.051  21.540  0.00  0.00    +0.007 C 
ENDBRANCH   7  11
BRANCH   8  14
ATOM     14  C   UNL     1      -0.670   1.688  24.923  0.00  0.00    +0.113 C 
BRANCH  14   3
ATOM      2  O   UNL     1       0.906   0.062  23.135  0.00  0.00    -0.253 OA
ATOM      3  N   UNL     1       0.676   1.925  24.505  0.00  0.00    -0.299 N 
ATOM      5  N   UNL     1       2.669   1.550  23.392  0.00  0.00    -0.297 N 
ATOM     20  C   UNL     1       1.378   1.084  23.630  0.00  0.00    +0.300 C 
ATOM     31  H   UNL     1       1.133   2.781  24.803  0.00  0.00    +0.150 HD
ATOM     32  H   UNL     1       2.992   2.361  23.910  0.00  0.00    +0.150 HD
BRANCH   5  23
ATOM     23  C   UNL     1       3.599   0.865  22.526  0.00  0.00    +0.068 C 
ATOM     25  C   UNL     1       2.867  -0.145  21.654  0.00  0.00    +0.027 C 
ATOM     26  C   UNL     1       4.698   0.196  23.344  0.00  0.00    +0.027 C 
ENDBRANCH   5  23
ENDBRANCH  14   3
ENDBRANCH   8  14
BRANCH  10  15
ATOM     15  C   UNL     1      -5.236   2.862  25.989  0.00  0.00    +0.103 C 
BRANCH  15  19
ATOM      1  O   UNL     1      -6.220   2.032  23.966  0.00  0.00    -0.276 OA
ATOM      4  N   UNL     1      -4.823   0.585  25.122  0.00  0.00    -0.300 N 
ATOM     19  C   UNL     1      -5.482   1.804  24.928  0.00  0.00    +0.216 C 
ATOM     22  C   UNL     1      -3.955   0.339  26.268  0.00  0.00    +0.132 C 
BRANCH   4  21
ATOM     21  C   UNL     1      -4.956  -0.533  24.192  0.00  0.00    +0.144 C 
BRANCH  21  24
ATOM      6  N   UNL     1      -1.414  -1.768  24.678  0.00  0.00    -0.263 NA
ATOM     24  C   UNL     1      -3.775  -1.459  24.254  0.00  0.00    -0.012 A 
ATOM     27  C   UNL     1      -3.907  -2.812  23.962  0.00  0.00    +0.008 A 
ATOM     28  C   UNL     1      -2.518  -0.991  24.604  0.00  0.00    +0.115 A 
ATOM     29  C   UNL     1      -2.795  -3.643  24.027  0.00  0.00    +0.020 A 
ATOM     30  C   UNL     1      -1.582  -3.077  24.386  0.00  0.00    +0.111 A 
ENDBRANCH  21  24
ENDBRANCH   4  21
ENDBRANCH  15  19
ENDBRANCH  10  15
TORSDOF 8
ENDMDL
