MODEL 1
REMARK VINA RESULT:       9.4      0.000      0.000
REMARK  Name = 40777463
REMARK  8 active torsions:
REMARK  status: ('A' for Active; 'I' for Inactive)
REMARK    1  A    between atoms: O_4  and  C_35
REMARK    2  A    between atoms: O_4  and  C_36
REMARK    3  A    between atoms: N_7  and  C_23
REMARK    4  A    between atoms: C_9  and  C_13
REMARK    5  A    between atoms: C_10  and  C_15
REMARK    6  A    between atoms: C_13  and  C_16
REMARK    7  A    between atoms: C_15  and  C_17
REMARK    8  A    between atoms: C_24  and  C_27
REMARK                            x       y       z     vdW  Elec       q    Type
REMARK                         _______ _______ _______ _____ _____    ______ ____
ROOT
ATOM      5  N   UNL     1      -6.935   2.661  24.911  0.00  0.00    -0.316 NA
ATOM      9  C   UNL     1      -4.191   1.597  25.117  0.00  0.00    +0.004 C 
ATOM     10  C   UNL     1      -4.493   3.107  24.976  0.00  0.00    +0.012 C 
ATOM     11  C   UNL     1      -5.415   0.895  25.731  0.00  0.00    +0.019 C 
ATOM     12  C   UNL     1      -5.828   3.354  24.251  0.00  0.00    +0.085 C 
ATOM     14  C   UNL     1      -6.708   1.220  24.984  0.00  0.00    +0.081 C 
ATOM     37  H   UNL     1      -7.798   2.841  24.399  0.00  0.00    +0.122 HD
ENDROOT
BRANCH   9  13
ATOM     13  C   UNL     1      -3.773   0.917  23.808  0.00  0.00    +0.100 C 
BRANCH  13  16
ATOM      2  O   UNL     1      -3.600  -1.375  24.398  0.00  0.00    -0.276 OA
ATOM      6  N   UNL     1      -1.607  -0.243  24.019  0.00  0.00    -0.298 N 
ATOM      7  N   UNL     1       1.266  -0.208  23.666  0.00  0.00    -0.327 N 
ATOM     16  C   UNL     1      -2.996  -0.341  24.101  0.00  0.00    +0.216 C 
ATOM     18  C   UNL     1      -0.783  -1.418  24.294  0.00  0.00    +0.126 C 
ATOM     19  C   UNL     1      -0.892   0.982  23.655  0.00  0.00    +0.126 C 
ATOM     20  C   UNL     1       0.490  -1.433  23.452  0.00  0.00    +0.124 C 
ATOM     21  C   UNL     1       0.560   0.986  24.137  0.00  0.00    +0.124 C 
BRANCH   7  23
ATOM      1  F   UNL     1       6.727  -0.150  22.846  0.00  0.00    -0.205 F 
ATOM     23  C   UNL     1       2.644  -0.193  23.459  0.00  0.00    +0.030 A 
ATOM     25  C   UNL     1       3.419  -1.287  23.847  0.00  0.00    +0.026 A 
ATOM     26  C   UNL     1       3.248   0.914  22.864  0.00  0.00    +0.026 A 
ATOM     28  C   UNL     1       4.797  -1.273  23.640  0.00  0.00    +0.040 A 
ATOM     29  C   UNL     1       4.627   0.928  22.657  0.00  0.00    +0.040 A 
ATOM     30  C   UNL     1       5.402  -0.165  23.045  0.00  0.00    +0.124 A 
ENDBRANCH   7  23
ENDBRANCH  13  16
ENDBRANCH   9  13
BRANCH  10  15
ATOM     15  C   UNL     1      -3.363   3.883  24.298  0.00  0.00    +0.064 C 
BRANCH  15  17
ATOM      3  O   UNL     1       0.046   3.898  25.458  0.00  0.00    -0.354 OA
ATOM      8  N   UNL     1      -0.932   4.179  24.512  0.00  0.00    -0.083 NA
ATOM     17  C   UNL     1      -2.073   3.742  25.054  0.00  0.00    +0.085 A 
ATOM     22  C   UNL     1      -1.878   3.181  26.328  0.00  0.00    +0.076 A 
ATOM     24  C   UNL     1      -0.530   3.304  26.535  0.00  0.00    +0.167 A 
BRANCH  24  27
ATOM     27  C   UNL     1       0.362   2.953  27.601  0.00  0.00    +0.020 A 
ATOM     31  C   UNL     1       1.739   2.935  27.381  0.00  0.00    +0.015 A 
ATOM     32  C   UNL     1      -0.147   2.629  28.860  0.00  0.00    +0.015 A 
ATOM     33  C   UNL     1       2.608   2.593  28.418  0.00  0.00    +0.046 A 
ATOM     34  C   UNL     1       0.721   2.289  29.897  0.00  0.00    +0.046 A 
ATOM     35  C   UNL     1       2.098   2.270  29.676  0.00  0.00    +0.120 A 
BRANCH  35   4
ATOM      4  O   UNL     1       2.946   1.939  30.689  0.00  0.00    -0.495 OA
ATOM     36  C   UNL     1       2.355   1.535  31.923  0.00  0.00    +0.277 C 
ENDBRANCH  35   4
ENDBRANCH  24  27
ENDBRANCH  15  17
ENDBRANCH  10  15
TORSDOF 7
ENDMDL
MODEL 2
REMARK VINA RESULT:      11.1      2.631      5.726
REMARK  Name = 40777463
REMARK  8 active torsions:
REMARK  status: ('A' for Active; 'I' for Inactive)
REMARK    1  A    between atoms: O_4  and  C_35
REMARK    2  A    between atoms: O_4  and  C_36
REMARK    3  A    between atoms: N_7  and  C_23
REMARK    4  A    between atoms: C_9  and  C_13
REMARK    5  A    between atoms: C_10  and  C_15
REMARK    6  A    between atoms: C_13  and  C_16
REMARK    7  A    between atoms: C_15  and  C_17
REMARK    8  A    between atoms: C_24  and  C_27
REMARK                            x       y       z     vdW  Elec       q    Type
REMARK                         _______ _______ _______ _____ _____    ______ ____
ROOT
ATOM      5  N   UNL     1      -4.446   0.242  26.508  0.00  0.00    -0.316 NA
ATOM      9  C   UNL     1      -4.669   0.206  23.566  0.00  0.00    +0.004 C 
ATOM     10  C   UNL     1      -4.282  -1.044  24.391  0.00  0.00    +0.012 C 
ATOM     11  C   UNL     1      -5.470   1.169  24.460  0.00  0.00    +0.019 C 
ATOM     12  C   UNL     1      -3.609  -0.662  25.720  0.00  0.00    +0.085 C 
ATOM     14  C   UNL     1      -4.758   1.469  25.778  0.00  0.00    +0.081 C 
ATOM     37  H   UNL     1      -3.965   0.479  27.375  0.00  0.00    +0.122 HD
ENDROOT
BRANCH   9  13
ATOM     13  C   UNL     1      -3.476   0.925  22.924  0.00  0.00    +0.100 C 
BRANCH  13  16
ATOM      2  O   UNL     1      -3.993   3.217  23.260  0.00  0.00    -0.276 OA
ATOM      6  N   UNL     1      -2.238   2.349  24.511  0.00  0.00    -0.298 N 
ATOM      7  N   UNL     1      -0.271   2.573  26.623  0.00  0.00    -0.327 N 
ATOM     16  C   UNL     1      -3.269   2.269  23.574  0.00  0.00    +0.216 C 
ATOM     18  C   UNL     1      -1.971   3.620  25.182  0.00  0.00    +0.126 C 
ATOM     19  C   UNL     1      -1.387   1.220  24.891  0.00  0.00    +0.126 C 
ATOM     20  C   UNL     1      -1.470   3.417  26.609  0.00  0.00    +0.124 C 
ATOM     21  C   UNL     1      -0.053   1.663  25.497  0.00  0.00    +0.124 C 
BRANCH   7  23
ATOM      1  F   UNL     1       3.385   2.935  30.746  0.00  0.00    -0.205 F 
ATOM     23  C   UNL     1       0.651   2.665  27.663  0.00  0.00    +0.030 A 
ATOM     25  C   UNL     1       1.959   3.073  27.401  0.00  0.00    +0.026 A 
ATOM     26  C   UNL     1       0.267   2.348  28.966  0.00  0.00    +0.026 A 
ATOM     28  C   UNL     1       2.883   3.164  28.442  0.00  0.00    +0.040 A 
ATOM     29  C   UNL     1       1.190   2.439  30.007  0.00  0.00    +0.040 A 
ATOM     30  C   UNL     1       2.498   2.848  29.745  0.00  0.00    +0.124 A 
ENDBRANCH   7  23
ENDBRANCH  13  16
ENDBRANCH   9  13
BRANCH  10  15
ATOM     15  C   UNL     1      -3.411  -2.029  23.611  0.00  0.00    +0.064 C 
BRANCH  15  17
ATOM      3  O   UNL     1      -0.076  -1.851  24.957  0.00  0.00    -0.354 OA
ATOM      8  N   UNL     1      -1.415  -2.214  25.033  0.00  0.00    -0.083 NA
ATOM     17  C   UNL     1      -1.952  -1.801  23.881  0.00  0.00    +0.085 A 
ATOM     22  C   UNL     1      -1.008  -1.176  23.047  0.00  0.00    +0.076 A 
ATOM     24  C   UNL     1       0.154  -1.234  23.769  0.00  0.00    +0.167 A 
BRANCH  24  27
ATOM     27  C   UNL     1       1.502  -0.799  23.547  0.00  0.00    +0.020 A 
ATOM     31  C   UNL     1       1.746   0.433  22.940  0.00  0.00    +0.015 A 
ATOM     32  C   UNL     1       2.570  -1.608  23.936  0.00  0.00    +0.015 A 
ATOM     33  C   UNL     1       3.058   0.856  22.722  0.00  0.00    +0.046 A 
ATOM     34  C   UNL     1       3.881  -1.185  23.720  0.00  0.00    +0.046 A 
ATOM     35  C   UNL     1       4.125   0.047  23.113  0.00  0.00    +0.120 A 
BRANCH  35   4
ATOM      4  O   UNL     1       5.405   0.461  22.903  0.00  0.00    -0.495 OA
ATOM     36  C   UNL     1       6.442  -0.301  23.519  0.00  0.00    +0.277 C 
ENDBRANCH  35   4
ENDBRANCH  24  27
ENDBRANCH  15  17
ENDBRANCH  10  15
TORSDOF 7
ENDMDL
MODEL 3
REMARK VINA RESULT:      12.3      2.784      5.944
REMARK  Name = 40777463
REMARK  8 active torsions:
REMARK  status: ('A' for Active; 'I' for Inactive)
REMARK    1  A    between atoms: O_4  and  C_35
REMARK    2  A    between atoms: O_4  and  C_36
REMARK    3  A    between atoms: N_7  and  C_23
REMARK    4  A    between atoms: C_9  and  C_13
REMARK    5  A    between atoms: C_10  and  C_15
REMARK    6  A    between atoms: C_13  and  C_16
REMARK    7  A    between atoms: C_15  and  C_17
REMARK    8  A    between atoms: C_24  and  C_27
REMARK                            x       y       z     vdW  Elec       q    Type
REMARK                         _______ _______ _______ _____ _____    ______ ____
ROOT
ATOM      5  N   UNL     1      -2.588  -3.210  24.452  0.00  0.00    -0.316 NA
ATOM      9  C   UNL     1      -4.124  -0.895  23.460  0.00  0.00    +0.004 C 
ATOM     10  C   UNL     1      -2.603  -1.049  23.228  0.00  0.00    +0.012 C 
ATOM     11  C   UNL     1      -4.744  -2.287  23.677  0.00  0.00    +0.019 C 
ATOM     12  C   UNL     1      -1.944  -1.901  24.327  0.00  0.00    +0.085 C 
ATOM     14  C   UNL     1      -4.012  -3.089  24.753  0.00  0.00    +0.081 C 
ATOM     37  H   UNL     1      -2.131  -3.741  25.194  0.00  0.00    +0.122 HD
ENDROOT
BRANCH   9  13
ATOM     13  C   UNL     1      -4.488   0.049  24.613  0.00  0.00    +0.100 C 
BRANCH  13  16
ATOM      2  O   UNL     1      -4.280   2.200  23.633  0.00  0.00    -0.276 OA
ATOM      6  N   UNL     1      -2.658   1.600  25.184  0.00  0.00    -0.298 N 
ATOM      7  N   UNL     1      -0.389   2.242  26.863  0.00  0.00    -0.327 N 
ATOM     16  C   UNL     1      -3.809   1.382  24.426  0.00  0.00    +0.216 C 
ATOM     18  C   UNL     1      -1.940   2.866  25.056  0.00  0.00    +0.126 C 
ATOM     19  C   UNL     1      -2.106   0.632  26.134  0.00  0.00    +0.126 C 
ATOM     20  C   UNL     1      -1.290   3.290  26.370  0.00  0.00    +0.124 C 
ATOM     21  C   UNL     1      -0.622   0.866  26.422  0.00  0.00    +0.124 C 
BRANCH   7  23
ATOM      1  F   UNL     1       3.846   3.496  30.178  0.00  0.00    -0.205 F 
ATOM     23  C   UNL     1       0.679   2.559  27.699  0.00  0.00    +0.030 A 
ATOM     25  C   UNL     1       1.821   3.165  27.173  0.00  0.00    +0.026 A 
ATOM     26  C   UNL     1       0.608   2.270  29.062  0.00  0.00    +0.026 A 
ATOM     28  C   UNL     1       2.890   3.481  28.010  0.00  0.00    +0.040 A 
ATOM     29  C   UNL     1       1.678   2.586  29.898  0.00  0.00    +0.040 A 
ATOM     30  C   UNL     1       2.819   3.192  29.373  0.00  0.00    +0.124 A 
ENDBRANCH   7  23
ENDBRANCH  13  16
ENDBRANCH   9  13
BRANCH  10  15
ATOM     15  C   UNL     1      -1.881   0.290  23.083  0.00  0.00    +0.064 C 
BRANCH  15  17
ATOM      3  O   UNL     1       1.369  -0.357  21.672  0.00  0.00    -0.354 OA
ATOM      8  N   UNL     1      -0.015  -0.268  21.583  0.00  0.00    -0.083 NA
ATOM     17  C   UNL     1      -0.418   0.096  22.804  0.00  0.00    +0.085 A 
ATOM     22  C   UNL     1       0.657   0.249  23.696  0.00  0.00    +0.076 A 
ATOM     24  C   UNL     1       1.757  -0.046  22.935  0.00  0.00    +0.167 A 
BRANCH  24  27
ATOM     27  C   UNL     1       3.169  -0.095  23.181  0.00  0.00    +0.020 A 
ATOM     31  C   UNL     1       3.753  -1.267  23.661  0.00  0.00    +0.015 A 
ATOM     32  C   UNL     1       3.959   1.030  22.940  0.00  0.00    +0.015 A 
ATOM     33  C   UNL     1       5.127  -1.314  23.900  0.00  0.00    +0.046 A 
ATOM     34  C   UNL     1       5.332   0.981  23.178  0.00  0.00    +0.046 A 
ATOM     35  C   UNL     1       5.916  -0.191  23.658  0.00  0.00    +0.120 A 
BRANCH  35   4
ATOM      4  O   UNL     1       7.257  -0.238  23.889  0.00  0.00    -0.495 OA
ATOM     36  C   UNL     1       8.093  -0.587  22.788  0.00  0.00    +0.277 C 
ENDBRANCH  35   4
ENDBRANCH  24  27
ENDBRANCH  15  17
ENDBRANCH  10  15
TORSDOF 7
ENDMDL
