MODEL 1
REMARK VINA RESULT:       4.7      0.000      0.000
REMARK  Name = 7144230
REMARK  8 active torsions:
REMARK  status: ('A' for Active; 'I' for Inactive)
REMARK    1  A    between atoms: S_1  and  C_22
REMARK    2  A    between atoms: S_1  and  C_28
REMARK    3  A    between atoms: S_2  and  C_27
REMARK    4  A    between atoms: S_2  and  C_30
REMARK    5  A    between atoms: O_5  and  C_29
REMARK    6  A    between atoms: C_16  and  C_21
REMARK    7  A    between atoms: C_18  and  C_22
REMARK    8  A    between atoms: C_28  and  C_29
REMARK                            x       y       z     vdW  Elec       q    Type
REMARK                         _______ _______ _______ _____ _____    ______ ____
ROOT
ATOM      3  O   UNL     1      -3.371   4.846  26.815  0.00  0.00    -0.268 OA
ATOM      4  O   UNL     1      -5.453   0.083  25.963  0.00  0.00    -0.275 OA
ATOM      7  N   UNL     1      -4.132   0.696  24.153  0.00  0.00    -0.300 N 
ATOM      8  N   UNL     1      -2.852   3.491  24.976  0.00  0.00    -0.311 N 
ATOM      9  C   UNL     1      -4.599   2.941  23.182  0.00  0.00    +0.027 C 
ATOM     10  C   UNL     1      -2.336   1.997  23.021  0.00  0.00    +0.054 C 
ATOM     11  C   UNL     1      -3.398   2.792  22.263  0.00  0.00    +0.018 C 
ATOM     12  C   UNL     1      -5.159   1.565  23.578  0.00  0.00    +0.113 C 
ATOM     13  C   UNL     1      -4.179   3.761  24.402  0.00  0.00    +0.130 C 
ATOM     14  C   UNL     1      -2.893   0.600  23.370  0.00  0.00    +0.117 C 
ATOM     15  C   UNL     1      -1.889   2.721  24.294  0.00  0.00    +0.034 A 
ATOM     16  C   UNL     1      -0.627   2.624  24.788  0.00  0.00    +0.002 A 
ATOM     17  C   UNL     1      -2.572   4.151  26.186  0.00  0.00    +0.252 A 
ATOM     18  C   UNL     1      -4.404  -0.014  25.322  0.00  0.00    +0.225 C 
ATOM     19  C   UNL     1      -0.303   3.288  26.037  0.00  0.00    +0.015 A 
ATOM     20  C   UNL     1      -1.201   3.998  26.720  0.00  0.00    +0.071 A 
ENDROOT
BRANCH  16  21
ATOM     21  C   UNL     1       0.422   1.843  24.098  0.00  0.00    -0.016 A 
ATOM     23  C   UNL     1       0.154   0.542  23.683  0.00  0.00    +0.009 A 
ATOM     24  C   UNL     1       1.670   2.415  23.869  0.00  0.00    +0.009 A 
ATOM     25  C   UNL     1       1.144  -0.195  23.033  0.00  0.00    +0.015 A 
ATOM     26  C   UNL     1       2.659   1.678  23.219  0.00  0.00    +0.015 A 
ATOM     27  C   UNL     1       2.396   0.373  22.801  0.00  0.00    +0.008 A 
BRANCH  27   2
ATOM      2  S   UNL     1       3.661  -0.569  21.971  0.00  0.00    -0.129 S 
ATOM     30  C   UNL     1       5.137  -0.136  22.936  0.00  0.00    +0.090 C 
ENDBRANCH  27   2
ENDBRANCH  16  21
BRANCH  18  22
ATOM     22  C   UNL     1      -3.324  -0.945  25.814  0.00  0.00    +0.165 C 
BRANCH  22   1
ATOM      1  S   UNL     1      -3.346  -2.409  24.769  0.00  0.00    -0.140 S 
BRANCH   1  28
ATOM     28  C   UNL     1      -1.573  -2.534  24.427  0.00  0.00    +0.189 C 
BRANCH  28  29
ATOM      6  O   UNL     1      -1.235  -0.873  26.139  0.00  0.00    -0.250 OA
ATOM     29  C   UNL     1      -0.805  -1.828  25.505  0.00  0.00    +0.315 C 
BRANCH  29   5
ATOM      5  O   UNL     1       0.419  -2.374  25.720  0.00  0.00    -0.480 OA
ATOM     31  H   UNL     1       0.370  -3.170  26.292  0.00  0.00    +0.295 HD
ENDBRANCH  29   5
ENDBRANCH  28  29
ENDBRANCH   1  28
ENDBRANCH  22   1
ENDBRANCH  18  22
TORSDOF 7
ENDMDL
MODEL 2
REMARK VINA RESULT:       8.2      3.412      4.838
REMARK  Name = 7144230
REMARK  8 active torsions:
REMARK  status: ('A' for Active; 'I' for Inactive)
REMARK    1  A    between atoms: S_1  and  C_22
REMARK    2  A    between atoms: S_1  and  C_28
REMARK    3  A    between atoms: S_2  and  C_27
REMARK    4  A    between atoms: S_2  and  C_30
REMARK    5  A    between atoms: O_5  and  C_29
REMARK    6  A    between atoms: C_16  and  C_21
REMARK    7  A    between atoms: C_18  and  C_22
REMARK    8  A    between atoms: C_28  and  C_29
REMARK                            x       y       z     vdW  Elec       q    Type
REMARK                         _______ _______ _______ _____ _____    ______ ____
ROOT
ATOM      3  O   UNL     1      -2.913   1.815  20.903  0.00  0.00    -0.268 OA
ATOM      4  O   UNL     1      -6.682   1.529  24.572  0.00  0.00    -0.275 OA
ATOM      7  N   UNL     1      -4.803   0.362  25.285  0.00  0.00    -0.300 N 
ATOM      8  N   UNL     1      -2.628   0.833  23.010  0.00  0.00    -0.311 N 
ATOM      9  C   UNL     1      -3.884  -1.301  23.675  0.00  0.00    +0.027 C 
ATOM     10  C   UNL     1      -2.380  -0.210  25.284  0.00  0.00    +0.054 C 
ATOM     11  C   UNL     1      -2.700  -1.538  24.598  0.00  0.00    +0.018 C 
ATOM     12  C   UNL     1      -5.107  -0.813  24.469  0.00  0.00    +0.113 C 
ATOM     13  C   UNL     1      -3.467  -0.301  22.596  0.00  0.00    +0.130 C 
ATOM     14  C   UNL     1      -3.598   0.244  26.117  0.00  0.00    +0.117 C 
ATOM     15  C   UNL     1      -1.999   0.872  24.270  0.00  0.00    +0.034 A 
ATOM     16  C   UNL     1      -1.113   1.862  24.553  0.00  0.00    +0.002 A 
ATOM     17  C   UNL     1      -2.402   1.809  22.023  0.00  0.00    +0.252 A 
ATOM     18  C   UNL     1      -5.674   1.451  25.280  0.00  0.00    +0.225 C 
ATOM     19  C   UNL     1      -0.857   2.889  23.560  0.00  0.00    +0.015 A 
ATOM     20  C   UNL     1      -1.460   2.895  22.371  0.00  0.00    +0.071 A 
ENDROOT
BRANCH  16  21
ATOM     21  C   UNL     1      -0.414   1.934  25.855  0.00  0.00    -0.016 A 
ATOM     23  C   UNL     1      -0.595   0.921  26.792  0.00  0.00    +0.009 A 
ATOM     24  C   UNL     1       0.417   3.014  26.133  0.00  0.00    +0.009 A 
ATOM     25  C   UNL     1       0.064   0.990  28.020  0.00  0.00    +0.015 A 
ATOM     26  C   UNL     1       1.075   3.082  27.361  0.00  0.00    +0.015 A 
ATOM     27  C   UNL     1       0.899   2.070  28.304  0.00  0.00    +0.008 A 
BRANCH  27   2
ATOM      2  S   UNL     1       1.738   2.158  29.874  0.00  0.00    -0.129 S 
ATOM     30  C   UNL     1       3.114   3.279  29.495  0.00  0.00    +0.090 C 
ENDBRANCH  27   2
ENDBRANCH  16  21
BRANCH  18  22
ATOM     22  C   UNL     1      -5.332   2.595  26.201  0.00  0.00    +0.165 C 
BRANCH  22   1
ATOM      1  S   UNL     1      -5.503   4.122  25.266  0.00  0.00    -0.140 S 
BRANCH   1  28
ATOM     28  C   UNL     1      -3.826   4.226  24.593  0.00  0.00    +0.189 C 
BRANCH  28  29
ATOM      6  O   UNL     1      -2.955   4.158  26.839  0.00  0.00    -0.250 OA
ATOM     29  C   UNL     1      -2.868   4.580  25.693  0.00  0.00    +0.315 C 
BRANCH  29   5
ATOM      5  O   UNL     1      -1.879   5.411  25.278  0.00  0.00    -0.480 OA
ATOM     31  H   UNL     1      -2.195   6.049  24.603  0.00  0.00    +0.295 HD
ENDBRANCH  29   5
ENDBRANCH  28  29
ENDBRANCH   1  28
ENDBRANCH  22   1
ENDBRANCH  18  22
TORSDOF 7
ENDMDL
