MODEL 1
REMARK VINA RESULT:       3.8      0.000      0.000
REMARK  Name = 11867148
REMARK  5 active torsions:
REMARK  status: ('A' for Active; 'I' for Inactive)
REMARK    1  A    between atoms: S_1  and  N_8
REMARK    2  A    between atoms: S_1  and  C_24
REMARK    3  A    between atoms: N_8  and  C_19
REMARK    4  A    between atoms: C_18  and  C_21
REMARK    5  A    between atoms: C_24  and  C_28
REMARK                            x       y       z     vdW  Elec       q    Type
REMARK                         _______ _______ _______ _____ _____    ______ ____
ROOT
ATOM      2  O   UNL     1      -0.126   2.772  25.747  0.00  0.00    -0.266 OA
ATOM      3  O   UNL     1      -4.063  -0.228  27.279  0.00  0.00    -0.270 OA
ATOM      6  N   UNL     1      -4.865   1.196  25.604  0.00  0.00    -0.297 N 
ATOM      7  N   UNL     1      -2.246   2.768  24.751  0.00  0.00    -0.310 N 
ATOM      9  C   UNL     1      -4.351   3.607  25.942  0.00  0.00    +0.027 C 
ATOM     10  C   UNL     1      -4.517   2.701  23.659  0.00  0.00    +0.054 C 
ATOM     11  C   UNL     1      -4.857   3.906  24.535  0.00  0.00    +0.018 C 
ATOM     12  C   UNL     1      -5.025   2.341  26.499  0.00  0.00    +0.113 C 
ATOM     13  C   UNL     1      -2.822   3.478  25.900  0.00  0.00    +0.130 C 
ATOM     14  C   UNL     1      -5.235   1.450  24.201  0.00  0.00    +0.117 C 
ATOM     15  C   UNL     1      -3.020   2.456  23.624  0.00  0.00    +0.027 A 
ATOM     16  C   UNL     1      -2.449   1.909  22.535  0.00  0.00    +0.024 A 
ATOM     17  C   UNL     1      -0.860   2.509  24.796  0.00  0.00    +0.274 A 
ATOM     18  C   UNL     1      -4.374  -0.010  26.109  0.00  0.00    +0.247 C 
ATOM     19  C   UNL     1      -0.294   1.883  23.575  0.00  0.00    +0.112 A 
ATOM     20  C   UNL     1      -1.043   1.611  22.505  0.00  0.00    +0.031 A 
ENDROOT
BRANCH  18  21
ATOM     21  C   UNL     1      -4.186  -1.122  25.170  0.00  0.00    +0.037 A 
ATOM     22  C   UNL     1      -4.792  -1.081  23.918  0.00  0.00    +0.013 A 
ATOM     23  C   UNL     1      -3.400  -2.212  25.538  0.00  0.00    +0.013 A 
ATOM     25  C   UNL     1      -4.612  -2.137  23.025  0.00  0.00    +0.001 A 
ATOM     26  C   UNL     1      -3.222  -3.269  24.644  0.00  0.00    +0.001 A 
ATOM     27  C   UNL     1      -3.827  -3.232  23.388  0.00  0.00    +0.000 A 
ENDBRANCH  18  21
BRANCH  19   8
ATOM      8  N   UNL     1       1.075   1.565  23.512  0.00  0.00    -0.215 N 
ATOM     34  H   UNL     1       1.561   1.768  24.396  0.00  0.00    +0.173 HD
BRANCH   8   1
ATOM      1  S   UNL     1       1.440   0.029  22.866  0.00  0.00    +0.047 S 
ATOM      4  O   UNL     1       1.757  -0.891  23.943  0.00  0.00    -0.155 OA
ATOM      5  O   UNL     1       0.461  -0.311  21.852  0.00  0.00    -0.155 OA
BRANCH   1  24
ATOM     24  C   UNL     1       2.963   0.411  22.035  0.00  0.00    +0.223 C 
BRANCH  24  28
ATOM     28  C   UNL     1       4.088   0.010  22.938  0.00  0.00    -0.025 A 
ATOM     29  C   UNL     1       4.994   0.968  23.383  0.00  0.00    +0.005 A 
ATOM     30  C   UNL     1       4.221  -1.320  23.328  0.00  0.00    +0.005 A 
ATOM     31  C   UNL     1       6.042   0.594  24.225  0.00  0.00    +0.000 A 
ATOM     32  C   UNL     1       5.269  -1.694  24.169  0.00  0.00    +0.000 A 
ATOM     33  C   UNL     1       6.178  -0.737  24.617  0.00  0.00    +0.000 A 
ENDBRANCH  24  28
ENDBRANCH   1  24
ENDBRANCH   8   1
ENDBRANCH  19   8
TORSDOF 5
ENDMDL
MODEL 2
REMARK VINA RESULT:       5.4      3.220      5.471
REMARK  Name = 11867148
REMARK  5 active torsions:
REMARK  status: ('A' for Active; 'I' for Inactive)
REMARK    1  A    between atoms: S_1  and  N_8
REMARK    2  A    between atoms: S_1  and  C_24
REMARK    3  A    between atoms: N_8  and  C_19
REMARK    4  A    between atoms: C_18  and  C_21
REMARK    5  A    between atoms: C_24  and  C_28
REMARK                            x       y       z     vdW  Elec       q    Type
REMARK                         _______ _______ _______ _____ _____    ______ ____
ROOT
ATOM      2  O   UNL     1       0.447   1.690  26.967  0.00  0.00    -0.266 OA
ATOM      3  O   UNL     1      -3.753   4.714  27.212  0.00  0.00    -0.270 OA
ATOM      6  N   UNL     1      -2.946   4.795  25.017  0.00  0.00    -0.297 N 
ATOM      7  N   UNL     1      -0.521   2.754  25.119  0.00  0.00    -0.310 N 
ATOM      9  C   UNL     1      -0.517   5.295  24.810  0.00  0.00    +0.027 C 
ATOM     10  C   UNL     1      -1.618   3.862  23.138  0.00  0.00    +0.054 C 
ATOM     11  C   UNL     1      -0.585   4.973  23.322  0.00  0.00    +0.018 C 
ATOM     12  C   UNL     1      -1.892   5.761  25.323  0.00  0.00    +0.113 C 
ATOM     13  C   UNL     1      -0.010   4.058  25.562  0.00  0.00    +0.130 C 
ATOM     14  C   UNL     1      -2.998   4.358  23.612  0.00  0.00    +0.117 C 
ATOM     15  C   UNL     1      -1.227   2.619  23.914  0.00  0.00    +0.027 A 
ATOM     16  C   UNL     1      -1.588   1.401  23.469  0.00  0.00    +0.024 A 
ATOM     17  C   UNL     1      -0.182   1.638  25.911  0.00  0.00    +0.274 A 
ATOM     18  C   UNL     1      -3.791   4.353  26.037  0.00  0.00    +0.247 C 
ATOM     19  C   UNL     1      -0.629   0.326  25.380  0.00  0.00    +0.112 A 
ATOM     20  C   UNL     1      -1.282   0.215  24.222  0.00  0.00    +0.031 A 
ENDROOT
BRANCH  18  21
ATOM     21  C   UNL     1      -4.808   3.350  25.700  0.00  0.00    +0.037 A 
ATOM     22  C   UNL     1      -5.670   2.879  26.687  0.00  0.00    +0.013 A 
ATOM     23  C   UNL     1      -4.908   2.877  24.394  0.00  0.00    +0.013 A 
ATOM     25  C   UNL     1      -6.637   1.927  26.367  0.00  0.00    +0.001 A 
ATOM     26  C   UNL     1      -5.876   1.924  24.074  0.00  0.00    +0.001 A 
ATOM     27  C   UNL     1      -6.741   1.450  25.060  0.00  0.00    +0.000 A 
ENDBRANCH  18  21
BRANCH  19   8
ATOM      8  N   UNL     1      -0.359  -0.856  26.092  0.00  0.00    -0.215 N 
ATOM     34  H   UNL     1      -1.012  -0.994  26.876  0.00  0.00    +0.173 HD
BRANCH   8   1
ATOM      1  S   UNL     1      -0.133  -2.251  25.137  0.00  0.00    +0.047 S 
ATOM      4  O   UNL     1      -0.302  -1.916  23.735  0.00  0.00    -0.155 OA
ATOM      5  O   UNL     1       1.040  -2.966  25.601  0.00  0.00    -0.155 OA
BRANCH   1  24
ATOM     24  C   UNL     1      -1.561  -3.184  25.631  0.00  0.00    +0.223 C 
BRANCH  24  28
ATOM     28  C   UNL     1      -2.773  -2.467  25.122  0.00  0.00    -0.025 A 
ATOM     29  C   UNL     1      -3.303  -1.404  25.847  0.00  0.00    +0.005 A 
ATOM     30  C   UNL     1      -3.362  -2.868  23.926  0.00  0.00    +0.005 A 
ATOM     31  C   UNL     1      -4.432  -0.736  25.373  0.00  0.00    +0.000 A 
ATOM     32  C   UNL     1      -4.491  -2.200  23.451  0.00  0.00    +0.000 A 
ATOM     33  C   UNL     1      -5.025  -1.134  24.175  0.00  0.00    +0.000 A 
ENDBRANCH  24  28
ENDBRANCH   1  24
ENDBRANCH   8   1
ENDBRANCH  19   8
TORSDOF 5
ENDMDL
MODEL 3
REMARK VINA RESULT:       6.6      2.723      6.292
REMARK  Name = 11867148
REMARK  5 active torsions:
REMARK  status: ('A' for Active; 'I' for Inactive)
REMARK    1  A    between atoms: S_1  and  N_8
REMARK    2  A    between atoms: S_1  and  C_24
REMARK    3  A    between atoms: N_8  and  C_19
REMARK    4  A    between atoms: C_18  and  C_21
REMARK    5  A    between atoms: C_24  and  C_28
REMARK                            x       y       z     vdW  Elec       q    Type
REMARK                         _______ _______ _______ _____ _____    ______ ____
ROOT
ATOM      2  O   UNL     1      -4.533   1.634  26.134  0.00  0.00    -0.266 OA
ATOM      3  O   UNL     1      -0.240  -1.232  26.578  0.00  0.00    -0.270 OA
ATOM      6  N   UNL     1      -1.509  -2.121  24.825  0.00  0.00    -0.297 N 
ATOM      7  N   UNL     1      -3.948  -0.100  24.672  0.00  0.00    -0.310 N 
ATOM      9  C   UNL     1      -3.895  -2.561  25.375  0.00  0.00    +0.027 C 
ATOM     10  C   UNL     1      -3.266  -1.932  23.080  0.00  0.00    +0.054 C 
ATOM     11  C   UNL     1      -4.176  -2.842  23.904  0.00  0.00    +0.018 C 
ATOM     12  C   UNL     1      -2.420  -2.849  25.706  0.00  0.00    +0.113 C 
ATOM     13  C   UNL     1      -4.284  -1.110  25.685  0.00  0.00    +0.130 C 
ATOM     14  C   UNL     1      -1.792  -2.262  23.386  0.00  0.00    +0.117 C 
ATOM     15  C   UNL     1      -3.536  -0.470  23.384  0.00  0.00    +0.027 A 
ATOM     16  C   UNL     1      -3.343   0.465  22.435  0.00  0.00    +0.024 A 
ATOM     17  C   UNL     1      -4.158   1.248  25.027  0.00  0.00    +0.274 A 
ATOM     18  C   UNL     1      -0.482  -1.354  25.379  0.00  0.00    +0.247 C 
ATOM     19  C   UNL     1      -3.905   2.233  23.946  0.00  0.00    +0.112 A 
ATOM     20  C   UNL     1      -3.532   1.861  22.721  0.00  0.00    +0.031 A 
ENDROOT
BRANCH  18  21
ATOM     21  C   UNL     1       0.385  -0.603  24.463  0.00  0.00    +0.037 A 
ATOM     22  C   UNL     1       0.058   0.705  24.117  0.00  0.00    +0.013 A 
ATOM     23  C   UNL     1       1.531  -1.202  23.947  0.00  0.00    +0.013 A 
ATOM     25  C   UNL     1       0.882   1.420  23.248  0.00  0.00    +0.001 A 
ATOM     26  C   UNL     1       2.355  -0.487  23.076  0.00  0.00    +0.001 A 
ATOM     27  C   UNL     1       2.030   0.824  22.728  0.00  0.00    +0.000 A 
ENDBRANCH  18  21
BRANCH  19   8
ATOM      8  N   UNL     1      -4.068   3.609  24.189  0.00  0.00    -0.215 N 
ATOM     34  H   UNL     1      -4.266   4.135  23.327  0.00  0.00    +0.173 HD
BRANCH   8   1
ATOM      1  S   UNL     1      -5.105   4.005  25.485  0.00  0.00    +0.047 S 
ATOM      4  O   UNL     1      -5.748   5.280  25.224  0.00  0.00    -0.155 OA
ATOM      5  O   UNL     1      -5.879   2.836  25.855  0.00  0.00    -0.155 OA
BRANCH   1  24
ATOM     24  C   UNL     1      -3.898   4.276  26.759  0.00  0.00    +0.223 C 
BRANCH  24  28
ATOM     28  C   UNL     1      -2.550   4.319  26.108  0.00  0.00    -0.025 A 
ATOM     29  C   UNL     1      -1.647   3.281  26.317  0.00  0.00    +0.005 A 
ATOM     30  C   UNL     1      -2.208   5.399  25.299  0.00  0.00    +0.005 A 
ATOM     31  C   UNL     1      -0.391   3.322  25.710  0.00  0.00    +0.000 A 
ATOM     32  C   UNL     1      -0.952   5.440  24.692  0.00  0.00    +0.000 A 
ATOM     33  C   UNL     1      -0.045   4.401  24.898  0.00  0.00    +0.000 A 
ENDBRANCH  24  28
ENDBRANCH   1  24
ENDBRANCH   8   1
ENDBRANCH  19   8
TORSDOF 5
ENDMDL
MODEL 4
REMARK VINA RESULT:       6.6      2.994      5.971
REMARK  Name = 11867148
REMARK  5 active torsions:
REMARK  status: ('A' for Active; 'I' for Inactive)
REMARK    1  A    between atoms: S_1  and  N_8
REMARK    2  A    between atoms: S_1  and  C_24
REMARK    3  A    between atoms: N_8  and  C_19
REMARK    4  A    between atoms: C_18  and  C_21
REMARK    5  A    between atoms: C_24  and  C_28
REMARK                            x       y       z     vdW  Elec       q    Type
REMARK                         _______ _______ _______ _____ _____    ______ ____
ROOT
ATOM      2  O   UNL     1       0.684   0.835  23.018  0.00  0.00    -0.266 OA
ATOM      3  O   UNL     1      -4.296  -0.569  22.737  0.00  0.00    -0.270 OA
ATOM      6  N   UNL     1      -3.420  -1.448  24.721  0.00  0.00    -0.297 N 
ATOM      7  N   UNL     1      -0.462  -0.305  24.712  0.00  0.00    -0.310 N 
ATOM      9  C   UNL     1      -1.294  -2.713  24.459  0.00  0.00    +0.027 C 
ATOM     10  C   UNL     1      -1.735  -1.480  26.544  0.00  0.00    +0.054 C 
ATOM     11  C   UNL     1      -1.150  -2.773  25.976  0.00  0.00    +0.018 C 
ATOM     12  C   UNL     1      -2.776  -2.583  24.064  0.00  0.00    +0.113 C 
ATOM     13  C   UNL     1      -0.450  -1.547  23.928  0.00  0.00    +0.130 C 
ATOM     14  C   UNL     1      -3.229  -1.385  26.180  0.00  0.00    +0.117 C 
ATOM     15  C   UNL     1      -0.999  -0.266  26.007  0.00  0.00    +0.027 A 
ATOM     16  C   UNL     1      -0.899   0.849  26.753  0.00  0.00    +0.024 A 
ATOM     17  C   UNL     1       0.181   0.812  24.140  0.00  0.00    +0.274 A 
ATOM     18  C   UNL     1      -4.132  -0.522  23.955  0.00  0.00    +0.247 C 
ATOM     19  C   UNL     1       0.237   2.019  25.002  0.00  0.00    +0.112 A 
ATOM     20  C   UNL     1      -0.262   2.031  26.239  0.00  0.00    +0.031 A 
ENDROOT
BRANCH  18  21
ATOM     21  C   UNL     1      -4.728   0.628  24.645  0.00  0.00    +0.037 A 
ATOM     22  C   UNL     1      -3.956   1.385  25.523  0.00  0.00    +0.013 A 
ATOM     23  C   UNL     1      -6.062   0.956  24.418  0.00  0.00    +0.013 A 
ATOM     25  C   UNL     1      -4.522   2.478  26.178  0.00  0.00    +0.001 A 
ATOM     26  C   UNL     1      -6.628   2.050  25.075  0.00  0.00    +0.001 A 
ATOM     27  C   UNL     1      -5.858   2.811  25.954  0.00  0.00    +0.000 A 
ENDBRANCH  18  21
BRANCH  19   8
ATOM      8  N   UNL     1       0.842   3.198  24.531  0.00  0.00    -0.215 N 
ATOM     34  H   UNL     1       1.430   3.028  23.703  0.00  0.00    +0.173 HD
BRANCH   8   1
ATOM      1  S   UNL     1      -0.199   4.539  24.368  0.00  0.00    +0.047 S 
ATOM      4  O   UNL     1       0.133   5.540  25.365  0.00  0.00    -0.155 OA
ATOM      5  O   UNL     1      -0.317   4.888  22.965  0.00  0.00    -0.155 OA
BRANCH   1  24
ATOM     24  C   UNL     1      -1.730   3.789  24.865  0.00  0.00    +0.223 C 
BRANCH  24  28
ATOM     28  C   UNL     1      -2.500   3.460  23.623  0.00  0.00    -0.025 A 
ATOM     29  C   UNL     1      -3.658   4.170  23.319  0.00  0.00    +0.005 A 
ATOM     30  C   UNL     1      -2.054   2.446  22.781  0.00  0.00    +0.005 A 
ATOM     31  C   UNL     1      -4.375   3.864  22.162  0.00  0.00    +0.000 A 
ATOM     32  C   UNL     1      -2.772   2.139  21.624  0.00  0.00    +0.000 A 
ATOM     33  C   UNL     1      -3.931   2.849  21.316  0.00  0.00    +0.000 A 
ENDBRANCH  24  28
ENDBRANCH   1  24
ENDBRANCH   8   1
ENDBRANCH  19   8
TORSDOF 5
ENDMDL
MODEL 5
REMARK VINA RESULT:       6.7      2.914      5.978
REMARK  Name = 11867148
REMARK  5 active torsions:
REMARK  status: ('A' for Active; 'I' for Inactive)
REMARK    1  A    between atoms: S_1  and  N_8
REMARK    2  A    between atoms: S_1  and  C_24
REMARK    3  A    between atoms: N_8  and  C_19
REMARK    4  A    between atoms: C_18  and  C_21
REMARK    5  A    between atoms: C_24  and  C_28
REMARK                            x       y       z     vdW  Elec       q    Type
REMARK                         _______ _______ _______ _____ _____    ______ ____
ROOT
ATOM      2  O   UNL     1       0.677   0.204  22.492  0.00  0.00    -0.266 OA
ATOM      3  O   UNL     1      -4.355  -1.021  22.664  0.00  0.00    -0.270 OA
ATOM      6  N   UNL     1      -3.409  -1.610  24.722  0.00  0.00    -0.297 N 
ATOM      7  N   UNL     1      -0.419  -0.605  24.398  0.00  0.00    -0.310 N 
ATOM      9  C   UNL     1      -1.342  -2.987  24.571  0.00  0.00    +0.027 C 
ATOM     10  C   UNL     1      -1.635  -1.422  26.449  0.00  0.00    +0.054 C 
ATOM     11  C   UNL     1      -1.124  -2.811  26.070  0.00  0.00    +0.018 C 
ATOM     12  C   UNL     1      -2.837  -2.861  24.227  0.00  0.00    +0.113 C 
ATOM     13  C   UNL     1      -0.488  -1.956  23.823  0.00  0.00    +0.130 C 
ATOM     14  C   UNL     1      -3.142  -1.325  26.142  0.00  0.00    +0.117 C 
ATOM     15  C   UNL     1      -0.888  -0.340  25.692  0.00  0.00    +0.027 A 
ATOM     16  C   UNL     1      -0.713   0.875  26.245  0.00  0.00    +0.024 A 
ATOM     17  C   UNL     1       0.231   0.380  23.625  0.00  0.00    +0.274 A 
ATOM     18  C   UNL     1      -4.128  -0.789  23.850  0.00  0.00    +0.247 C 
ATOM     19  C   UNL     1       0.372   1.704  24.279  0.00  0.00    +0.112 A 
ATOM     20  C   UNL     1      -0.064   1.933  25.519  0.00  0.00    +0.031 A 
ENDROOT
BRANCH  18  21
ATOM     21  C   UNL     1      -4.649   0.479  24.373  0.00  0.00    +0.037 A 
ATOM     22  C   UNL     1      -5.619   0.470  25.371  0.00  0.00    +0.013 A 
ATOM     23  C   UNL     1      -4.169   1.685  23.869  0.00  0.00    +0.013 A 
ATOM     25  C   UNL     1      -6.114   1.675  25.869  0.00  0.00    +0.001 A 
ATOM     26  C   UNL     1      -4.665   2.891  24.368  0.00  0.00    +0.001 A 
ATOM     27  C   UNL     1      -5.637   2.886  25.368  0.00  0.00    +0.000 A 
ENDBRANCH  18  21
BRANCH  19   8
ATOM      8  N   UNL     1       0.990   2.768  23.598  0.00  0.00    -0.215 N 
ATOM     34  H   UNL     1       1.540   2.444  22.791  0.00  0.00    +0.173 HD
BRANCH   8   1
ATOM      1  S   UNL     1      -0.018   4.099  23.250  0.00  0.00    +0.047 S 
ATOM      4  O   UNL     1       0.618   4.948  22.260  0.00  0.00    -0.155 OA
ATOM      5  O   UNL     1      -1.381   3.636  23.077  0.00  0.00    -0.155 OA
BRANCH   1  24
ATOM     24  C   UNL     1       0.067   4.951  24.806  0.00  0.00    +0.223 C 
BRANCH  24  28
ATOM     28  C   UNL     1      -1.282   4.857  25.451  0.00  0.00    -0.025 A 
ATOM     29  C   UNL     1      -2.271   5.779  25.122  0.00  0.00    +0.005 A 
ATOM     30  C   UNL     1      -1.537   3.848  26.375  0.00  0.00    +0.005 A 
ATOM     31  C   UNL     1      -3.527   5.691  25.723  0.00  0.00    +0.000 A 
ATOM     32  C   UNL     1      -2.793   3.761  26.976  0.00  0.00    +0.000 A 
ATOM     33  C   UNL     1      -3.787   4.682  26.649  0.00  0.00    +0.000 A 
ENDBRANCH  24  28
ENDBRANCH   1  24
ENDBRANCH   8   1
ENDBRANCH  19   8
TORSDOF 5
ENDMDL
MODEL 6
REMARK VINA RESULT:       7.0      2.542      4.795
REMARK  Name = 11867148
REMARK  5 active torsions:
REMARK  status: ('A' for Active; 'I' for Inactive)
REMARK    1  A    between atoms: S_1  and  N_8
REMARK    2  A    between atoms: S_1  and  C_24
REMARK    3  A    between atoms: N_8  and  C_19
REMARK    4  A    between atoms: C_18  and  C_21
REMARK    5  A    between atoms: C_24  and  C_28
REMARK                            x       y       z     vdW  Elec       q    Type
REMARK                         _______ _______ _______ _____ _____    ______ ____
ROOT
ATOM      2  O   UNL     1      -4.606  -1.439  23.123  0.00  0.00    -0.266 OA
ATOM      3  O   UNL     1      -3.596   3.635  22.832  0.00  0.00    -0.270 OA
ATOM      6  N   UNL     1      -4.711   3.247  24.853  0.00  0.00    -0.297 N 
ATOM      7  N   UNL     1      -5.042   0.093  24.840  0.00  0.00    -0.310 N 
ATOM      9  C   UNL     1      -6.814   1.931  24.655  0.00  0.00    +0.027 C 
ATOM     10  C   UNL     1      -5.446   1.752  26.695  0.00  0.00    +0.054 C 
ATOM     11  C   UNL     1      -6.881   1.824  26.174  0.00  0.00    +0.018 C 
ATOM     12  C   UNL     1      -6.036   3.193  24.239  0.00  0.00    +0.113 C 
ATOM     13  C   UNL     1      -6.179   0.651  24.097  0.00  0.00    +0.130 C 
ATOM     14  C   UNL     1      -4.693   3.041  26.311  0.00  0.00    +0.117 C 
ATOM     15  C   UNL     1      -4.719   0.547  26.127  0.00  0.00    +0.027 A 
ATOM     16  C   UNL     1      -3.748  -0.054  26.838  0.00  0.00    +0.024 A 
ATOM     17  C   UNL     1      -4.360  -0.986  24.240  0.00  0.00    +0.274 A 
ATOM     18  C   UNL     1      -3.589   3.462  24.050  0.00  0.00    +0.247 C 
ATOM     19  C   UNL     1      -3.283  -1.590  25.063  0.00  0.00    +0.112 A 
ATOM     20  C   UNL     1      -3.004  -1.157  26.293  0.00  0.00    +0.031 A 
ENDROOT
BRANCH  18  21
ATOM     21  C   UNL     1      -2.271   3.465  24.696  0.00  0.00    +0.037 A 
ATOM     22  C   UNL     1      -1.828   2.331  25.370  0.00  0.00    +0.013 A 
ATOM     23  C   UNL     1      -1.471   4.603  24.630  0.00  0.00    +0.013 A 
ATOM     25  C   UNL     1      -0.576   2.334  25.984  0.00  0.00    +0.001 A 
ATOM     26  C   UNL     1      -0.218   4.605  25.245  0.00  0.00    +0.001 A 
ATOM     27  C   UNL     1       0.230   3.471  25.922  0.00  0.00    +0.000 A 
ENDBRANCH  18  21
BRANCH  19   8
ATOM      8  N   UNL     1      -2.525  -2.663  24.561  0.00  0.00    -0.215 N 
ATOM     34  H   UNL     1      -3.009  -3.156  23.797  0.00  0.00    +0.173 HD
BRANCH   8   1
ATOM      1  S   UNL     1      -0.892  -2.309  24.221  0.00  0.00    +0.047 S 
ATOM      4  O   UNL     1      -0.155  -2.164  25.462  0.00  0.00    -0.155 OA
ATOM      5  O   UNL     1      -0.420  -3.186  23.166  0.00  0.00    -0.155 OA
BRANCH   1  24
ATOM     24  C   UNL     1      -1.078  -0.686  23.526  0.00  0.00    +0.223 C 
BRANCH  24  28
ATOM     28  C   UNL     1       0.281  -0.203  23.124  0.00  0.00    -0.025 A 
ATOM     29  C   UNL     1       0.923   0.770  23.884  0.00  0.00    +0.005 A 
ATOM     30  C   UNL     1       0.895  -0.731  21.991  0.00  0.00    +0.005 A 
ATOM     31  C   UNL     1       2.189   1.219  23.510  0.00  0.00    +0.000 A 
ATOM     32  C   UNL     1       2.161  -0.281  21.616  0.00  0.00    +0.000 A 
ATOM     33  C   UNL     1       2.808   0.693  22.376  0.00  0.00    +0.000 A 
ENDBRANCH  24  28
ENDBRANCH   1  24
ENDBRANCH   8   1
ENDBRANCH  19   8
TORSDOF 5
ENDMDL
MODEL 7
REMARK VINA RESULT:       7.1      2.107      4.446
REMARK  Name = 11867148
REMARK  5 active torsions:
REMARK  status: ('A' for Active; 'I' for Inactive)
REMARK    1  A    between atoms: S_1  and  N_8
REMARK    2  A    between atoms: S_1  and  C_24
REMARK    3  A    between atoms: N_8  and  C_19
REMARK    4  A    between atoms: C_18  and  C_21
REMARK    5  A    between atoms: C_24  and  C_28
REMARK                            x       y       z     vdW  Elec       q    Type
REMARK                         _______ _______ _______ _____ _____    ______ ____
ROOT
ATOM      2  O   UNL     1      -3.449  -1.151  22.754  0.00  0.00    -0.266 OA
ATOM      3  O   UNL     1      -4.344   3.951  22.623  0.00  0.00    -0.270 OA
ATOM      6  N   UNL     1      -4.841   3.198  24.782  0.00  0.00    -0.297 N 
ATOM      7  N   UNL     1      -4.050   0.131  24.620  0.00  0.00    -0.310 N 
ATOM      9  C   UNL     1      -6.351   1.223  24.883  0.00  0.00    +0.027 C 
ATOM     10  C   UNL     1      -4.640   1.544  26.623  0.00  0.00    +0.054 C 
ATOM     11  C   UNL     1      -6.082   1.102  26.378  0.00  0.00    +0.018 C 
ATOM     12  C   UNL     1      -6.157   2.677  24.417  0.00  0.00    +0.113 C 
ATOM     13  C   UNL     1      -5.431   0.249  24.134  0.00  0.00    +0.130 C 
ATOM     14  C   UNL     1      -4.471   3.015  26.196  0.00  0.00    +0.117 C 
ATOM     15  C   UNL     1      -3.663   0.673  25.855  0.00  0.00    +0.027 A 
ATOM     16  C   UNL     1      -2.426   0.457  26.336  0.00  0.00    +0.024 A 
ATOM     17  C   UNL     1      -3.166  -0.637  23.836  0.00  0.00    +0.274 A 
ATOM     18  C   UNL     1      -4.041   3.795  23.805  0.00  0.00    +0.247 C 
ATOM     19  C   UNL     1      -1.808  -0.820  24.408  0.00  0.00    +0.112 A 
ATOM     20  C   UNL     1      -1.465  -0.313  25.593  0.00  0.00    +0.031 A 
ENDROOT
BRANCH  18  21
ATOM     21  C   UNL     1      -2.709   4.266  24.200  0.00  0.00    +0.037 A 
ATOM     22  C   UNL     1      -1.633   3.382  24.200  0.00  0.00    +0.013 A 
ATOM     23  C   UNL     1      -2.527   5.595  24.572  0.00  0.00    +0.013 A 
ATOM     25  C   UNL     1      -0.367   3.829  24.575  0.00  0.00    +0.001 A 
ATOM     26  C   UNL     1      -1.259   6.042  24.948  0.00  0.00    +0.001 A 
ATOM     27  C   UNL     1      -0.180   5.160  24.949  0.00  0.00    +0.000 A 
ENDBRANCH  18  21
BRANCH  19   8
ATOM      8  N   UNL     1      -0.837  -1.556  23.707  0.00  0.00    -0.215 N 
ATOM     34  H   UNL     1      -1.257  -2.189  23.012  0.00  0.00    +0.173 HD
BRANCH   8   1
ATOM      1  S   UNL     1       0.474  -0.648  23.101  0.00  0.00    +0.047 S 
ATOM      4  O   UNL     1       0.511  -0.749  21.654  0.00  0.00    -0.155 OA
ATOM      5  O   UNL     1       0.512   0.641  23.764  0.00  0.00    -0.155 OA
BRANCH   1  24
ATOM     24  C   UNL     1       1.823  -1.616  23.731  0.00  0.00    +0.223 C 
BRANCH  24  28
ATOM     28  C   UNL     1       3.082  -0.834  23.521  0.00  0.00    -0.025 A 
ATOM     29  C   UNL     1       3.033   0.393  22.866  0.00  0.00    +0.005 A 
ATOM     30  C   UNL     1       4.295  -1.340  23.980  0.00  0.00    +0.005 A 
ATOM     31  C   UNL     1       4.206   1.121  22.670  0.00  0.00    +0.000 A 
ATOM     32  C   UNL     1       5.468  -0.612  23.784  0.00  0.00    +0.000 A 
ATOM     33  C   UNL     1       5.423   0.619  23.129  0.00  0.00    +0.000 A 
ENDBRANCH  24  28
ENDBRANCH   1  24
ENDBRANCH   8   1
ENDBRANCH  19   8
TORSDOF 5
ENDMDL
MODEL 8
REMARK VINA RESULT:       7.4      3.238      6.464
REMARK  Name = 11867148
REMARK  5 active torsions:
REMARK  status: ('A' for Active; 'I' for Inactive)
REMARK    1  A    between atoms: S_1  and  N_8
REMARK    2  A    between atoms: S_1  and  C_24
REMARK    3  A    between atoms: N_8  and  C_19
REMARK    4  A    between atoms: C_18  and  C_21
REMARK    5  A    between atoms: C_24  and  C_28
REMARK                            x       y       z     vdW  Elec       q    Type
REMARK                         _______ _______ _______ _____ _____    ______ ____
ROOT
ATOM      2  O   UNL     1      -1.795  -1.132  26.745  0.00  0.00    -0.266 OA
ATOM      3  O   UNL     1      -3.699   3.602  25.843  0.00  0.00    -0.270 OA
ATOM      6  N   UNL     1      -1.414   3.647  25.340  0.00  0.00    -0.297 N 
ATOM      7  N   UNL     1      -0.564   0.628  25.811  0.00  0.00    -0.310 N 
ATOM      9  C   UNL     1       0.070   2.736  27.118  0.00  0.00    +0.027 C 
ATOM     10  C   UNL     1       0.721   2.522  24.753  0.00  0.00    +0.054 C 
ATOM     11  C   UNL     1       1.252   2.806  26.158  0.00  0.00    +0.018 C 
ATOM     12  C   UNL     1      -0.997   3.778  26.735  0.00  0.00    +0.113 C 
ATOM     13  C   UNL     1      -0.490   1.308  27.111  0.00  0.00    +0.130 C 
ATOM     14  C   UNL     1      -0.312   3.598  24.365  0.00  0.00    +0.117 C 
ATOM     15  C   UNL     1       0.080   1.149  24.679  0.00  0.00    +0.027 A 
ATOM     16  C   UNL     1       0.097   0.455  23.526  0.00  0.00    +0.024 A 
ATOM     17  C   UNL     1      -1.226  -0.617  25.783  0.00  0.00    +0.274 A 
ATOM     18  C   UNL     1      -2.774   3.561  25.034  0.00  0.00    +0.247 C 
ATOM     19  C   UNL     1      -1.193  -1.321  24.477  0.00  0.00    +0.112 A 
ATOM     20  C   UNL     1      -0.559  -0.819  23.417  0.00  0.00    +0.031 A 
ENDROOT
BRANCH  18  21
ATOM     21  C   UNL     1      -3.151   3.386  23.626  0.00  0.00    +0.037 A 
ATOM     22  C   UNL     1      -4.101   4.228  23.054  0.00  0.00    +0.013 A 
ATOM     23  C   UNL     1      -2.555   2.380  22.870  0.00  0.00    +0.013 A 
ATOM     25  C   UNL     1      -4.459   4.062  21.717  0.00  0.00    +0.001 A 
ATOM     26  C   UNL     1      -2.915   2.214  21.532  0.00  0.00    +0.001 A 
ATOM     27  C   UNL     1      -3.866   3.056  20.955  0.00  0.00    +0.000 A 
ENDBRANCH  18  21
BRANCH  19   8
ATOM      8  N   UNL     1      -1.833  -2.565  24.327  0.00  0.00    -0.215 N 
ATOM     34  H   UNL     1      -1.417  -3.290  24.928  0.00  0.00    +0.173 HD
BRANCH   8   1
ATOM      1  S   UNL     1      -3.537  -2.523  24.385  0.00  0.00    +0.047 S 
ATOM      4  O   UNL     1      -4.080  -3.621  23.608  0.00  0.00    -0.155 OA
ATOM      5  O   UNL     1      -3.966  -2.286  25.750  0.00  0.00    -0.155 OA
BRANCH   1  24
ATOM     24  C   UNL     1      -3.829  -1.032  23.466  0.00  0.00    +0.223 C 
BRANCH  24  28
ATOM     28  C   UNL     1      -4.596  -0.095  24.347  0.00  0.00    -0.025 A 
ATOM     29  C   UNL     1      -4.308  -0.034  25.707  0.00  0.00    +0.005 A 
ATOM     30  C   UNL     1      -5.593   0.708  23.800  0.00  0.00    +0.005 A 
ATOM     31  C   UNL     1      -5.023   0.839  26.528  0.00  0.00    +0.000 A 
ATOM     32  C   UNL     1      -6.308   1.580  24.622  0.00  0.00    +0.000 A 
ATOM     33  C   UNL     1      -6.022   1.645  25.985  0.00  0.00    +0.000 A 
ENDBRANCH  24  28
ENDBRANCH   1  24
ENDBRANCH   8   1
ENDBRANCH  19   8
TORSDOF 5
ENDMDL
MODEL 9
REMARK VINA RESULT:       7.5      2.471      3.207
REMARK  Name = 11867148
REMARK  5 active torsions:
REMARK  status: ('A' for Active; 'I' for Inactive)
REMARK    1  A    between atoms: S_1  and  N_8
REMARK    2  A    between atoms: S_1  and  C_24
REMARK    3  A    between atoms: N_8  and  C_19
REMARK    4  A    between atoms: C_18  and  C_21
REMARK    5  A    between atoms: C_24  and  C_28
REMARK                            x       y       z     vdW  Elec       q    Type
REMARK                         _______ _______ _______ _____ _____    ______ ____
ROOT
ATOM      2  O   UNL     1       0.103   2.759  26.229  0.00  0.00    -0.266 OA
ATOM      3  O   UNL     1      -4.407   0.292  26.879  0.00  0.00    -0.270 OA
ATOM      6  N   UNL     1      -4.734   1.958  25.268  0.00  0.00    -0.297 N 
ATOM      7  N   UNL     1      -1.819   3.168  24.955  0.00  0.00    -0.310 N 
ATOM      9  C   UNL     1      -3.940   4.223  25.926  0.00  0.00    +0.027 C 
ATOM     10  C   UNL     1      -3.884   3.547  23.559  0.00  0.00    +0.054 C 
ATOM     11  C   UNL     1      -4.179   4.713  24.502  0.00  0.00    +0.018 C 
ATOM     12  C   UNL     1      -4.864   3.035  26.248  0.00  0.00    +0.113 C 
ATOM     13  C   UNL     1      -2.458   3.861  26.082  0.00  0.00    +0.130 C 
ATOM     14  C   UNL     1      -4.847   2.382  23.862  0.00  0.00    +0.117 C 
ATOM     15  C   UNL     1      -2.449   3.075  23.705  0.00  0.00    +0.027 A 
ATOM     16  C   UNL     1      -1.803   2.539  22.654  0.00  0.00    +0.024 A 
ATOM     17  C   UNL     1      -0.508   2.693  25.163  0.00  0.00    +0.274 A 
ATOM     18  C   UNL     1      -4.502   0.653  25.707  0.00  0.00    +0.247 C 
ATOM     19  C   UNL     1       0.143   2.090  23.974  0.00  0.00    +0.112 A 
ATOM     20  C   UNL     1      -0.465   2.029  22.788  0.00  0.00    +0.031 A 
ENDROOT
BRANCH  18  21
ATOM     21  C   UNL     1      -4.333  -0.393  24.692  0.00  0.00    +0.037 A 
ATOM     22  C   UNL     1      -4.644  -1.715  25.001  0.00  0.00    +0.013 A 
ATOM     23  C   UNL     1      -3.865  -0.058  23.424  0.00  0.00    +0.013 A 
ATOM     25  C   UNL     1      -4.484  -2.709  24.036  0.00  0.00    +0.001 A 
ATOM     26  C   UNL     1      -3.705  -1.053  22.459  0.00  0.00    +0.001 A 
ATOM     27  C   UNL     1      -4.015  -2.378  22.765  0.00  0.00    +0.000 A 
ENDBRANCH  18  21
BRANCH  19   8
ATOM      8  N   UNL     1       1.446   1.569  24.067  0.00  0.00    -0.215 N 
ATOM     34  H   UNL     1       1.787   1.550  25.037  0.00  0.00    +0.173 HD
BRANCH   8   1
ATOM      1  S   UNL     1       1.715   0.114  23.218  0.00  0.00    +0.047 S 
ATOM      4  O   UNL     1       2.372   0.399  21.956  0.00  0.00    -0.155 OA
ATOM      5  O   UNL     1       2.241  -0.883  24.129  0.00  0.00    -0.155 OA
BRANCH   1  24
ATOM     24  C   UNL     1       0.035  -0.329  22.849  0.00  0.00    +0.223 C 
BRANCH  24  28
ATOM     28  C   UNL     1      -0.524  -1.031  24.047  0.00  0.00    -0.025 A 
ATOM     29  C   UNL     1      -0.802  -2.394  23.983  0.00  0.00    +0.005 A 
ATOM     30  C   UNL     1      -0.764  -0.317  25.217  0.00  0.00    +0.005 A 
ATOM     31  C   UNL     1      -1.323  -3.048  25.100  0.00  0.00    +0.000 A 
ATOM     32  C   UNL     1      -1.285  -0.971  26.334  0.00  0.00    +0.000 A 
ATOM     33  C   UNL     1      -1.564  -2.336  26.274  0.00  0.00    +0.000 A 
ENDBRANCH  24  28
ENDBRANCH   1  24
ENDBRANCH   8   1
ENDBRANCH  19   8
TORSDOF 5
ENDMDL
MODEL 10
REMARK VINA RESULT:       7.7      2.577      5.367
REMARK  Name = 11867148
REMARK  5 active torsions:
REMARK  status: ('A' for Active; 'I' for Inactive)
REMARK    1  A    between atoms: S_1  and  N_8
REMARK    2  A    between atoms: S_1  and  C_24
REMARK    3  A    between atoms: N_8  and  C_19
REMARK    4  A    between atoms: C_18  and  C_21
REMARK    5  A    between atoms: C_24  and  C_28
REMARK                            x       y       z     vdW  Elec       q    Type
REMARK                         _______ _______ _______ _____ _____    ______ ____
ROOT
ATOM      2  O   UNL     1      -4.094   2.456  26.095  0.00  0.00    -0.266 OA
ATOM      3  O   UNL     1      -0.432  -1.180  26.561  0.00  0.00    -0.270 OA
ATOM      6  N   UNL     1      -1.819  -1.792  24.778  0.00  0.00    -0.297 N 
ATOM      7  N   UNL     1      -3.827   0.658  24.618  0.00  0.00    -0.310 N 
ATOM      9  C   UNL     1      -4.254  -1.776  25.289  0.00  0.00    +0.027 C 
ATOM     10  C   UNL     1      -3.479  -1.254  23.012  0.00  0.00    +0.054 C 
ATOM     11  C   UNL     1      -4.559  -1.982  23.810  0.00  0.00    +0.018 C 
ATOM     12  C   UNL     1      -2.866  -2.343  25.637  0.00  0.00    +0.113 C 
ATOM     13  C   UNL     1      -4.365  -0.280  25.613  0.00  0.00    +0.130 C 
ATOM     14  C   UNL     1      -2.101  -1.862  23.334  0.00  0.00    +0.117 C 
ATOM     15  C   UNL     1      -3.471   0.230  23.331  0.00  0.00    +0.027 A 
ATOM     16  C   UNL     1      -3.089   1.121  22.398  0.00  0.00    +0.024 A 
ATOM     17  C   UNL     1      -3.782   2.018  24.989  0.00  0.00    +0.274 A 
ATOM     18  C   UNL     1      -0.674  -1.240  25.356  0.00  0.00    +0.247 C 
ATOM     19  C   UNL     1      -3.329   2.948  23.925  0.00  0.00    +0.112 A 
ATOM     20  C   UNL     1      -3.014   2.525  22.700  0.00  0.00    +0.031 A 
ENDROOT
BRANCH  18  21
ATOM     21  C   UNL     1       0.334  -0.658  24.463  0.00  0.00    +0.037 A 
ATOM     22  C   UNL     1       0.166   0.636  23.978  0.00  0.00    +0.013 A 
ATOM     23  C   UNL     1       1.456  -1.403  24.107  0.00  0.00    +0.013 A 
ATOM     25  C   UNL     1       1.124   1.190  23.130  0.00  0.00    +0.001 A 
ATOM     26  C   UNL     1       2.415  -0.848  23.258  0.00  0.00    +0.001 A 
ATOM     27  C   UNL     1       2.249   0.448  22.770  0.00  0.00    +0.000 A 
ENDBRANCH  18  21
BRANCH  19   8
ATOM      8  N   UNL     1      -3.231   4.327  24.184  0.00  0.00    -0.215 N 
ATOM     34  H   UNL     1      -4.142   4.742  24.425  0.00  0.00    +0.173 HD
BRANCH   8   1
ATOM      1  S   UNL     1      -1.970   4.785  25.238  0.00  0.00    +0.047 S 
ATOM      4  O   UNL     1      -1.428   6.066  24.823  0.00  0.00    -0.155 OA
ATOM      5  O   UNL     1      -2.383   4.554  26.609  0.00  0.00    -0.155 OA
BRANCH   1  24
ATOM     24  C   UNL     1      -0.769   3.545  24.822  0.00  0.00    +0.223 C 
BRANCH  24  28
ATOM     28  C   UNL     1      -0.110   3.106  26.092  0.00  0.00    -0.025 A 
ATOM     29  C   UNL     1      -0.770   2.229  26.947  0.00  0.00    +0.005 A 
ATOM     30  C   UNL     1       1.161   3.577  26.410  0.00  0.00    +0.005 A 
ATOM     31  C   UNL     1      -0.155   1.820  28.131  0.00  0.00    +0.000 A 
ATOM     32  C   UNL     1       1.776   3.168  27.593  0.00  0.00    +0.000 A 
ATOM     33  C   UNL     1       1.118   2.289  28.453  0.00  0.00    +0.000 A 
ENDBRANCH  24  28
ENDBRANCH   1  24
ENDBRANCH   8   1
ENDBRANCH  19   8
TORSDOF 5
ENDMDL
