MODEL 1
REMARK VINA RESULT:       7.3      0.000      0.000
REMARK  Name = 28991350
REMARK  8 active torsions:
REMARK  status: ('A' for Active; 'I' for Inactive)
REMARK    1  A    between atoms: O_2  and  C_21
REMARK    2  A    between atoms: O_2  and  C_34
REMARK    3  A    between atoms: N_5  and  C_12
REMARK    4  A    between atoms: N_5  and  C_22
REMARK    5  A    between atoms: C_10  and  C_18
REMARK    6  A    between atoms: C_14  and  C_21
REMARK    7  A    between atoms: C_22  and  C_27
REMARK    8  A    between atoms: C_27  and  C_33
REMARK                            x       y       z     vdW  Elec       q    Type
REMARK                         _______ _______ _______ _____ _____    ______ ____
ROOT
ATOM      4  N   UNL     1      -0.980   1.568  25.918  0.00  0.00    -0.274 NA
ATOM      6  N   UNL     1      -3.742   0.066  23.863  0.00  0.00    -0.356 N 
ATOM      9  C   UNL     1      -2.008   1.678  24.838  0.00  0.00    +0.106 C 
ATOM     10  C   UNL     1      -0.334   2.874  26.204  0.00  0.00    +0.090 C 
ATOM     11  C   UNL     1      -3.089   2.702  25.217  0.00  0.00    +0.044 C 
ATOM     12  C   UNL     1      -2.461   4.073  25.472  0.00  0.00    +0.057 C 
ATOM     13  C   UNL     1      -1.389   3.951  26.553  0.00  0.00    +0.042 C 
ATOM     14  C   UNL     1      -0.035   0.438  25.707  0.00  0.00    +0.172 C 
ATOM     15  C   UNL     1      -2.598   0.326  24.564  0.00  0.00    +0.038 A 
ATOM     16  C   UNL     1      -0.751  -0.938  25.679  0.00  0.00    +0.068 C 
ATOM     17  C   UNL     1      -2.031  -0.877  24.923  0.00  0.00    -0.016 A 
ATOM     19  C   UNL     1      -2.882  -1.915  24.454  0.00  0.00    +0.003 A 
ATOM     20  C   UNL     1      -3.947  -1.296  23.793  0.00  0.00    +0.047 A 
ATOM     25  C   UNL     1      -2.850  -3.322  24.519  0.00  0.00    +0.010 A 
ATOM     26  C   UNL     1      -4.985  -2.020  23.195  0.00  0.00    +0.026 A 
ATOM     28  C   UNL     1      -3.883  -4.057  23.927  0.00  0.00    +0.001 A 
ATOM     31  C   UNL     1      -4.933  -3.414  23.275  0.00  0.00    +0.002 A 
ATOM     38  H   UNL     1      -4.352   0.761  23.456  0.00  0.00    +0.166 HD
ENDROOT
BRANCH  10  18
ATOM      1 CL   UNL     1       0.652   2.198  31.295  0.00  0.00    -0.084 Cl
ATOM     18  C   UNL     1       0.679   2.832  27.345  0.00  0.00    -0.029 A 
ATOM     23  C   UNL     1       0.253   2.565  28.647  0.00  0.00    +0.025 A 
ATOM     24  C   UNL     1       2.030   3.059  27.087  0.00  0.00    +0.005 A 
ATOM     29  C   UNL     1       1.179   2.525  29.690  0.00  0.00    +0.041 A 
ATOM     30  C   UNL     1       2.957   3.020  28.130  0.00  0.00    +0.002 A 
ATOM     32  C   UNL     1       2.530   2.752  29.431  0.00  0.00    +0.020 A 
ENDBRANCH  10  18
BRANCH  14  21
ATOM      3  O   UNL     1       1.314   1.703  24.160  0.00  0.00    -0.249 OA
ATOM     21  C   UNL     1       0.766   0.648  24.453  0.00  0.00    +0.325 C 
BRANCH  21   2
ATOM      2  O   UNL     1       0.780  -0.501  23.721  0.00  0.00    -0.467 OA
ATOM     34  C   UNL     1       1.298  -0.379  22.393  0.00  0.00    +0.280 C 
ENDBRANCH  21   2
ENDBRANCH  14  21
BRANCH  12   5
ATOM      5  N   UNL     1      -3.491   5.033  25.864  0.00  0.00    -0.313 NA
ATOM     37  H   UNL     1      -3.873   4.775  26.773  0.00  0.00    +0.122 HD
BRANCH   5  22
ATOM     22  C   UNL     1      -4.572   5.054  24.891  0.00  0.00    +0.087 C 
BRANCH  22  27
ATOM     27  C   UNL     1      -5.906   4.689  25.545  0.00  0.00    +0.070 C 
BRANCH  27  33
ATOM      7  N   UNL     1      -6.213   2.558  26.861  0.00  0.00    -0.348 N 
ATOM      8  N   UNL     1      -6.299   0.967  25.314  0.00  0.00    -0.244 NA
ATOM     33  C   UNL     1      -6.076   3.196  25.661  0.00  0.00    +0.037 A 
ATOM     35  C   UNL     1      -6.131   2.193  24.720  0.00  0.00    +0.133 A 
ATOM     36  C   UNL     1      -6.345   1.221  26.602  0.00  0.00    +0.196 A 
ATOM     39  H   UNL     1      -6.219   2.991  27.774  0.00  0.00    +0.166 HD
ENDBRANCH  27  33
ENDBRANCH  22  27
ENDBRANCH   5  22
ENDBRANCH  12   5
TORSDOF 7
ENDMDL
MODEL 2
REMARK VINA RESULT:      11.1      2.255      5.881
REMARK  Name = 28991350
REMARK  8 active torsions:
REMARK  status: ('A' for Active; 'I' for Inactive)
REMARK    1  A    between atoms: O_2  and  C_21
REMARK    2  A    between atoms: O_2  and  C_34
REMARK    3  A    between atoms: N_5  and  C_12
REMARK    4  A    between atoms: N_5  and  C_22
REMARK    5  A    between atoms: C_10  and  C_18
REMARK    6  A    between atoms: C_14  and  C_21
REMARK    7  A    between atoms: C_22  and  C_27
REMARK    8  A    between atoms: C_27  and  C_33
REMARK                            x       y       z     vdW  Elec       q    Type
REMARK                         _______ _______ _______ _____ _____    ______ ____
ROOT
ATOM      4  N   UNL     1      -0.972   1.201  24.496  0.00  0.00    -0.274 NA
ATOM      6  N   UNL     1      -4.210   2.342  26.019  0.00  0.00    -0.356 N 
ATOM      9  C   UNL     1      -1.971   1.169  25.608  0.00  0.00    +0.106 C 
ATOM     10  C   UNL     1       0.096   0.186  24.682  0.00  0.00    +0.090 C 
ATOM     11  C   UNL     1      -2.613  -0.222  25.724  0.00  0.00    +0.044 C 
ATOM     12  C   UNL     1      -1.543  -1.287  25.964  0.00  0.00    +0.057 C 
ATOM     13  C   UNL     1      -0.505  -1.231  24.844  0.00  0.00    +0.042 C 
ATOM     14  C   UNL     1      -0.482   2.573  24.195  0.00  0.00    +0.172 C 
ATOM     15  C   UNL     1      -3.001   2.238  25.390  0.00  0.00    +0.038 A 
ATOM     16  C   UNL     1      -1.621   3.526  23.750  0.00  0.00    +0.068 C 
ATOM     17  C   UNL     1      -2.853   3.329  24.561  0.00  0.00    -0.016 A 
ATOM     19  C   UNL     1      -4.034   4.114  24.661  0.00  0.00    +0.003 A 
ATOM     20  C   UNL     1      -4.868   3.472  25.582  0.00  0.00    +0.047 A 
ATOM     25  C   UNL     1      -4.476   5.311  24.065  0.00  0.00    +0.010 A 
ATOM     26  C   UNL     1      -6.128   3.972  25.933  0.00  0.00    +0.026 A 
ATOM     28  C   UNL     1      -5.735   5.820  24.406  0.00  0.00    +0.001 A 
ATOM     31  C   UNL     1      -6.546   5.160  25.326  0.00  0.00    +0.002 A 
ATOM     38  H   UNL     1      -4.574   1.693  26.702  0.00  0.00    +0.166 HD
ENDROOT
BRANCH  10  18
ATOM      1 CL   UNL     1       4.986   0.949  22.989  0.00  0.00    -0.084 Cl
ATOM     18  C   UNL     1       1.109   0.130  23.541  0.00  0.00    -0.029 A 
ATOM     23  C   UNL     1       2.431   0.519  23.760  0.00  0.00    +0.025 A 
ATOM     24  C   UNL     1       0.713  -0.312  22.279  0.00  0.00    +0.005 A 
ATOM     29  C   UNL     1       3.356   0.467  22.718  0.00  0.00    +0.041 A 
ATOM     30  C   UNL     1       1.638  -0.364  21.235  0.00  0.00    +0.002 A 
ATOM     32  C   UNL     1       2.960   0.025  21.456  0.00  0.00    +0.020 A 
ENDBRANCH  10  18
BRANCH  14  21
ATOM      3  O   UNL     1       0.460   4.334  25.546  0.00  0.00    -0.249 OA
ATOM     21  C   UNL     1       0.258   3.139  25.374  0.00  0.00    +0.325 C 
BRANCH  21   2
ATOM      2  O   UNL     1       0.653   2.125  26.194  0.00  0.00    -0.467 OA
ATOM     34  C   UNL     1       0.832   2.480  27.569  0.00  0.00    +0.280 C 
ENDBRANCH  21   2
ENDBRANCH  14  21
BRANCH  12   5
ATOM      5  N   UNL     1      -2.158  -2.610  26.040  0.00  0.00    -0.313 NA
ATOM     37  H   UNL     1      -1.571  -3.231  26.596  0.00  0.00    +0.122 HD
BRANCH   5  22
ATOM     22  C   UNL     1      -2.318  -3.181  24.712  0.00  0.00    +0.087 C 
BRANCH  22  27
ATOM     27  C   UNL     1      -3.771  -3.085  24.245  0.00  0.00    +0.070 C 
BRANCH  27  33
ATOM      7  N   UNL     1      -3.558  -0.884  23.029  0.00  0.00    -0.348 N 
ATOM      8  N   UNL     1      -5.124   0.399  23.940  0.00  0.00    -0.244 NA
ATOM     33  C   UNL     1      -4.172  -1.658  23.972  0.00  0.00    +0.037 A 
ATOM     35  C   UNL     1      -5.136  -0.844  24.522  0.00  0.00    +0.133 A 
ATOM     36  C   UNL     1      -4.164   0.341  23.045  0.00  0.00    +0.196 A 
ATOM     39  H   UNL     1      -2.796  -1.165  22.426  0.00  0.00    +0.166 HD
ENDBRANCH  27  33
ENDBRANCH  22  27
ENDBRANCH   5  22
ENDBRANCH  12   5
TORSDOF 7
ENDMDL
