MODEL 1
REMARK VINA RESULT:       2.6      0.000      0.000
REMARK  Name = 40780217
REMARK  7 active torsions:
REMARK  status: ('A' for Active; 'I' for Inactive)
REMARK    1  A    between atoms: N_4  and  C_16
REMARK    2  A    between atoms: N_5  and  C_17
REMARK    3  A    between atoms: N_6  and  C_23
REMARK    4  A    between atoms: N_7  and  C_26
REMARK    5  A    between atoms: C_10  and  C_16
REMARK    6  A    between atoms: C_11  and  C_17
REMARK    7  A    between atoms: C_32  and  C_35
REMARK                            x       y       z     vdW  Elec       q    Type
REMARK                         _______ _______ _______ _____ _____    ______ ____
ROOT
ATOM      3  N   UNL     1      -4.378   4.826  24.546  0.00  0.00    -0.298 NA
ATOM      9  C   UNL     1      -2.174   3.576  25.139  0.00  0.00    -0.003 C 
ATOM     10  C   UNL     1      -2.551   3.359  23.655  0.00  0.00    +0.020 C 
ATOM     11  C   UNL     1      -4.583   3.973  25.747  0.00  0.00    +0.074 C 
ATOM     12  C   UNL     1      -3.337   3.107  26.033  0.00  0.00    +0.024 C 
ATOM     13  C   UNL     1      -3.933   3.998  23.398  0.00  0.00    +0.089 C 
ATOM     14  C   UNL     1      -2.026   5.096  25.344  0.00  0.00    +0.019 C 
ATOM     15  C   UNL     1      -3.304   5.801  24.856  0.00  0.00    +0.085 C 
ENDROOT
BRANCH  10  16
ATOM     16  C   UNL     1      -2.523   1.890  23.237  0.00  0.00    +0.089 C 
BRANCH  16   4
ATOM      4  N   UNL     1      -1.250   1.266  23.596  0.00  0.00    -0.299 NA
ATOM      6  N   UNL     1       1.538   0.698  23.347  0.00  0.00    -0.327 N 
ATOM     18  C   UNL     1      -0.250   2.287  23.930  0.00  0.00    +0.103 C 
ATOM     19  C   UNL     1      -0.758   0.427  22.496  0.00  0.00    +0.103 C 
ATOM     20  C   UNL     1       1.071   1.645  24.363  0.00  0.00    +0.120 C 
ATOM     21  C   UNL     1       0.544  -0.277  22.882  0.00  0.00    +0.120 C 
BRANCH   6  23
ATOM      1  F   UNL     1       6.868  -0.764  23.211  0.00  0.00    -0.205 F 
ATOM     23  C   UNL     1       2.887   0.328  23.312  0.00  0.00    +0.030 A 
ATOM     24  C   UNL     1       3.269  -0.957  23.699  0.00  0.00    +0.026 A 
ATOM     25  C   UNL     1       3.851   1.244  22.891  0.00  0.00    +0.026 A 
ATOM     27  C   UNL     1       4.613  -1.326  23.665  0.00  0.00    +0.040 A 
ATOM     28  C   UNL     1       5.196   0.875  22.857  0.00  0.00    +0.040 A 
ATOM     29  C   UNL     1       5.576  -0.410  23.244  0.00  0.00    +0.124 A 
ENDBRANCH   6  23
ENDBRANCH  16   4
ENDBRANCH  10  16
BRANCH  11  17
ATOM     17  C   UNL     1      -5.854   3.126  25.651  0.00  0.00    +0.124 C 
BRANCH  17   5
ATOM      2  O   UNL     1      -4.182   0.878  26.247  0.00  0.00    -0.253 OA
ATOM      5  N   UNL     1      -5.641   1.977  24.827  0.00  0.00    -0.298 N 
ATOM      7  N   UNL     1      -4.788  -0.071  24.188  0.00  0.00    -0.269 N 
ATOM     22  C   UNL     1      -4.801   0.907  25.186  0.00  0.00    +0.304 C 
ATOM     36  H   UNL     1      -6.117   1.933  23.932  0.00  0.00    +0.150 HD
ATOM     37  H   UNL     1      -5.360   0.109  23.366  0.00  0.00    +0.156 HD
BRANCH   7  26
ATOM     26  C   UNL     1      -4.072  -1.290  24.175  0.00  0.00    +0.036 A 
ATOM     30  C   UNL     1      -2.768  -1.340  24.668  0.00  0.00    +0.042 A 
ATOM     31  C   UNL     1      -4.671  -2.445  23.670  0.00  0.00    +0.023 A 
ATOM     32  C   UNL     1      -2.063  -2.543  24.656  0.00  0.00    +0.054 A 
ATOM     33  C   UNL     1      -3.965  -3.647  23.658  0.00  0.00    +0.003 A 
ATOM     34  C   UNL     1      -2.662  -3.697  24.151  0.00  0.00    +0.019 A 
BRANCH  32  35
ATOM      8  N   UNL     1       0.359  -2.635  25.570  0.00  0.00    -0.191 NA
ATOM     35  C   UNL     1      -0.726  -2.593  25.160  0.00  0.00    +0.099 C 
ENDBRANCH  32  35
ENDBRANCH   7  26
ENDBRANCH  17   5
ENDBRANCH  11  17
TORSDOF 7
ENDMDL
MODEL 2
REMARK VINA RESULT:       3.3      3.021      4.938
REMARK  Name = 40780217
REMARK  7 active torsions:
REMARK  status: ('A' for Active; 'I' for Inactive)
REMARK    1  A    between atoms: N_4  and  C_16
REMARK    2  A    between atoms: N_5  and  C_17
REMARK    3  A    between atoms: N_6  and  C_23
REMARK    4  A    between atoms: N_7  and  C_26
REMARK    5  A    between atoms: C_10  and  C_16
REMARK    6  A    between atoms: C_11  and  C_17
REMARK    7  A    between atoms: C_32  and  C_35
REMARK                            x       y       z     vdW  Elec       q    Type
REMARK                         _______ _______ _______ _____ _____    ______ ____
ROOT
ATOM      3  N   UNL     1      -4.090   2.740  25.669  0.00  0.00    -0.298 NA
ATOM      9  C   UNL     1      -5.347   1.248  23.948  0.00  0.00    -0.003 C 
ATOM     10  C   UNL     1      -4.408   0.398  24.835  0.00  0.00    +0.020 C 
ATOM     11  C   UNL     1      -3.917   3.288  24.297  0.00  0.00    +0.074 C 
ATOM     12  C   UNL     1      -4.526   2.341  23.240  0.00  0.00    +0.024 C 
ATOM     13  C   UNL     1      -3.586   1.347  25.734  0.00  0.00    +0.089 C 
ATOM     14  C   UNL     1      -6.334   1.959  24.894  0.00  0.00    +0.019 C 
ATOM     15  C   UNL     1      -5.543   2.720  25.972  0.00  0.00    +0.085 C 
ENDROOT
BRANCH  10  16
ATOM     16  C   UNL     1      -3.508  -0.539  24.033  0.00  0.00    +0.089 C 
BRANCH  16   4
ATOM      4  N   UNL     1      -2.099  -0.187  24.204  0.00  0.00    -0.299 NA
ATOM      6  N   UNL     1       0.696  -0.252  23.615  0.00  0.00    -0.327 N 
ATOM     18  C   UNL     1      -1.578   0.463  22.996  0.00  0.00    +0.103 C 
ATOM     19  C   UNL     1      -1.302  -1.382  24.511  0.00  0.00    +0.103 C 
ATOM     20  C   UNL     1      -0.119   0.888  23.183  0.00  0.00    +0.120 C 
ATOM     21  C   UNL     1       0.164  -1.018  24.749  0.00  0.00    +0.120 C 
BRANCH   6  23
ATOM      1  F   UNL     1       6.177  -0.126  22.907  0.00  0.00    -0.205 F 
ATOM     23  C   UNL     1       2.083  -0.220  23.436  0.00  0.00    +0.030 A 
ATOM     24  C   UNL     1       2.858  -1.324  23.790  0.00  0.00    +0.026 A 
ATOM     25  C   UNL     1       2.691   0.917  22.903  0.00  0.00    +0.026 A 
ATOM     27  C   UNL     1       4.240  -1.293  23.612  0.00  0.00    +0.040 A 
ATOM     28  C   UNL     1       4.075   0.948  22.725  0.00  0.00    +0.040 A 
ATOM     29  C   UNL     1       4.849  -0.157  23.079  0.00  0.00    +0.124 A 
ENDBRANCH   6  23
ENDBRANCH  16   4
ENDBRANCH  10  16
BRANCH  11  17
ATOM     17  C   UNL     1      -2.457   3.626  23.985  0.00  0.00    +0.124 C 
BRANCH  17   5
ATOM      2  O   UNL     1      -0.880   4.585  26.175  0.00  0.00    -0.253 OA
ATOM      5  N   UNL     1      -1.569   2.856  24.800  0.00  0.00    -0.298 N 
ATOM      7  N   UNL     1      -0.047   2.411  26.477  0.00  0.00    -0.269 N 
ATOM     22  C   UNL     1      -0.823   3.398  25.863  0.00  0.00    +0.304 C 
ATOM     36  H   UNL     1      -1.468   1.868  24.598  0.00  0.00    +0.150 HD
ATOM     37  H   UNL     1      -0.115   1.472  26.092  0.00  0.00    +0.156 HD
BRANCH   7  26
ATOM     26  C   UNL     1       0.833   2.557  27.575  0.00  0.00    +0.036 A 
ATOM     30  C   UNL     1       0.369   2.349  28.873  0.00  0.00    +0.042 A 
ATOM     31  C   UNL     1       2.166   2.907  27.357  0.00  0.00    +0.023 A 
ATOM     32  C   UNL     1       1.237   2.493  29.956  0.00  0.00    +0.054 A 
ATOM     33  C   UNL     1       3.034   3.050  28.440  0.00  0.00    +0.003 A 
ATOM     34  C   UNL     1       2.570   2.842  29.738  0.00  0.00    +0.019 A 
BRANCH  32  35
ATOM      8  N   UNL     1       0.375   2.109  32.368  0.00  0.00    -0.191 NA
ATOM     35  C   UNL     1       0.762   2.281  31.287  0.00  0.00    +0.099 C 
ENDBRANCH  32  35
ENDBRANCH   7  26
ENDBRANCH  17   5
ENDBRANCH  11  17
TORSDOF 7
ENDMDL
MODEL 3
REMARK VINA RESULT:       6.1      1.205      2.018
REMARK  Name = 40780217
REMARK  7 active torsions:
REMARK  status: ('A' for Active; 'I' for Inactive)
REMARK    1  A    between atoms: N_4  and  C_16
REMARK    2  A    between atoms: N_5  and  C_17
REMARK    3  A    between atoms: N_6  and  C_23
REMARK    4  A    between atoms: N_7  and  C_26
REMARK    5  A    between atoms: C_10  and  C_16
REMARK    6  A    between atoms: C_11  and  C_17
REMARK    7  A    between atoms: C_32  and  C_35
REMARK                            x       y       z     vdW  Elec       q    Type
REMARK                         _______ _______ _______ _____ _____    ______ ____
ROOT
ATOM      3  N   UNL     1      -4.255   4.862  24.168  0.00  0.00    -0.298 NA
ATOM      9  C   UNL     1      -2.029   4.268  25.377  0.00  0.00    -0.003 C 
ATOM     10  C   UNL     1      -2.169   3.477  24.056  0.00  0.00    +0.020 C 
ATOM     11  C   UNL     1      -4.529   4.476  25.578  0.00  0.00    +0.074 C 
ATOM     12  C   UNL     1      -3.245   3.975  26.276  0.00  0.00    +0.024 C 
ATOM     13  C   UNL     1      -3.565   3.759  23.458  0.00  0.00    +0.089 C 
ATOM     14  C   UNL     1      -2.082   5.763  25.011  0.00  0.00    +0.019 C 
ATOM     15  C   UNL     1      -3.351   6.038  24.184  0.00  0.00    +0.085 C 
ENDROOT
BRANCH  10  16
ATOM     16  C   UNL     1      -1.919   1.979  24.221  0.00  0.00    +0.089 C 
BRANCH  16   4
ATOM      4  N   UNL     1      -0.651   1.588  23.607  0.00  0.00    -0.299 NA
ATOM      6  N   UNL     1       2.028   0.596  23.559  0.00  0.00    -0.327 N 
ATOM     18  C   UNL     1      -0.381   0.165  23.842  0.00  0.00    +0.103 C 
ATOM     19  C   UNL     1       0.452   2.400  24.138  0.00  0.00    +0.103 C 
ATOM     20  C   UNL     1       0.917  -0.271  23.155  0.00  0.00    +0.120 C 
ATOM     21  C   UNL     1       1.775   2.039  23.460  0.00  0.00    +0.120 C 
BRANCH   6  23
ATOM      1  F   UNL     1       7.234  -1.173  22.985  0.00  0.00    -0.205 F 
ATOM     23  C   UNL     1       3.345   0.149  23.414  0.00  0.00    +0.030 A 
ATOM     24  C   UNL     1       3.703  -1.124  23.859  0.00  0.00    +0.026 A 
ATOM     25  C   UNL     1       4.302   0.975  22.824  0.00  0.00    +0.026 A 
ATOM     27  C   UNL     1       5.016  -1.571  23.714  0.00  0.00    +0.040 A 
ATOM     28  C   UNL     1       5.615   0.528  22.680  0.00  0.00    +0.040 A 
ATOM     29  C   UNL     1       5.972  -0.744  23.124  0.00  0.00    +0.124 A 
ENDBRANCH   6  23
ENDBRANCH  16   4
ENDBRANCH  10  16
BRANCH  11  17
ATOM     17  C   UNL     1      -5.671   3.464  25.695  0.00  0.00    +0.124 C 
BRANCH  17   5
ATOM      2  O   UNL     1      -4.779   1.390  23.933  0.00  0.00    -0.253 OA
ATOM      5  N   UNL     1      -5.176   2.176  26.072  0.00  0.00    -0.298 N 
ATOM      7  N   UNL     1      -4.322   0.049  25.804  0.00  0.00    -0.269 N 
ATOM     22  C   UNL     1      -4.754   1.204  25.147  0.00  0.00    +0.304 C 
ATOM     36  H   UNL     1      -5.130   1.950  27.060  0.00  0.00    +0.150 HD
ATOM     37  H   UNL     1      -4.368   0.058  26.820  0.00  0.00    +0.156 HD
BRANCH   7  26
ATOM     26  C   UNL     1      -3.826  -1.144  25.228  0.00  0.00    +0.036 A 
ATOM     30  C   UNL     1      -4.570  -1.812  24.255  0.00  0.00    +0.042 A 
ATOM     31  C   UNL     1      -2.592  -1.652  25.633  0.00  0.00    +0.023 A 
ATOM     32  C   UNL     1      -4.080  -2.988  23.687  0.00  0.00    +0.054 A 
ATOM     33  C   UNL     1      -2.102  -2.828  25.065  0.00  0.00    +0.003 A 
ATOM     34  C   UNL     1      -2.846  -3.496  24.092  0.00  0.00    +0.019 A 
BRANCH  32  35
ATOM      8  N   UNL     1      -5.462  -4.227  21.881  0.00  0.00    -0.191 NA
ATOM     35  C   UNL     1      -4.843  -3.672  22.691  0.00  0.00    +0.099 C 
ENDBRANCH  32  35
ENDBRANCH   7  26
ENDBRANCH  17   5
ENDBRANCH  11  17
TORSDOF 7
ENDMDL
