MODEL 1
REMARK VINA RESULT:      20.2      0.000      0.000
REMARK  Name = 7135239
REMARK  9 active torsions:
REMARK  status: ('A' for Active; 'I' for Inactive)
REMARK    1  A    between atoms: O_3  and  C_17
REMARK    2  A    between atoms: O_4  and  C_22
REMARK    3  A    between atoms: C_12  and  C_20
REMARK    4  A    between atoms: C_14  and  C_22
REMARK    5  A    between atoms: C_14  and  C_23
REMARK    6  A    between atoms: C_15  and  C_25
REMARK    7  A    between atoms: C_25  and  C_26
REMARK    8  A    between atoms: C_32  and  C_34
REMARK    9  A    between atoms: C_33  and  C_35
REMARK                            x       y       z     vdW  Elec       q    Type
REMARK                         _______ _______ _______ _____ _____    ______ ____
ROOT
ATOM      1  S   UNL     1       0.420   2.234  25.905  0.00  0.00    -0.057 S 
ATOM      6  O   UNL     1       1.982   0.373  21.974  0.00  0.00    -0.269 OA
ATOM      8  N   UNL     1      -0.211   1.555  23.489  0.00  0.00    -0.229 NA
ATOM     10  N   UNL     1       2.060   1.136  24.180  0.00  0.00    -0.260 N 
ATOM     12  C   UNL     1      -3.861   2.476  24.321  0.00  0.00    -0.019 C 
ATOM     13  C   UNL     1      -3.423   3.607  25.354  0.00  0.00    +0.011 C 
ATOM     14  C   UNL     1      -4.573   4.318  26.166  0.00  0.00    +0.021 C 
ATOM     15  C   UNL     1      -2.640   2.218  23.324  0.00  0.00    +0.054 C 
ATOM     16  C   UNL     1      -5.072   2.978  23.490  0.00  0.00    +0.010 C 
ATOM     17  C   UNL     1      -5.721   4.711  25.193  0.00  0.00    +0.123 C 
ATOM     18  C   UNL     1      -2.228   3.140  26.235  0.00  0.00    +0.049 C 
ATOM     19  C   UNL     1      -6.203   3.550  24.332  0.00  0.00    +0.032 C 
ATOM     20  C   UNL     1      -4.251   1.148  25.014  0.00  0.00    +0.012 C 
ATOM     21  C   UNL     1      -1.342   2.086  24.081  0.00  0.00    +0.058 A 
ATOM     23  C   UNL     1      -4.018   5.634  26.783  0.00  0.00    +0.016 C 
ATOM     24  C   UNL     1      -1.175   2.522  25.379  0.00  0.00    +0.015 A 
ATOM     27  C   UNL     1       0.775   1.575  24.360  0.00  0.00    +0.165 A 
ATOM     32  C   UNL     1       2.611   0.560  23.013  0.00  0.00    +0.256 C 
ATOM     41  H   UNL     1       2.664   1.241  24.991  0.00  0.00    +0.157 HD
ENDROOT
BRANCH  32  34
ATOM      2  S   UNL     1       4.370  -1.417  23.757  0.00  0.00    -0.092 S 
ATOM     34  C   UNL     1       4.017   0.137  23.130  0.00  0.00    +0.074 A 
ATOM     36  C   UNL     1       5.160   0.831  22.797  0.00  0.00    +0.021 A 
ATOM     37  C   UNL     1       6.340   0.078  23.059  0.00  0.00    +0.008 A 
ATOM     38  C   UNL     1       6.056  -1.163  23.583  0.00  0.00    +0.046 A 
ENDBRANCH  32  34
BRANCH  17   3
ATOM      3  O   UNL     1      -6.833   5.241  25.915  0.00  0.00    -0.391 OA
ATOM     39  H   UNL     1      -7.196   4.525  26.464  0.00  0.00    +0.210 HD
ENDBRANCH  17   3
BRANCH  14  22
ATOM     22  C   UNL     1      -5.118   3.498  27.358  0.00  0.00    +0.165 C 
BRANCH  22   4
ATOM      4  O   UNL     1      -6.174   2.694  26.882  0.00  0.00    -0.394 OA
ATOM     40  H   UNL     1      -6.363   2.031  27.566  0.00  0.00    +0.209 HD
ENDBRANCH  22   4
ENDBRANCH  14  22
BRANCH  15  25
ATOM     25  C   UNL     1      -2.845   1.049  22.352  0.00  0.00    +0.106 C 
BRANCH  25  26
ATOM      5  O   UNL     1      -4.546  -0.282  23.325  0.00  0.00    -0.276 OA
ATOM      7  O   UNL     1       1.663  -3.192  25.342  0.00  0.00    -0.276 OA
ATOM      9  N   UNL     1      -2.373  -1.080  23.510  0.00  0.00    -0.298 N 
ATOM     11  N   UNL     1      -0.502  -2.363  25.208  0.00  0.00    -0.299 N 
ATOM     26  C   UNL     1      -3.339  -0.161  23.105  0.00  0.00    +0.216 C 
ATOM     28  C   UNL     1      -2.771  -2.281  24.249  0.00  0.00    +0.126 C 
ATOM     29  C   UNL     1      -0.939  -1.001  23.200  0.00  0.00    +0.126 C 
ATOM     30  C   UNL     1      -1.936  -2.443  25.517  0.00  0.00    +0.126 C 
ATOM     31  C   UNL     1      -0.104  -1.162  24.469  0.00  0.00    +0.126 C 
ATOM     33  C   UNL     1       0.464  -3.282  25.615  0.00  0.00    +0.213 C 
ATOM     35  C   UNL     1      -0.019  -4.449  26.438  0.00  0.00    +0.109 C 
ENDBRANCH  25  26
ENDBRANCH  15  25
TORSDOF 6
ENDMDL
MODEL 2
REMARK VINA RESULT:      21.2      2.634      4.182
REMARK  Name = 7135239
REMARK  9 active torsions:
REMARK  status: ('A' for Active; 'I' for Inactive)
REMARK    1  A    between atoms: O_3  and  C_17
REMARK    2  A    between atoms: O_4  and  C_22
REMARK    3  A    between atoms: C_12  and  C_20
REMARK    4  A    between atoms: C_14  and  C_22
REMARK    5  A    between atoms: C_14  and  C_23
REMARK    6  A    between atoms: C_15  and  C_25
REMARK    7  A    between atoms: C_25  and  C_26
REMARK    8  A    between atoms: C_32  and  C_34
REMARK    9  A    between atoms: C_33  and  C_35
REMARK                            x       y       z     vdW  Elec       q    Type
REMARK                         _______ _______ _______ _____ _____    ______ ____
ROOT
ATOM      1  S   UNL     1      -0.787  -0.927  24.119  0.00  0.00    -0.057 S 
ATOM      6  O   UNL     1       2.814   1.912  23.536  0.00  0.00    -0.269 OA
ATOM      8  N   UNL     1      -0.025   1.546  24.094  0.00  0.00    -0.229 NA
ATOM     10  N   UNL     1       1.664  -0.118  23.661  0.00  0.00    -0.260 N 
ATOM     12  C   UNL     1      -3.726   2.554  24.490  0.00  0.00    -0.019 C 
ATOM     13  C   UNL     1      -4.077   1.239  25.318  0.00  0.00    +0.011 C 
ATOM     14  C   UNL     1      -5.592   1.014  25.693  0.00  0.00    +0.021 C 
ATOM     15  C   UNL     1      -2.152   2.804  24.605  0.00  0.00    +0.054 C 
ATOM     16  C   UNL     1      -4.461   3.769  25.116  0.00  0.00    +0.010 C 
ATOM     17  C   UNL     1      -6.183   2.336  26.259  0.00  0.00    +0.123 C 
ATOM     18  C   UNL     1      -3.388  -0.017  24.710  0.00  0.00    +0.049 C 
ATOM     19  C   UNL     1      -5.946   3.538  25.351  0.00  0.00    +0.032 C 
ATOM     20  C   UNL     1      -4.124   2.449  22.997  0.00  0.00    +0.012 C 
ATOM     21  C   UNL     1      -1.382   1.530  24.359  0.00  0.00    +0.058 A 
ATOM     23  C   UNL     1      -5.682  -0.053  26.821  0.00  0.00    +0.016 C 
ATOM     24  C   UNL     1      -1.952   0.276  24.429  0.00  0.00    +0.015 A 
ATOM     27  C   UNL     1       0.393   0.308  23.942  0.00  0.00    +0.165 A 
ATOM     32  C   UNL     1       2.811   0.685  23.471  0.00  0.00    +0.256 C 
ATOM     41  H   UNL     1       1.768  -1.125  23.579  0.00  0.00    +0.157 HD
ENDROOT
BRANCH  32  34
ATOM      2  S   UNL     1       4.297  -1.602  23.818  0.00  0.00    -0.092 S 
ATOM     34  C   UNL     1       4.041  -0.054  23.132  0.00  0.00    +0.074 A 
ATOM     36  C   UNL     1       5.076   0.323  22.306  0.00  0.00    +0.021 A 
ATOM     37  C   UNL     1       6.093  -0.671  22.233  0.00  0.00    +0.008 A 
ATOM     38  C   UNL     1       5.798  -1.771  23.007  0.00  0.00    +0.046 A 
ENDBRANCH  32  34
BRANCH  17   3
ATOM      3  O   UNL     1      -7.586   2.204  26.488  0.00  0.00    -0.391 OA
ATOM     39  H   UNL     1      -8.047   2.584  25.721  0.00  0.00    +0.210 HD
ENDBRANCH  17   3
BRANCH  14  22
ATOM     22  C   UNL     1      -6.465   0.471  24.538  0.00  0.00    +0.165 C 
BRANCH  22   4
ATOM      4  O   UNL     1      -7.397   1.471  24.195  0.00  0.00    -0.394 OA
ATOM     40  H   UNL     1      -8.171   1.026  23.811  0.00  0.00    +0.209 HD
ENDBRANCH  22   4
ENDBRANCH  14  22
BRANCH  15  25
ATOM     25  C   UNL     1      -1.623   3.955  23.741  0.00  0.00    +0.106 C 
BRANCH  25  26
ATOM      5  O   UNL     1       0.518   4.928  23.450  0.00  0.00    -0.276 OA
ATOM      7  O   UNL     1       0.528   1.992  29.967  0.00  0.00    -0.276 OA
ATOM      9  N   UNL     1       0.025   4.121  25.571  0.00  0.00    -0.298 N 
ATOM     11  N   UNL     1       1.040   2.744  27.830  0.00  0.00    -0.299 N 
ATOM     26  C   UNL     1      -0.263   4.381  24.233  0.00  0.00    +0.216 C 
ATOM     28  C   UNL     1       1.327   4.501  26.126  0.00  0.00    +0.126 C 
ATOM     29  C   UNL     1      -0.907   3.540  26.546  0.00  0.00    +0.126 C 
ATOM     30  C   UNL     1       1.973   3.326  26.856  0.00  0.00    +0.126 C 
ATOM     31  C   UNL     1      -0.261   2.364  27.275  0.00  0.00    +0.126 C 
ATOM     33  C   UNL     1       1.330   2.482  29.168  0.00  0.00    +0.213 C 
ATOM     35  C   UNL     1       2.718   2.832  29.640  0.00  0.00    +0.109 C 
ENDBRANCH  25  26
ENDBRANCH  15  25
TORSDOF 6
ENDMDL
MODEL 3
REMARK VINA RESULT:      23.3      2.058      3.492
REMARK  Name = 7135239
REMARK  9 active torsions:
REMARK  status: ('A' for Active; 'I' for Inactive)
REMARK    1  A    between atoms: O_3  and  C_17
REMARK    2  A    between atoms: O_4  and  C_22
REMARK    3  A    between atoms: C_12  and  C_20
REMARK    4  A    between atoms: C_14  and  C_22
REMARK    5  A    between atoms: C_14  and  C_23
REMARK    6  A    between atoms: C_15  and  C_25
REMARK    7  A    between atoms: C_25  and  C_26
REMARK    8  A    between atoms: C_32  and  C_34
REMARK    9  A    between atoms: C_33  and  C_35
REMARK                            x       y       z     vdW  Elec       q    Type
REMARK                         _______ _______ _______ _____ _____    ______ ____
ROOT
ATOM      1  S   UNL     1       1.750   3.014  23.346  0.00  0.00    -0.057 S 
ATOM      6  O   UNL     1       3.388  -1.243  24.096  0.00  0.00    -0.269 OA
ATOM      8  N   UNL     1       1.195   0.669  24.291  0.00  0.00    -0.229 NA
ATOM     10  N   UNL     1       3.408   0.983  23.387  0.00  0.00    -0.260 N 
ATOM     12  C   UNL     1      -2.171   2.101  25.510  0.00  0.00    -0.019 C 
ATOM     13  C   UNL     1      -2.251   3.146  24.311  0.00  0.00    +0.011 C 
ATOM     14  C   UNL     1      -3.447   4.174  24.336  0.00  0.00    +0.021 C 
ATOM     15  C   UNL     1      -1.192   0.918  25.069  0.00  0.00    +0.054 C 
ATOM     16  C   UNL     1      -3.579   1.501  25.765  0.00  0.00    +0.010 C 
ATOM     17  C   UNL     1      -4.768   3.415  24.649  0.00  0.00    +0.123 C 
ATOM     18  C   UNL     1      -0.867   3.802  24.035  0.00  0.00    +0.049 C 
ATOM     19  C   UNL     1      -4.680   2.543  25.896  0.00  0.00    +0.032 C 
ATOM     20  C   UNL     1      -1.656   2.734  26.826  0.00  0.00    +0.012 C 
ATOM     21  C   UNL     1       0.074   1.462  24.459  0.00  0.00    +0.058 A 
ATOM     23  C   UNL     1      -3.601   4.807  22.924  0.00  0.00    +0.016 C 
ATOM     24  C   UNL     1       0.193   2.753  23.986  0.00  0.00    +0.015 A 
ATOM     27  C   UNL     1       2.141   1.384  23.722  0.00  0.00    +0.165 A 
ATOM     32  C   UNL     1       3.978  -0.295  23.582  0.00  0.00    +0.256 C 
ATOM     41  H   UNL     1       3.983   1.702  22.958  0.00  0.00    +0.157 HD
ENDROOT
BRANCH  32  34
ATOM      2  S   UNL     1       6.572   0.548  23.929  0.00  0.00    -0.092 S 
ATOM     34  C   UNL     1       5.385  -0.421  23.163  0.00  0.00    +0.074 A 
ATOM     36  C   UNL     1       5.930  -1.240  22.199  0.00  0.00    +0.021 A 
ATOM     37  C   UNL     1       7.340  -1.071  22.087  0.00  0.00    +0.008 A 
ATOM     38  C   UNL     1       7.820  -0.129  22.970  0.00  0.00    +0.046 A 
ENDBRANCH  32  34
BRANCH  17   3
ATOM      3  O   UNL     1      -5.851   4.333  24.806  0.00  0.00    -0.391 OA
ATOM     39  H   UNL     1      -6.516   3.910  25.375  0.00  0.00    +0.210 HD
ENDBRANCH  17   3
BRANCH  14  22
ATOM     22  C   UNL     1      -3.252   5.362  25.305  0.00  0.00    +0.165 C 
BRANCH  22   4
ATOM      4  O   UNL     1      -1.892   5.730  25.268  0.00  0.00    -0.394 OA
ATOM     40  H   UNL     1      -1.551   5.669  26.176  0.00  0.00    +0.209 HD
ENDBRANCH  22   4
ENDBRANCH  14  22
BRANCH  15  25
ATOM     25  C   UNL     1      -0.890  -0.105  26.172  0.00  0.00    +0.106 C 
BRANCH  25  26
ATOM      5  O   UNL     1       0.118  -2.130  25.464  0.00  0.00    -0.276 OA
ATOM      7  O   UNL     1      -6.737  -2.511  23.473  0.00  0.00    -0.276 OA
ATOM      9  N   UNL     1      -2.191  -1.994  25.257  0.00  0.00    -0.298 N 
ATOM     11  N   UNL     1      -4.422  -2.622  23.626  0.00  0.00    -0.299 N 
ATOM     26  C   UNL     1      -0.934  -1.500  25.601  0.00  0.00    +0.216 C 
ATOM     28  C   UNL     1      -2.320  -3.340  24.693  0.00  0.00    +0.126 C 
ATOM     29  C   UNL     1      -3.467  -1.299  25.474  0.00  0.00    +0.126 C 
ATOM     30  C   UNL     1      -3.146  -3.317  23.409  0.00  0.00    +0.126 C 
ATOM     31  C   UNL     1      -4.294  -1.276  24.190  0.00  0.00    +0.126 C 
ATOM     33  C   UNL     1      -5.679  -3.115  23.281  0.00  0.00    +0.213 C 
ATOM     35  C   UNL     1      -5.716  -4.476  22.634  0.00  0.00    +0.109 C 
ENDBRANCH  25  26
ENDBRANCH  15  25
TORSDOF 6
ENDMDL
MODEL 4
REMARK VINA RESULT:      24.2      2.346      5.735
REMARK  Name = 7135239
REMARK  9 active torsions:
REMARK  status: ('A' for Active; 'I' for Inactive)
REMARK    1  A    between atoms: O_3  and  C_17
REMARK    2  A    between atoms: O_4  and  C_22
REMARK    3  A    between atoms: C_12  and  C_20
REMARK    4  A    between atoms: C_14  and  C_22
REMARK    5  A    between atoms: C_14  and  C_23
REMARK    6  A    between atoms: C_15  and  C_25
REMARK    7  A    between atoms: C_25  and  C_26
REMARK    8  A    between atoms: C_32  and  C_34
REMARK    9  A    between atoms: C_33  and  C_35
REMARK                            x       y       z     vdW  Elec       q    Type
REMARK                         _______ _______ _______ _____ _____    ______ ____
ROOT
ATOM      1  S   UNL     1       1.914  -1.959  23.301  0.00  0.00    -0.057 S 
ATOM      6  O   UNL     1       4.805   1.599  23.890  0.00  0.00    -0.269 OA
ATOM      8  N   UNL     1       2.087   0.542  23.942  0.00  0.00    -0.229 NA
ATOM     10  N   UNL     1       4.146  -0.586  23.390  0.00  0.00    -0.260 N 
ATOM     12  C   UNL     1      -1.766   0.654  24.023  0.00  0.00    -0.019 C 
ATOM     13  C   UNL     1      -1.879  -0.869  24.476  0.00  0.00    +0.011 C 
ATOM     14  C   UNL     1      -3.329  -1.481  24.572  0.00  0.00    +0.021 C 
ATOM     15  C   UNL     1      -0.308   1.178  24.414  0.00  0.00    +0.054 C 
ATOM     16  C   UNL     1      -2.812   1.501  24.795  0.00  0.00    +0.010 C 
ATOM     17  C   UNL     1      -4.256  -0.489  25.330  0.00  0.00    +0.123 C 
ATOM     18  C   UNL     1      -0.868  -1.767  23.705  0.00  0.00    +0.049 C 
ATOM     19  C   UNL     1      -4.220   0.924  24.758  0.00  0.00    +0.032 C 
ATOM     20  C   UNL     1      -1.993   0.849  22.504  0.00  0.00    +0.012 C 
ATOM     21  C   UNL     1       0.752   0.188  24.001  0.00  0.00    +0.058 A 
ATOM     23  C   UNL     1      -3.272  -2.792  25.406  0.00  0.00    +0.016 C 
ATOM     24  C   UNL     1       0.481  -1.132  23.704  0.00  0.00    +0.015 A 
ATOM     27  C   UNL     1       2.790  -0.508  23.576  0.00  0.00    +0.165 A 
ATOM     32  C   UNL     1       5.090   0.452  23.551  0.00  0.00    +0.256 C 
ATOM     41  H   UNL     1       4.484  -1.499  23.100  0.00  0.00    +0.157 HD
ENDROOT
BRANCH  32  34
ATOM      2  S   UNL     1       7.758   1.043  23.853  0.00  0.00    -0.092 S 
ATOM     34  C   UNL     1       6.481   0.085  23.233  0.00  0.00    +0.074 A 
ATOM     36  C   UNL     1       6.946  -0.967  22.474  0.00  0.00    +0.021 A 
ATOM     37  C   UNL     1       8.369  -0.986  22.400  0.00  0.00    +0.008 A 
ATOM     38  C   UNL     1       8.938   0.051  23.105  0.00  0.00    +0.046 A 
ENDBRANCH  32  34
BRANCH  17   3
ATOM      3  O   UNL     1      -5.606  -0.953  25.322  0.00  0.00    -0.391 OA
ATOM     39  H   UNL     1      -5.945  -0.856  24.416  0.00  0.00    +0.210 HD
ENDBRANCH  17   3
BRANCH  14  22
ATOM     22  C   UNL     1      -3.948  -1.881  23.212  0.00  0.00    +0.165 C 
BRANCH  22   4
ATOM      4  O   UNL     1      -4.732  -3.035  23.417  0.00  0.00    -0.394 OA
ATOM     40  H   UNL     1      -4.134  -3.742  23.712  0.00  0.00    +0.209 HD
ENDBRANCH  22   4
ENDBRANCH  14  22
BRANCH  15  25
ATOM     25  C   UNL     1       0.018   2.591  23.915  0.00  0.00    +0.106 C 
BRANCH  25  26
ATOM      5  O   UNL     1       0.449   3.931  25.822  0.00  0.00    -0.276 OA
ATOM      7  O   UNL     1      -6.532   4.611  24.441  0.00  0.00    -0.276 OA
ATOM      9  N   UNL     1      -1.666   4.117  24.880  0.00  0.00    -0.298 N 
ATOM     11  N   UNL     1      -4.437   4.378  25.416  0.00  0.00    -0.299 N 
ATOM     26  C   UNL     1      -0.372   3.606  24.960  0.00  0.00    +0.216 C 
ATOM     28  C   UNL     1      -2.124   5.105  25.861  0.00  0.00    +0.126 C 
ATOM     29  C   UNL     1      -2.641   3.806  23.827  0.00  0.00    +0.126 C 
ATOM     30  C   UNL     1      -3.461   4.690  26.469  0.00  0.00    +0.126 C 
ATOM     31  C   UNL     1      -3.979   3.391  24.436  0.00  0.00    +0.126 C 
ATOM     33  C   UNL     1      -5.731   4.889  25.337  0.00  0.00    +0.213 C 
ATOM     35  C   UNL     1      -6.149   5.840  26.429  0.00  0.00    +0.109 C 
ENDBRANCH  25  26
ENDBRANCH  15  25
TORSDOF 6
ENDMDL
