MODEL 1
REMARK VINA RESULT:      -1.6      0.000      0.000
REMARK  Name = 28960141
REMARK  9 active torsions:
REMARK  status: ('A' for Active; 'I' for Inactive)
REMARK    1  A    between atoms: O_3  and  C_17
REMARK    2  A    between atoms: N_6  and  C_15
REMARK    3  A    between atoms: N_6  and  C_19
REMARK    4  A    between atoms: N_6  and  C_20
REMARK    5  A    between atoms: C_8  and  C_12
REMARK    6  A    between atoms: C_9  and  C_14
REMARK    7  A    between atoms: C_12  and  C_15
REMARK    8  A    between atoms: C_14  and  C_17
REMARK    9  A    between atoms: C_16  and  C_18
REMARK                            x       y       z     vdW  Elec       q    Type
REMARK                         _______ _______ _______ _____ _____    ______ ____
ROOT
ATOM      2  O   UNL     1      -5.223  -0.097  26.574  0.00  0.00    -0.270 OA
ATOM      5  N   UNL     1      -4.754   1.273  24.736  0.00  0.00    -0.297 N 
ATOM      8  C   UNL     1      -3.203   2.795  23.531  0.00  0.00    +0.012 C 
ATOM      9  C   UNL     1      -4.068   3.990  24.007  0.00  0.00    +0.006 C 
ATOM     10  C   UNL     1      -4.808   3.666  25.316  0.00  0.00    +0.023 C 
ATOM     11  C   UNL     1      -4.062   1.518  23.463  0.00  0.00    +0.112 C 
ATOM     13  C   UNL     1      -5.603   2.369  25.196  0.00  0.00    +0.108 C 
ATOM     16  C   UNL     1      -4.651   0.111  25.505  0.00  0.00    +0.247 C 
ENDROOT
BRANCH  16  18
ATOM      1 CL   UNL     1      -0.027  -2.224  25.332  0.00  0.00    -0.062 Cl
ATOM      7  N   UNL     1      -2.146  -3.027  24.073  0.00  0.00    -0.244 NA
ATOM     18  C   UNL     1      -3.788  -0.969  25.012  0.00  0.00    +0.041 A 
ATOM     21  C   UNL     1      -2.455  -1.030  25.401  0.00  0.00    +0.053 A 
ATOM     22  C   UNL     1      -4.302  -1.935  24.154  0.00  0.00    +0.033 A 
ATOM     25  C   UNL     1      -1.683  -2.069  24.908  0.00  0.00    +0.130 A 
ATOM     26  C   UNL     1      -3.447  -2.934  23.717  0.00  0.00    +0.113 A 
ENDBRANCH  16  18
BRANCH   8  12
ATOM     12  C   UNL     1      -1.953   2.550  24.387  0.00  0.00    +0.024 C 
BRANCH  12  15
ATOM     15  C   UNL     1      -1.134   1.367  23.894  0.00  0.00    +0.105 C 
BRANCH  15   6
ATOM      6  N   UNL     1       0.251   1.508  24.270  0.00  0.00    -0.333 N 
ATOM     20  C   UNL     1       0.571   2.201  25.519  0.00  0.00    +0.129 C 
BRANCH   6  19
ATOM     19  C   UNL     1       1.282   1.003  23.465  0.00  0.00    +0.029 A 
ATOM     23  C   UNL     1       1.022  -0.032  22.566  0.00  0.00    +0.023 A 
ATOM     24  C   UNL     1       2.568   1.534  23.563  0.00  0.00    +0.023 A 
ATOM     27  C   UNL     1       2.047  -0.535  21.765  0.00  0.00    +0.002 A 
ATOM     28  C   UNL     1       3.594   1.031  22.763  0.00  0.00    +0.002 A 
ATOM     29  C   UNL     1       3.333  -0.003  21.864  0.00  0.00    +0.000 A 
ENDBRANCH   6  19
ENDBRANCH  15   6
ENDBRANCH  12  15
ENDBRANCH   8  12
BRANCH   9  14
ATOM     14  C   UNL     1      -3.275   5.289  24.142  0.00  0.00    +0.124 C 
BRANCH  14  17
ATOM      4  O   UNL     1      -2.551   4.848  26.427  0.00  0.00    -0.251 OA
ATOM     17  C   UNL     1      -2.309   5.232  25.293  0.00  0.00    +0.305 C 
BRANCH  17   3
ATOM      3  O   UNL     1      -1.091   5.679  24.891  0.00  0.00    -0.481 OA
ATOM     30  H   UNL     1      -0.558   4.967  24.477  0.00  0.00    +0.295 HD
ENDBRANCH  17   3
ENDBRANCH  14  17
ENDBRANCH   9  14
TORSDOF 8
ENDMDL
MODEL 2
REMARK VINA RESULT:      -1.0      2.850      5.734
REMARK  Name = 28960141
REMARK  9 active torsions:
REMARK  status: ('A' for Active; 'I' for Inactive)
REMARK    1  A    between atoms: O_3  and  C_17
REMARK    2  A    between atoms: N_6  and  C_15
REMARK    3  A    between atoms: N_6  and  C_19
REMARK    4  A    between atoms: N_6  and  C_20
REMARK    5  A    between atoms: C_8  and  C_12
REMARK    6  A    between atoms: C_9  and  C_14
REMARK    7  A    between atoms: C_12  and  C_15
REMARK    8  A    between atoms: C_14  and  C_17
REMARK    9  A    between atoms: C_16  and  C_18
REMARK                            x       y       z     vdW  Elec       q    Type
REMARK                         _______ _______ _______ _____ _____    ______ ____
ROOT
ATOM      2  O   UNL     1      -4.730  -1.424  23.525  0.00  0.00    -0.270 OA
ATOM      5  N   UNL     1      -2.817  -1.106  24.833  0.00  0.00    -0.297 N 
ATOM      8  C   UNL     1      -0.585  -0.063  25.157  0.00  0.00    +0.012 C 
ATOM      9  C   UNL     1       0.061  -1.431  24.818  0.00  0.00    +0.006 C 
ATOM     10  C   UNL     1      -0.853  -2.280  23.918  0.00  0.00    +0.023 C 
ATOM     11  C   UNL     1      -1.998  -0.276  25.729  0.00  0.00    +0.112 C 
ATOM     13  C   UNL     1      -2.249  -2.415  24.519  0.00  0.00    +0.108 C 
ATOM     16  C   UNL     1      -4.045  -0.736  24.280  0.00  0.00    +0.247 C 
ENDROOT
BRANCH  16  18
ATOM      1 CL   UNL     1      -4.358   4.355  23.361  0.00  0.00    -0.062 Cl
ATOM      7  N   UNL     1      -5.608   3.107  25.258  0.00  0.00    -0.244 NA
ATOM     18  C   UNL     1      -4.583   0.587  24.616  0.00  0.00    +0.041 A 
ATOM     21  C   UNL     1      -4.218   1.701  23.868  0.00  0.00    +0.053 A 
ATOM     22  C   UNL     1      -5.460   0.732  25.685  0.00  0.00    +0.033 A 
ATOM     25  C   UNL     1      -4.753   2.927  24.226  0.00  0.00    +0.130 A 
ATOM     26  C   UNL     1      -5.940   2.002  25.962  0.00  0.00    +0.113 A 
ENDBRANCH  16  18
BRANCH   8  12
ATOM     12  C   UNL     1      -0.630   0.914  23.975  0.00  0.00    +0.024 C 
BRANCH  12  15
ATOM     15  C   UNL     1       0.246   2.137  24.199  0.00  0.00    +0.105 C 
BRANCH  15   6
ATOM      6  N   UNL     1      -0.034   2.744  25.478  0.00  0.00    -0.333 N 
ATOM     20  C   UNL     1       0.748   2.320  26.640  0.00  0.00    +0.129 C 
BRANCH   6  19
ATOM     19  C   UNL     1      -1.036   3.715  25.623  0.00  0.00    +0.029 A 
ATOM     23  C   UNL     1      -0.950   4.915  24.917  0.00  0.00    +0.023 A 
ATOM     24  C   UNL     1      -2.116   3.481  26.473  0.00  0.00    +0.023 A 
ATOM     27  C   UNL     1      -1.945   5.882  25.062  0.00  0.00    +0.002 A 
ATOM     28  C   UNL     1      -3.112   4.448  26.618  0.00  0.00    +0.002 A 
ATOM     29  C   UNL     1      -3.026   5.647  25.912  0.00  0.00    +0.000 A 
ENDBRANCH   6  19
ENDBRANCH  15   6
ENDBRANCH  12  15
ENDBRANCH   8  12
BRANCH   9  14
ATOM     14  C   UNL     1       1.454  -1.303  24.203  0.00  0.00    +0.124 C 
BRANCH  14  17
ATOM      4  O   UNL     1       0.550  -0.665  22.031  0.00  0.00    -0.251 OA
ATOM     17  C   UNL     1       1.415  -0.573  22.889  0.00  0.00    +0.305 C 
BRANCH  17   3
ATOM      3  O   UNL     1       2.505   0.228  22.778  0.00  0.00    -0.481 OA
ATOM     30  H   UNL     1       3.101   0.145  23.553  0.00  0.00    +0.295 HD
ENDBRANCH  17   3
ENDBRANCH  14  17
ENDBRANCH   9  14
TORSDOF 8
ENDMDL
MODEL 3
REMARK VINA RESULT:      -1.0      2.818      6.130
REMARK  Name = 28960141
REMARK  9 active torsions:
REMARK  status: ('A' for Active; 'I' for Inactive)
REMARK    1  A    between atoms: O_3  and  C_17
REMARK    2  A    between atoms: N_6  and  C_15
REMARK    3  A    between atoms: N_6  and  C_19
REMARK    4  A    between atoms: N_6  and  C_20
REMARK    5  A    between atoms: C_8  and  C_12
REMARK    6  A    between atoms: C_9  and  C_14
REMARK    7  A    between atoms: C_12  and  C_15
REMARK    8  A    between atoms: C_14  and  C_17
REMARK    9  A    between atoms: C_16  and  C_18
REMARK                            x       y       z     vdW  Elec       q    Type
REMARK                         _______ _______ _______ _____ _____    ______ ____
ROOT
ATOM      2  O   UNL     1      -1.572   5.467  24.859  0.00  0.00    -0.270 OA
ATOM      5  N   UNL     1      -1.232   3.356  23.907  0.00  0.00    -0.297 N 
ATOM      8  C   UNL     1      -0.506   0.990  24.131  0.00  0.00    +0.012 C 
ATOM      9  C   UNL     1       0.806   1.364  23.396  0.00  0.00    +0.006 C 
ATOM     10  C   UNL     1       1.157   2.850  23.586  0.00  0.00    +0.023 C 
ATOM     11  C   UNL     1      -1.633   1.955  23.718  0.00  0.00    +0.112 C 
ATOM     13  C   UNL     1      -0.014   3.749  23.202  0.00  0.00    +0.108 C 
ATOM     16  C   UNL     1      -1.907   4.295  24.692  0.00  0.00    +0.247 C 
ENDROOT
BRANCH  16  18
ATOM      1 CL   UNL     1      -6.486   1.868  24.652  0.00  0.00    -0.062 Cl
ATOM      7  N   UNL     1      -5.446   3.047  26.713  0.00  0.00    -0.244 NA
ATOM     18  C   UNL     1      -3.126   3.865  25.387  0.00  0.00    +0.041 A 
ATOM     21  C   UNL     1      -4.100   3.143  24.708  0.00  0.00    +0.053 A 
ATOM     22  C   UNL     1      -3.310   4.179  26.729  0.00  0.00    +0.033 A 
ATOM     25  C   UNL     1      -5.232   2.761  25.409  0.00  0.00    +0.130 A 
ATOM     26  C   UNL     1      -4.477   3.750  27.341  0.00  0.00    +0.113 A 
ENDBRANCH  16  18
BRANCH   8  12
ATOM     12  C   UNL     1      -0.375   0.950  25.659  0.00  0.00    +0.024 C 
BRANCH  12  15
ATOM     15  C   UNL     1      -1.279  -0.098  26.291  0.00  0.00    +0.105 C 
BRANCH  15   6
ATOM      6  N   UNL     1      -1.330  -1.290  25.481  0.00  0.00    -0.333 N 
ATOM     20  C   UNL     1      -0.113  -2.090  25.335  0.00  0.00    +0.129 C 
BRANCH   6  19
ATOM     19  C   UNL     1      -2.510  -1.686  24.836  0.00  0.00    +0.029 A 
ATOM     23  C   UNL     1      -2.671  -3.010  24.427  0.00  0.00    +0.023 A 
ATOM     24  C   UNL     1      -3.523  -0.756  24.601  0.00  0.00    +0.023 A 
ATOM     27  C   UNL     1      -3.845  -3.404  23.785  0.00  0.00    +0.002 A 
ATOM     28  C   UNL     1      -4.696  -1.149  23.958  0.00  0.00    +0.002 A 
ATOM     29  C   UNL     1      -4.857  -2.473  23.551  0.00  0.00    +0.000 A 
ENDBRANCH   6  19
ENDBRANCH  15   6
ENDBRANCH  12  15
ENDBRANCH   8  12
BRANCH   9  14
ATOM     14  C   UNL     1       1.987   0.477  23.787  0.00  0.00    +0.124 C 
BRANCH  14  17
ATOM      4  O   UNL     1       4.225   0.653  22.837  0.00  0.00    -0.251 OA
ATOM     17  C   UNL     1       3.030   0.433  22.705  0.00  0.00    +0.305 C 
BRANCH  17   3
ATOM      3  O   UNL     1       2.449   0.107  21.521  0.00  0.00    -0.481 OA
ATOM     30  H   UNL     1       3.094  -0.282  20.892  0.00  0.00    +0.295 HD
ENDBRANCH  17   3
ENDBRANCH  14  17
ENDBRANCH   9  14
TORSDOF 8
ENDMDL
MODEL 4
REMARK VINA RESULT:      -0.9      1.961      4.873
REMARK  Name = 28960141
REMARK  9 active torsions:
REMARK  status: ('A' for Active; 'I' for Inactive)
REMARK    1  A    between atoms: O_3  and  C_17
REMARK    2  A    between atoms: N_6  and  C_15
REMARK    3  A    between atoms: N_6  and  C_19
REMARK    4  A    between atoms: N_6  and  C_20
REMARK    5  A    between atoms: C_8  and  C_12
REMARK    6  A    between atoms: C_9  and  C_14
REMARK    7  A    between atoms: C_12  and  C_15
REMARK    8  A    between atoms: C_14  and  C_17
REMARK    9  A    between atoms: C_16  and  C_18
REMARK                            x       y       z     vdW  Elec       q    Type
REMARK                         _______ _______ _______ _____ _____    ______ ____
ROOT
ATOM      2  O   UNL     1       0.520   4.458  23.535  0.00  0.00    -0.270 OA
ATOM      5  N   UNL     1      -1.102   3.493  24.918  0.00  0.00    -0.297 N 
ATOM      8  C   UNL     1      -3.270   2.309  25.183  0.00  0.00    +0.012 C 
ATOM      9  C   UNL     1      -3.903   3.651  25.635  0.00  0.00    +0.006 C 
ATOM     10  C   UNL     1      -3.150   4.857  25.048  0.00  0.00    +0.023 C 
ATOM     11  C   UNL     1      -1.761   2.311  25.490  0.00  0.00    +0.112 C 
ATOM     13  C   UNL     1      -1.656   4.775  25.348  0.00  0.00    +0.108 C 
ATOM     16  C   UNL     1      -0.030   3.472  24.021  0.00  0.00    +0.247 C 
ENDROOT
BRANCH  16  18
ATOM      1 CL   UNL     1       3.997   0.342  23.100  0.00  0.00    -0.062 Cl
ATOM      7  N   UNL     1       1.506  -0.321  22.827  0.00  0.00    -0.244 NA
ATOM     18  C   UNL     1       0.499   2.166  23.610  0.00  0.00    +0.041 A 
ATOM     21  C   UNL     1       1.872   1.950  23.572  0.00  0.00    +0.053 A 
ATOM     22  C   UNL     1      -0.371   1.142  23.256  0.00  0.00    +0.033 A 
ATOM     25  C   UNL     1       2.321   0.700  23.177  0.00  0.00    +0.130 A 
ATOM     26  C   UNL     1       0.178  -0.072  22.875  0.00  0.00    +0.113 A 
ENDBRANCH  16  18
BRANCH   8  12
ATOM     12  C   UNL     1      -3.512   1.971  23.707  0.00  0.00    +0.024 C 
BRANCH  12  15
ATOM     15  C   UNL     1      -3.981   0.538  23.509  0.00  0.00    +0.105 C 
BRANCH  15   6
ATOM      6  N   UNL     1      -3.779  -0.240  24.707  0.00  0.00    -0.333 N 
ATOM     20  C   UNL     1      -4.767  -0.142  25.782  0.00  0.00    +0.129 C 
BRANCH   6  19
ATOM     19  C   UNL     1      -2.660  -1.072  24.858  0.00  0.00    +0.029 A 
ATOM     23  C   UNL     1      -1.662  -0.738  25.775  0.00  0.00    +0.023 A 
ATOM     24  C   UNL     1      -2.543  -2.231  24.093  0.00  0.00    +0.023 A 
ATOM     27  C   UNL     1      -0.548  -1.565  25.925  0.00  0.00    +0.002 A 
ATOM     28  C   UNL     1      -1.430  -3.058  24.242  0.00  0.00    +0.002 A 
ATOM     29  C   UNL     1      -0.433  -2.725  25.159  0.00  0.00    +0.000 A 
ENDBRANCH   6  19
ENDBRANCH  15   6
ENDBRANCH  12  15
ENDBRANCH   8  12
BRANCH   9  14
ATOM     14  C   UNL     1      -5.396   3.745  25.324  0.00  0.00    +0.124 C 
BRANCH  14  17
ATOM      4  O   UNL     1      -6.199   2.340  27.148  0.00  0.00    -0.251 OA
ATOM     17  C   UNL     1      -6.166   2.620  25.959  0.00  0.00    +0.305 C 
BRANCH  17   3
ATOM      3  O   UNL     1      -6.843   1.932  25.003  0.00  0.00    -0.481 OA
ATOM     30  H   UNL     1      -7.733   1.658  25.312  0.00  0.00    +0.295 HD
ENDBRANCH  17   3
ENDBRANCH  14  17
ENDBRANCH   9  14
TORSDOF 8
ENDMDL
MODEL 5
REMARK VINA RESULT:      -0.7     14.712     17.204
REMARK  Name = 28960141
REMARK  9 active torsions:
REMARK  status: ('A' for Active; 'I' for Inactive)
REMARK    1  A    between atoms: O_3  and  C_17
REMARK    2  A    between atoms: N_6  and  C_15
REMARK    3  A    between atoms: N_6  and  C_19
REMARK    4  A    between atoms: N_6  and  C_20
REMARK    5  A    between atoms: C_8  and  C_12
REMARK    6  A    between atoms: C_9  and  C_14
REMARK    7  A    between atoms: C_12  and  C_15
REMARK    8  A    between atoms: C_14  and  C_17
REMARK    9  A    between atoms: C_16  and  C_18
REMARK                            x       y       z     vdW  Elec       q    Type
REMARK                         _______ _______ _______ _____ _____    ______ ____
ROOT
ATOM      2  O   UNL     1      -9.078  -7.009  15.443  0.00  0.00    -0.270 OA
ATOM      5  N   UNL     1     -10.052  -8.821  14.328  0.00  0.00    -0.297 N 
ATOM      8  C   UNL     1      -9.845 -10.755  12.782  0.00  0.00    +0.012 C 
ATOM      9  C   UNL     1     -10.540  -9.905  11.688  0.00  0.00    +0.006 C 
ATOM     10  C   UNL     1     -10.318  -8.400  11.915  0.00  0.00    +0.023 C 
ATOM     11  C   UNL     1     -10.273 -10.266  14.178  0.00  0.00    +0.112 C 
ATOM     13  C   UNL     1     -10.720  -7.989  13.329  0.00  0.00    +0.108 C 
ATOM     16  C   UNL     1      -9.271  -8.217  15.317  0.00  0.00    +0.247 C 
ENDROOT
BRANCH  16  18
ATOM      1 CL   UNL     1      -5.053 -10.709  17.008  0.00  0.00    -0.062 Cl
ATOM      7  N   UNL     1      -7.365 -10.734  18.181  0.00  0.00    -0.244 NA
ATOM     18  C   UNL     1      -8.615  -9.083  16.303  0.00  0.00    +0.041 A 
ATOM     21  C   UNL     1      -7.274  -9.420  16.154  0.00  0.00    +0.053 A 
ATOM     22  C   UNL     1      -9.331  -9.571  17.390  0.00  0.00    +0.033 A 
ATOM     25  C   UNL     1      -6.701 -10.241  17.111  0.00  0.00    +0.130 A 
ATOM     26  C   UNL     1      -8.666 -10.385  18.292  0.00  0.00    +0.113 A 
ENDBRANCH  16  18
BRANCH   8  12
ATOM     12  C   UNL     1      -8.315 -10.781  12.674  0.00  0.00    +0.024 C 
BRANCH  12  15
ATOM     15  C   UNL     1      -7.717  -9.386  12.576  0.00  0.00    +0.105 C 
BRANCH  15   6
ATOM      6  N   UNL     1      -6.296  -9.451  12.332  0.00  0.00    -0.333 N 
ATOM     20  C   UNL     1      -5.388  -9.446  13.479  0.00  0.00    +0.129 C 
BRANCH   6  19
ATOM     19  C   UNL     1      -5.780  -9.512  11.029  0.00  0.00    +0.029 A 
ATOM     23  C   UNL     1      -6.222 -10.501  10.150  0.00  0.00    +0.023 A 
ATOM     24  C   UNL     1      -4.826  -8.585  10.612  0.00  0.00    +0.023 A 
ATOM     27  C   UNL     1      -5.709 -10.562   8.854  0.00  0.00    +0.002 A 
ATOM     28  C   UNL     1      -4.312  -8.645   9.317  0.00  0.00    +0.002 A 
ATOM     29  C   UNL     1      -4.755  -9.634   8.438  0.00  0.00    +0.000 A 
ENDBRANCH   6  19
ENDBRANCH  15   6
ENDBRANCH  12  15
ENDBRANCH   8  12
BRANCH   9  14
ATOM     14  C   UNL     1     -10.132 -10.301  10.270  0.00  0.00    +0.124 C 
BRANCH  14  17
ATOM      4  O   UNL     1     -10.630  -8.033   9.530  0.00  0.00    -0.251 OA
ATOM     17  C   UNL     1     -10.082  -9.111   9.353  0.00  0.00    +0.305 C 
BRANCH  17   3
ATOM      3  O   UNL     1      -9.322  -9.401   8.266  0.00  0.00    -0.481 OA
ATOM     30  H   UNL     1      -8.403  -9.637   8.515  0.00  0.00    +0.295 HD
ENDBRANCH  17   3
ENDBRANCH  14  17
ENDBRANCH   9  14
TORSDOF 8
ENDMDL
MODEL 6
REMARK VINA RESULT:      -0.4      2.651      5.521
REMARK  Name = 28960141
REMARK  9 active torsions:
REMARK  status: ('A' for Active; 'I' for Inactive)
REMARK    1  A    between atoms: O_3  and  C_17
REMARK    2  A    between atoms: N_6  and  C_15
REMARK    3  A    between atoms: N_6  and  C_19
REMARK    4  A    between atoms: N_6  and  C_20
REMARK    5  A    between atoms: C_8  and  C_12
REMARK    6  A    between atoms: C_9  and  C_14
REMARK    7  A    between atoms: C_12  and  C_15
REMARK    8  A    between atoms: C_14  and  C_17
REMARK    9  A    between atoms: C_16  and  C_18
REMARK                            x       y       z     vdW  Elec       q    Type
REMARK                         _______ _______ _______ _____ _____    ______ ____
ROOT
ATOM      2  O   UNL     1      -4.877   2.652  24.240  0.00  0.00    -0.270 OA
ATOM      5  N   UNL     1      -3.358   1.198  25.266  0.00  0.00    -0.297 N 
ATOM      8  C   UNL     1      -1.320  -0.218  25.143  0.00  0.00    +0.012 C 
ATOM      9  C   UNL     1      -2.238  -1.466  25.082  0.00  0.00    +0.006 C 
ATOM     10  C   UNL     1      -3.616  -1.125  24.489  0.00  0.00    +0.023 C 
ATOM     11  C   UNL     1      -2.044   0.932  25.868  0.00  0.00    +0.112 C 
ATOM     13  C   UNL     1      -4.259   0.048  25.222  0.00  0.00    +0.108 C 
ATOM     16  C   UNL     1      -3.781   2.425  24.750  0.00  0.00    +0.247 C 
ENDROOT
BRANCH  16  18
ATOM      1 CL   UNL     1       0.507   4.812  23.082  0.00  0.00    -0.062 Cl
ATOM      7  N   UNL     1      -1.075   5.714  24.926  0.00  0.00    -0.244 NA
ATOM     18  C   UNL     1      -2.849   3.557  24.810  0.00  0.00    +0.041 A 
ATOM     21  C   UNL     1      -1.738   3.593  23.975  0.00  0.00    +0.053 A 
ATOM     22  C   UNL     1      -3.075   4.599  25.703  0.00  0.00    +0.033 A 
ATOM     25  C   UNL     1      -0.889   4.683  24.071  0.00  0.00    +0.130 A 
ATOM     26  C   UNL     1      -2.166   5.645  25.722  0.00  0.00    +0.113 A 
ENDBRANCH  16  18
BRANCH   8  12
ATOM     12  C   UNL     1      -0.815   0.252  23.773  0.00  0.00    +0.024 C 
BRANCH  12  15
ATOM     15  C   UNL     1       0.608   0.787  23.832  0.00  0.00    +0.105 C 
BRANCH  15   6
ATOM      6  N   UNL     1       1.464   0.074  22.916  0.00  0.00    -0.333 N 
ATOM     20  C   UNL     1       0.868  -0.527  21.723  0.00  0.00    +0.129 C 
BRANCH   6  19
ATOM     19  C   UNL     1       2.840  -0.057  23.154  0.00  0.00    +0.029 A 
ATOM     23  C   UNL     1       3.697   1.015  22.898  0.00  0.00    +0.023 A 
ATOM     24  C   UNL     1       3.353  -1.256  23.646  0.00  0.00    +0.023 A 
ATOM     27  C   UNL     1       5.065   0.885  23.133  0.00  0.00    +0.002 A 
ATOM     28  C   UNL     1       4.722  -1.387  23.881  0.00  0.00    +0.002 A 
ATOM     29  C   UNL     1       5.577  -0.315  23.625  0.00  0.00    +0.000 A 
ENDBRANCH   6  19
ENDBRANCH  15   6
ENDBRANCH  12  15
ENDBRANCH   8  12
BRANCH   9  14
ATOM     14  C   UNL     1      -1.606  -2.641  24.336  0.00  0.00    +0.124 C 
BRANCH  14  17
ATOM      4  O   UNL     1      -3.811  -3.664  24.163  0.00  0.00    -0.251 OA
ATOM     17  C   UNL     1      -2.648  -3.583  23.800  0.00  0.00    +0.305 C 
BRANCH  17   3
ATOM      3  O   UNL     1      -2.106  -4.358  22.826  0.00  0.00    -0.481 OA
ATOM     30  H   UNL     1      -1.567  -5.089  23.197  0.00  0.00    +0.295 HD
ENDBRANCH  17   3
ENDBRANCH  14  17
ENDBRANCH   9  14
TORSDOF 8
ENDMDL
MODEL 7
REMARK VINA RESULT:      -0.3      2.091      4.985
REMARK  Name = 28960141
REMARK  9 active torsions:
REMARK  status: ('A' for Active; 'I' for Inactive)
REMARK    1  A    between atoms: O_3  and  C_17
REMARK    2  A    between atoms: N_6  and  C_15
REMARK    3  A    between atoms: N_6  and  C_19
REMARK    4  A    between atoms: N_6  and  C_20
REMARK    5  A    between atoms: C_8  and  C_12
REMARK    6  A    between atoms: C_9  and  C_14
REMARK    7  A    between atoms: C_12  and  C_15
REMARK    8  A    between atoms: C_14  and  C_17
REMARK    9  A    between atoms: C_16  and  C_18
REMARK                            x       y       z     vdW  Elec       q    Type
REMARK                         _______ _______ _______ _____ _____    ______ ____
ROOT
ATOM      2  O   UNL     1      -5.062   4.138  24.830  0.00  0.00    -0.270 OA
ATOM      5  N   UNL     1      -4.292   2.013  25.433  0.00  0.00    -0.297 N 
ATOM      8  C   UNL     1      -3.145  -0.108  24.831  0.00  0.00    +0.012 C 
ATOM      9  C   UNL     1      -4.533  -0.796  24.770  0.00  0.00    +0.006 C 
ATOM     10  C   UNL     1      -5.649   0.211  24.442  0.00  0.00    +0.023 C 
ATOM     11  C   UNL     1      -3.198   1.098  25.788  0.00  0.00    +0.112 C 
ATOM     13  C   UNL     1      -5.618   1.401  25.397  0.00  0.00    +0.108 C 
ATOM     16  C   UNL     1      -4.151   3.370  25.134  0.00  0.00    +0.247 C 
ENDROOT
BRANCH  16  18
ATOM      1 CL   UNL     1       0.853   3.020  26.440  0.00  0.00    -0.062 Cl
ATOM      7  N   UNL     1      -0.238   5.056  25.262  0.00  0.00    -0.244 NA
ATOM     18  C   UNL     1      -2.804   3.950  25.178  0.00  0.00    +0.041 A 
ATOM     21  C   UNL     1      -1.754   3.235  25.744  0.00  0.00    +0.053 A 
ATOM     22  C   UNL     1      -2.572   5.217  24.655  0.00  0.00    +0.033 A 
ATOM     25  C   UNL     1      -0.501   3.827  25.761  0.00  0.00    +0.130 A 
ATOM     26  C   UNL     1      -1.283   5.720  24.721  0.00  0.00    +0.113 A 
ENDBRANCH  16  18
BRANCH   8  12
ATOM     12  C   UNL     1      -2.602   0.323  23.462  0.00  0.00    +0.024 C 
BRANCH  12  15
ATOM     15  C   UNL     1      -1.253   1.018  23.565  0.00  0.00    +0.105 C 
BRANCH  15   6
ATOM      6  N   UNL     1      -0.193   0.058  23.753  0.00  0.00    -0.333 N 
ATOM     20  C   UNL     1      -0.449  -1.114  24.589  0.00  0.00    +0.129 C 
BRANCH   6  19
ATOM     19  C   UNL     1       1.065   0.234  23.158  0.00  0.00    +0.029 A 
ATOM     23  C   UNL     1       1.404  -0.491  22.015  0.00  0.00    +0.023 A 
ATOM     24  C   UNL     1       1.978   1.132  23.709  0.00  0.00    +0.023 A 
ATOM     27  C   UNL     1       2.655  -0.316  21.424  0.00  0.00    +0.002 A 
ATOM     28  C   UNL     1       3.230   1.307  23.119  0.00  0.00    +0.002 A 
ATOM     29  C   UNL     1       3.568   0.582  21.976  0.00  0.00    +0.000 A 
ENDBRANCH   6  19
ENDBRANCH  15   6
ENDBRANCH  12  15
ENDBRANCH   8  12
BRANCH   9  14
ATOM     14  C   UNL     1      -4.575  -1.980  23.804  0.00  0.00    +0.124 C 
BRANCH  14  17
ATOM      4  O   UNL     1      -2.827  -3.624  23.376  0.00  0.00    -0.251 OA
ATOM     17  C   UNL     1      -3.546  -3.019  24.156  0.00  0.00    +0.305 C 
BRANCH  17   3
ATOM      3  O   UNL     1      -3.523  -3.202  25.502  0.00  0.00    -0.481 OA
ATOM     30  H   UNL     1      -4.424  -3.196  25.888  0.00  0.00    +0.295 HD
ENDBRANCH  17   3
ENDBRANCH  14  17
ENDBRANCH   9  14
TORSDOF 8
ENDMDL
MODEL 8
REMARK VINA RESULT:       0.1      2.916      5.823
REMARK  Name = 28960141
REMARK  9 active torsions:
REMARK  status: ('A' for Active; 'I' for Inactive)
REMARK    1  A    between atoms: O_3  and  C_17
REMARK    2  A    between atoms: N_6  and  C_15
REMARK    3  A    between atoms: N_6  and  C_19
REMARK    4  A    between atoms: N_6  and  C_20
REMARK    5  A    between atoms: C_8  and  C_12
REMARK    6  A    between atoms: C_9  and  C_14
REMARK    7  A    between atoms: C_12  and  C_15
REMARK    8  A    between atoms: C_14  and  C_17
REMARK    9  A    between atoms: C_16  and  C_18
REMARK                            x       y       z     vdW  Elec       q    Type
REMARK                         _______ _______ _______ _____ _____    ______ ____
ROOT
ATOM      2  O   UNL     1      -3.558  -2.455  24.958  0.00  0.00    -0.270 OA
ATOM      5  N   UNL     1      -1.808  -0.903  25.038  0.00  0.00    -0.297 N 
ATOM      8  C   UNL     1      -0.394   0.800  23.910  0.00  0.00    +0.012 C 
ATOM      9  C   UNL     1       0.745  -0.250  23.838  0.00  0.00    +0.006 C 
ATOM     10  C   UNL     1       0.191  -1.685  23.829  0.00  0.00    +0.023 C 
ATOM     11  C   UNL     1      -1.325   0.484  25.095  0.00  0.00    +0.112 C 
ATOM     13  C   UNL     1      -0.758  -1.919  25.001  0.00  0.00    +0.108 C 
ATOM     16  C   UNL     1      -3.149  -1.296  25.012  0.00  0.00    +0.247 C 
ENDROOT
BRANCH  16  18
ATOM      1 CL   UNL     1      -6.643   1.480  27.647  0.00  0.00    -0.062 Cl
ATOM      7  N   UNL     1      -6.132   1.747  25.120  0.00  0.00    -0.244 NA
ATOM     18  C   UNL     1      -4.176  -0.249  25.050  0.00  0.00    +0.041 A 
ATOM     21  C   UNL     1      -4.827   0.049  26.242  0.00  0.00    +0.053 A 
ATOM     22  C   UNL     1      -4.501   0.450  23.893  0.00  0.00    +0.033 A 
ATOM     25  C   UNL     1      -5.788   1.046  26.224  0.00  0.00    +0.130 A 
ATOM     26  C   UNL     1      -5.477   1.429  23.980  0.00  0.00    +0.113 A 
ENDBRANCH  16  18
BRANCH   8  12
ATOM     12  C   UNL     1      -1.205   0.929  22.615  0.00  0.00    +0.024 C 
BRANCH  12  15
ATOM     15  C   UNL     1      -1.917   2.269  22.508  0.00  0.00    +0.105 C 
BRANCH  15   6
ATOM      6  N   UNL     1      -1.506   3.157  23.568  0.00  0.00    -0.333 N 
ATOM     20  C   UNL     1      -0.115   3.610  23.602  0.00  0.00    +0.129 C 
BRANCH   6  19
ATOM     19  C   UNL     1      -2.406   3.580  24.557  0.00  0.00    +0.029 A 
ATOM     23  C   UNL     1      -2.029   3.552  25.900  0.00  0.00    +0.023 A 
ATOM     24  C   UNL     1      -3.676   4.029  24.198  0.00  0.00    +0.023 A 
ATOM     27  C   UNL     1      -2.924   3.973  26.884  0.00  0.00    +0.002 A 
ATOM     28  C   UNL     1      -4.572   4.449  25.182  0.00  0.00    +0.002 A 
ATOM     29  C   UNL     1      -4.195   4.422  26.524  0.00  0.00    +0.000 A 
ENDBRANCH   6  19
ENDBRANCH  15   6
ENDBRANCH  12  15
ENDBRANCH   8  12
BRANCH   9  14
ATOM     14  C   UNL     1       1.691  -0.030  22.659  0.00  0.00    +0.124 C 
BRANCH  14  17
ATOM      4  O   UNL     1       3.744   1.192  23.145  0.00  0.00    -0.251 OA
ATOM     17  C   UNL     1       3.114   0.146  23.114  0.00  0.00    +0.305 C 
BRANCH  17   3
ATOM      3  O   UNL     1       3.622  -1.053  23.499  0.00  0.00    -0.481 OA
ATOM     30  H   UNL     1       3.697  -1.678  22.746  0.00  0.00    +0.295 HD
ENDBRANCH  17   3
ENDBRANCH  14  17
ENDBRANCH   9  14
TORSDOF 8
ENDMDL
MODEL 9
REMARK VINA RESULT:       0.6      2.637      5.139
REMARK  Name = 28960141
REMARK  9 active torsions:
REMARK  status: ('A' for Active; 'I' for Inactive)
REMARK    1  A    between atoms: O_3  and  C_17
REMARK    2  A    between atoms: N_6  and  C_15
REMARK    3  A    between atoms: N_6  and  C_19
REMARK    4  A    between atoms: N_6  and  C_20
REMARK    5  A    between atoms: C_8  and  C_12
REMARK    6  A    between atoms: C_9  and  C_14
REMARK    7  A    between atoms: C_12  and  C_15
REMARK    8  A    between atoms: C_14  and  C_17
REMARK    9  A    between atoms: C_16  and  C_18
REMARK                            x       y       z     vdW  Elec       q    Type
REMARK                         _______ _______ _______ _____ _____    ______ ____
ROOT
ATOM      2  O   UNL     1      -3.868   2.234  22.508  0.00  0.00    -0.270 OA
ATOM      5  N   UNL     1      -4.193   0.757  24.294  0.00  0.00    -0.297 N 
ATOM      8  C   UNL     1      -3.255  -0.737  26.044  0.00  0.00    +0.012 C 
ATOM      9  C   UNL     1      -3.656  -1.951  25.167  0.00  0.00    +0.006 C 
ATOM     10  C   UNL     1      -3.709  -1.578  23.676  0.00  0.00    +0.023 C 
ATOM     11  C   UNL     1      -4.171   0.461  25.733  0.00  0.00    +0.112 C 
ATOM     13  C   UNL     1      -4.597  -0.359  23.442  0.00  0.00    +0.108 C 
ATOM     16  C   UNL     1      -3.858   1.983  23.712  0.00  0.00    +0.247 C 
ENDROOT
BRANCH  16  18
ATOM      1 CL   UNL     1      -0.590   5.823  24.913  0.00  0.00    -0.062 Cl
ATOM      7  N   UNL     1      -2.690   5.172  26.288  0.00  0.00    -0.244 NA
ATOM     18  C   UNL     1      -3.455   3.081  24.598  0.00  0.00    +0.041 A 
ATOM     21  C   UNL     1      -2.316   3.826  24.315  0.00  0.00    +0.053 A 
ATOM     22  C   UNL     1      -4.212   3.380  25.725  0.00  0.00    +0.033 A 
ATOM     25  C   UNL     1      -1.979   4.852  25.183  0.00  0.00    +0.130 A 
ATOM     26  C   UNL     1      -3.791   4.426  26.530  0.00  0.00    +0.113 A 
ENDBRANCH  16  18
BRANCH   8  12
ATOM     12  C   UNL     1      -1.782  -0.329  25.908  0.00  0.00    +0.024 C 
BRANCH  12  15
ATOM     15  C   UNL     1      -1.470   0.272  24.546  0.00  0.00    +0.105 C 
BRANCH  15   6
ATOM      6  N   UNL     1      -0.194   0.945  24.561  0.00  0.00    -0.333 N 
ATOM     20  C   UNL     1       0.042   1.976  25.573  0.00  0.00    +0.129 C 
BRANCH   6  19
ATOM     19  C   UNL     1       0.807   0.636  23.629  0.00  0.00    +0.029 A 
ATOM     23  C   UNL     1       0.551  -0.281  22.609  0.00  0.00    +0.023 A 
ATOM     24  C   UNL     1       2.059   1.243  23.722  0.00  0.00    +0.023 A 
ATOM     27  C   UNL     1       1.546  -0.589  21.682  0.00  0.00    +0.002 A 
ATOM     28  C   UNL     1       3.056   0.935  22.796  0.00  0.00    +0.002 A 
ATOM     29  C   UNL     1       2.798   0.019  21.776  0.00  0.00    +0.000 A 
ENDBRANCH   6  19
ENDBRANCH  15   6
ENDBRANCH  12  15
ENDBRANCH   8  12
BRANCH   9  14
ATOM     14  C   UNL     1      -2.762  -3.171  25.386  0.00  0.00    +0.124 C 
BRANCH  14  17
ATOM      4  O   UNL     1      -1.449  -3.243  23.334  0.00  0.00    -0.251 OA
ATOM     17  C   UNL     1      -1.517  -3.105  24.546  0.00  0.00    +0.305 C 
BRANCH  17   3
ATOM      3  O   UNL     1      -0.442  -2.863  25.339  0.00  0.00    -0.481 OA
ATOM     30  H   UNL     1       0.391  -3.192  24.938  0.00  0.00    +0.295 HD
ENDBRANCH  17   3
ENDBRANCH  14  17
ENDBRANCH   9  14
TORSDOF 8
ENDMDL
MODEL 10
REMARK VINA RESULT:       0.9      2.342      5.115
REMARK  Name = 28960141
REMARK  9 active torsions:
REMARK  status: ('A' for Active; 'I' for Inactive)
REMARK    1  A    between atoms: O_3  and  C_17
REMARK    2  A    between atoms: N_6  and  C_15
REMARK    3  A    between atoms: N_6  and  C_19
REMARK    4  A    between atoms: N_6  and  C_20
REMARK    5  A    between atoms: C_8  and  C_12
REMARK    6  A    between atoms: C_9  and  C_14
REMARK    7  A    between atoms: C_12  and  C_15
REMARK    8  A    between atoms: C_14  and  C_17
REMARK    9  A    between atoms: C_16  and  C_18
REMARK                            x       y       z     vdW  Elec       q    Type
REMARK                         _______ _______ _______ _____ _____    ______ ____
ROOT
ATOM      2  O   UNL     1      -0.046  -1.235  25.526  0.00  0.00    -0.270 OA
ATOM      5  N   UNL     1      -1.812  -0.571  24.143  0.00  0.00    -0.297 N 
ATOM      8  C   UNL     1      -3.103   1.233  23.023  0.00  0.00    +0.012 C 
ATOM      9  C   UNL     1      -4.211   1.050  24.093  0.00  0.00    +0.006 C 
ATOM     10  C   UNL     1      -3.641   0.491  25.407  0.00  0.00    +0.023 C 
ATOM     11  C   UNL     1      -2.317  -0.080  22.853  0.00  0.00    +0.112 C 
ATOM     13  C   UNL     1      -2.836  -0.783  25.163  0.00  0.00    +0.108 C 
ATOM     16  C   UNL     1      -0.473  -0.830  24.446  0.00  0.00    +0.247 C 
ENDROOT
BRANCH  16  18
ATOM      1 CL   UNL     1       4.247   0.750  23.002  0.00  0.00    -0.062 Cl
ATOM      7  N   UNL     1       2.434  -0.176  21.398  0.00  0.00    -0.244 NA
ATOM     18  C   UNL     1       0.528  -0.605  23.397  0.00  0.00    +0.041 A 
ATOM     21  C   UNL     1       1.775  -0.083  23.722  0.00  0.00    +0.053 A 
ATOM     22  C   UNL     1       0.232  -0.913  22.074  0.00  0.00    +0.033 A 
ATOM     25  C   UNL     1       2.685   0.111  22.695  0.00  0.00    +0.130 A 
ATOM     26  C   UNL     1       1.211  -0.682  21.121  0.00  0.00    +0.113 A 
ENDBRANCH  16  18
BRANCH   8  12
ATOM     12  C   UNL     1      -2.144   2.394  23.311  0.00  0.00    +0.024 C 
BRANCH  12  15
ATOM     15  C   UNL     1      -0.898   1.946  24.060  0.00  0.00    +0.105 C 
BRANCH  15   6
ATOM      6  N   UNL     1      -0.730   2.701  25.278  0.00  0.00    -0.333 N 
ATOM     20  C   UNL     1       0.346   2.321  26.194  0.00  0.00    +0.129 C 
BRANCH   6  19
ATOM     19  C   UNL     1      -1.575   3.774  25.595  0.00  0.00    +0.029 A 
ATOM     23  C   UNL     1      -2.644   3.584  26.471  0.00  0.00    +0.023 A 
ATOM     24  C   UNL     1      -1.347   5.031  25.036  0.00  0.00    +0.023 A 
ATOM     27  C   UNL     1      -3.485   4.651  26.787  0.00  0.00    +0.002 A 
ATOM     28  C   UNL     1      -2.188   6.098  25.351  0.00  0.00    +0.002 A 
ATOM     29  C   UNL     1      -3.256   5.908  26.227  0.00  0.00    +0.000 A 
ENDBRANCH   6  19
ENDBRANCH  15   6
ENDBRANCH  12  15
ENDBRANCH   8  12
BRANCH   9  14
ATOM     14  C   UNL     1      -5.011   2.326  24.352  0.00  0.00    +0.124 C 
BRANCH  14  17
ATOM      4  O   UNL     1      -6.013   2.361  26.574  0.00  0.00    -0.251 OA
ATOM     17  C   UNL     1      -6.086   2.107  25.381  0.00  0.00    +0.305 C 
BRANCH  17   3
ATOM      3  O   UNL     1      -7.185   1.572  24.789  0.00  0.00    -0.481 OA
ATOM     30  H   UNL     1      -7.970   1.607  25.376  0.00  0.00    +0.295 HD
ENDBRANCH  17   3
ENDBRANCH  14  17
ENDBRANCH   9  14
TORSDOF 8
ENDMDL
