MODEL 1
REMARK VINA RESULT:      -4.1      0.000      0.000
REMARK  Name = 86769372
REMARK  9 active torsions:
REMARK  status: ('A' for Active; 'I' for Inactive)
REMARK    1  A    between atoms: O_2  and  C_10
REMARK    2  A    between atoms: O_5  and  C_26
REMARK    3  A    between atoms: O_5  and  C_27
REMARK    4  A    between atoms: N_6  and  C_14
REMARK    5  A    between atoms: N_7  and  C_20
REMARK    6  A    between atoms: C_9  and  C_20
REMARK    7  A    between atoms: C_11  and  C_21
REMARK    8  A    between atoms: C_21  and  C_23
REMARK    9  A    between atoms: C_25  and  C_26
REMARK                            x       y       z     vdW  Elec       q    Type
REMARK                         _______ _______ _______ _____ _____    ______ ____
ROOT
ATOM      1  O   UNL     1      -2.639   2.479  24.462  0.00  0.00    -0.369 OA
ATOM      9  C   UNL     1      -1.462   3.204  24.844  0.00  0.00    +0.164 C 
ATOM     10  C   UNL     1      -1.813   4.610  25.346  0.00  0.00    +0.145 C 
ATOM     11  C   UNL     1      -3.642   2.371  25.475  0.00  0.00    +0.125 C 
ATOM     12  C   UNL     1      -2.922   4.594  26.394  0.00  0.00    +0.036 C 
ATOM     13  C   UNL     1      -4.106   3.756  25.922  0.00  0.00    +0.034 C 
ENDROOT
BRANCH  10   2
ATOM      2  O   UNL     1      -2.269   5.394  24.240  0.00  0.00    -0.389 OA
ATOM     30  H   UNL     1      -2.404   6.303  24.559  0.00  0.00    +0.210 HD
ENDBRANCH  10   2
BRANCH   9  20
ATOM     20  C   UNL     1      -0.622   2.407  25.840  0.00  0.00    +0.140 C 
BRANCH  20   7
ATOM      3  O   UNL     1       0.007   0.898  23.475  0.00  0.00    -0.253 OA
ATOM      6  N   UNL     1       2.262   1.288  23.862  0.00  0.00    -0.297 N 
ATOM      7  N   UNL     1       0.682   2.143  25.315  0.00  0.00    -0.297 N 
ATOM     22  C   UNL     1       0.905   1.396  24.153  0.00  0.00    +0.300 C 
ATOM     28  H   UNL     1       2.923   1.674  24.530  0.00  0.00    +0.151 HD
ATOM     29  H   UNL     1       1.488   2.503  25.819  0.00  0.00    +0.150 HD
BRANCH   6  14
ATOM     14  C   UNL     1       2.772   0.571  22.715  0.00  0.00    +0.074 C 
ATOM     15  C   UNL     1       4.175   1.058  22.338  0.00  0.00    +0.022 C 
ATOM     16  C   UNL     1       2.756  -0.942  22.962  0.00  0.00    +0.022 C 
ATOM     17  C   UNL     1       5.238   0.614  23.344  0.00  0.00    +0.002 C 
ATOM     18  C   UNL     1       3.822  -1.382  23.966  0.00  0.00    +0.002 C 
ATOM     19  C   UNL     1       5.210  -0.895  23.564  0.00  0.00    +0.000 C 
ENDBRANCH   6  14
ENDBRANCH  20   7
ENDBRANCH   9  20
BRANCH  11  21
ATOM     21  C   UNL     1      -4.800   1.573  24.889  0.00  0.00    +0.090 C 
BRANCH  21  23
ATOM      4  O   UNL     1      -4.547  -1.866  23.844  0.00  0.00    -0.357 OA
ATOM      8  N   UNL     1      -5.159  -0.619  23.832  0.00  0.00    -0.083 NA
ATOM     23  C   UNL     1      -4.425   0.135  24.656  0.00  0.00    +0.086 A 
ATOM     24  C   UNL     1      -3.347  -0.576  25.211  0.00  0.00    +0.073 A 
ATOM     25  C   UNL     1      -3.468  -1.829  24.669  0.00  0.00    +0.163 A 
BRANCH  25  26
ATOM     26  C   UNL     1      -2.700  -3.071  24.800  0.00  0.00    +0.236 C 
BRANCH  26   5
ATOM      5  O   UNL     1      -1.378  -2.893  24.284  0.00  0.00    -0.375 OA
ATOM     27  C   UNL     1      -0.597  -2.078  25.142  0.00  0.00    +0.194 C 
ENDBRANCH  26   5
ENDBRANCH  25  26
ENDBRANCH  21  23
ENDBRANCH  11  21
TORSDOF 8
ENDMDL
MODEL 2
REMARK VINA RESULT:      -3.3      1.837      4.595
REMARK  Name = 86769372
REMARK  9 active torsions:
REMARK  status: ('A' for Active; 'I' for Inactive)
REMARK    1  A    between atoms: O_2  and  C_10
REMARK    2  A    between atoms: O_5  and  C_26
REMARK    3  A    between atoms: O_5  and  C_27
REMARK    4  A    between atoms: N_6  and  C_14
REMARK    5  A    between atoms: N_7  and  C_20
REMARK    6  A    between atoms: C_9  and  C_20
REMARK    7  A    between atoms: C_11  and  C_21
REMARK    8  A    between atoms: C_21  and  C_23
REMARK    9  A    between atoms: C_25  and  C_26
REMARK                            x       y       z     vdW  Elec       q    Type
REMARK                         _______ _______ _______ _____ _____    ______ ____
ROOT
ATOM      1  O   UNL     1      -3.021   0.225  25.245  0.00  0.00    -0.369 OA
ATOM      9  C   UNL     1      -2.088  -0.801  24.881  0.00  0.00    +0.164 C 
ATOM     10  C   UNL     1      -2.794  -2.146  24.669  0.00  0.00    +0.145 C 
ATOM     11  C   UNL     1      -4.106   0.412  24.334  0.00  0.00    +0.125 C 
ATOM     12  C   UNL     1      -4.006  -2.028  23.749  0.00  0.00    +0.036 C 
ATOM     13  C   UNL     1      -4.910  -0.878  24.182  0.00  0.00    +0.034 C 
ENDROOT
BRANCH  10   2
ATOM      2  O   UNL     1      -3.252  -2.631  25.934  0.00  0.00    -0.389 OA
ATOM     30  H   UNL     1      -3.260  -3.602  25.892  0.00  0.00    +0.210 HD
ENDBRANCH  10   2
BRANCH   9  20
ATOM     20  C   UNL     1      -1.241  -0.377  23.683  0.00  0.00    +0.140 C 
BRANCH  20   7
ATOM      3  O   UNL     1       0.891  -0.539  21.761  0.00  0.00    -0.253 OA
ATOM      6  N   UNL     1       2.409  -0.743  23.506  0.00  0.00    -0.297 N 
ATOM      7  N   UNL     1       0.154  -0.527  23.963  0.00  0.00    -0.297 N 
ATOM     22  C   UNL     1       1.133  -0.598  22.966  0.00  0.00    +0.300 C 
ATOM     28  H   UNL     1       2.487  -0.857  24.513  0.00  0.00    +0.151 HD
ATOM     29  H   UNL     1       0.447  -0.600  24.933  0.00  0.00    +0.150 HD
BRANCH   6  14
ATOM     14  C   UNL     1       3.604  -0.841  22.699  0.00  0.00    +0.074 C 
ATOM     15  C   UNL     1       4.012   0.530  22.150  0.00  0.00    +0.022 C 
ATOM     16  C   UNL     1       4.749  -1.488  23.487  0.00  0.00    +0.022 C 
ATOM     17  C   UNL     1       4.575   1.450  23.233  0.00  0.00    +0.002 C 
ATOM     18  C   UNL     1       5.309  -0.563  24.568  0.00  0.00    +0.002 C 
ATOM     19  C   UNL     1       5.718   0.789  23.995  0.00  0.00    +0.000 C 
ENDBRANCH   6  14
ENDBRANCH  20   7
ENDBRANCH   9  20
BRANCH  11  21
ATOM     21  C   UNL     1      -4.979   1.534  24.883  0.00  0.00    +0.090 C 
BRANCH  21  23
ATOM      4  O   UNL     1      -3.549   4.504  26.339  0.00  0.00    -0.357 OA
ATOM      8  N   UNL     1      -4.483   3.476  26.309  0.00  0.00    -0.083 NA
ATOM     23  C   UNL     1      -4.166   2.751  25.232  0.00  0.00    +0.086 A 
ATOM     24  C   UNL     1      -3.051   3.269  24.551  0.00  0.00    +0.073 A 
ATOM     25  C   UNL     1      -2.701   4.371  25.287  0.00  0.00    +0.163 A 
BRANCH  25  26
ATOM     26  C   UNL     1      -1.644   5.380  25.164  0.00  0.00    +0.236 C 
BRANCH  26   5
ATOM      5  O   UNL     1      -0.422   4.770  24.740  0.00  0.00    -0.375 OA
ATOM     27  C   UNL     1      -0.224   3.519  25.380  0.00  0.00    +0.194 C 
ENDBRANCH  26   5
ENDBRANCH  25  26
ENDBRANCH  21  23
ENDBRANCH  11  21
TORSDOF 8
ENDMDL
MODEL 3
REMARK VINA RESULT:      -3.2      1.678      5.499
REMARK  Name = 86769372
REMARK  9 active torsions:
REMARK  status: ('A' for Active; 'I' for Inactive)
REMARK    1  A    between atoms: O_2  and  C_10
REMARK    2  A    between atoms: O_5  and  C_26
REMARK    3  A    between atoms: O_5  and  C_27
REMARK    4  A    between atoms: N_6  and  C_14
REMARK    5  A    between atoms: N_7  and  C_20
REMARK    6  A    between atoms: C_9  and  C_20
REMARK    7  A    between atoms: C_11  and  C_21
REMARK    8  A    between atoms: C_21  and  C_23
REMARK    9  A    between atoms: C_25  and  C_26
REMARK                            x       y       z     vdW  Elec       q    Type
REMARK                         _______ _______ _______ _____ _____    ______ ____
ROOT
ATOM      1  O   UNL     1      -2.520   2.829  25.583  0.00  0.00    -0.369 OA
ATOM      9  C   UNL     1      -3.559   3.719  25.153  0.00  0.00    +0.164 C 
ATOM     10  C   UNL     1      -3.113   5.183  25.249  0.00  0.00    +0.145 C 
ATOM     11  C   UNL     1      -1.271   2.977  24.903  0.00  0.00    +0.125 C 
ATOM     12  C   UNL     1      -1.755   5.423  24.595  0.00  0.00    +0.036 C 
ATOM     13  C   UNL     1      -0.731   4.397  25.072  0.00  0.00    +0.034 C 
ENDROOT
BRANCH  10   2
ATOM      2  O   UNL     1      -3.001   5.542  26.629  0.00  0.00    -0.389 OA
ATOM     30  H   UNL     1      -3.849   5.930  26.903  0.00  0.00    +0.210 HD
ENDBRANCH  10   2
BRANCH   9  20
ATOM     20  C   UNL     1      -4.069   3.341  23.765  0.00  0.00    +0.140 C 
BRANCH  20   7
ATOM      3  O   UNL     1      -4.781   1.106  25.428  0.00  0.00    -0.253 OA
ATOM      6  N   UNL     1      -3.858  -0.325  23.850  0.00  0.00    -0.297 N 
ATOM      7  N   UNL     1      -3.828   1.957  23.489  0.00  0.00    -0.297 N 
ATOM     22  C   UNL     1      -4.208   0.925  24.354  0.00  0.00    +0.300 C 
ATOM     28  H   UNL     1      -3.319  -0.355  22.989  0.00  0.00    +0.151 HD
ATOM     29  H   UNL     1      -3.345   1.713  22.630  0.00  0.00    +0.150 HD
BRANCH   6  14
ATOM     14  C   UNL     1      -4.133  -1.563  24.543  0.00  0.00    +0.074 C 
ATOM     15  C   UNL     1      -3.540  -2.759  23.790  0.00  0.00    +0.022 C 
ATOM     16  C   UNL     1      -3.627  -1.510  25.989  0.00  0.00    +0.022 C 
ATOM     17  C   UNL     1      -2.015  -2.811  23.883  0.00  0.00    +0.002 C 
ATOM     18  C   UNL     1      -2.102  -1.564  26.076  0.00  0.00    +0.002 C 
ATOM     19  C   UNL     1      -1.537  -2.768  25.330  0.00  0.00    +0.000 C 
ENDBRANCH   6  14
ENDBRANCH  20   7
ENDBRANCH   9  20
BRANCH  11  21
ATOM     21  C   UNL     1      -0.305   1.956  25.488  0.00  0.00    +0.090 C 
BRANCH  21  23
ATOM      4  O   UNL     1       0.720  -0.335  22.902  0.00  0.00    -0.357 OA
ATOM      8  N   UNL     1      -0.197   0.141  23.830  0.00  0.00    -0.083 NA
ATOM     23  C   UNL     1       0.407   1.181  24.413  0.00  0.00    +0.086 A 
ATOM     24  C   UNL     1       1.694   1.407  23.896  0.00  0.00    +0.073 A 
ATOM     25  C   UNL     1       1.843   0.428  22.949  0.00  0.00    +0.163 A 
BRANCH  25  26
ATOM     26  C   UNL     1       2.924   0.062  22.027  0.00  0.00    +0.236 C 
BRANCH  26   5
ATOM      5  O   UNL     1       4.087   0.853  22.287  0.00  0.00    -0.375 OA
ATOM     27  C   UNL     1       4.965   0.194  23.185  0.00  0.00    +0.194 C 
ENDBRANCH  26   5
ENDBRANCH  25  26
ENDBRANCH  21  23
ENDBRANCH  11  21
TORSDOF 8
ENDMDL
MODEL 4
REMARK VINA RESULT:      -2.4      2.023      6.964
REMARK  Name = 86769372
REMARK  9 active torsions:
REMARK  status: ('A' for Active; 'I' for Inactive)
REMARK    1  A    between atoms: O_2  and  C_10
REMARK    2  A    between atoms: O_5  and  C_26
REMARK    3  A    between atoms: O_5  and  C_27
REMARK    4  A    between atoms: N_6  and  C_14
REMARK    5  A    between atoms: N_7  and  C_20
REMARK    6  A    between atoms: C_9  and  C_20
REMARK    7  A    between atoms: C_11  and  C_21
REMARK    8  A    between atoms: C_21  and  C_23
REMARK    9  A    between atoms: C_25  and  C_26
REMARK                            x       y       z     vdW  Elec       q    Type
REMARK                         _______ _______ _______ _____ _____    ______ ____
ROOT
ATOM      1  O   UNL     1      -0.874  -1.209  23.677  0.00  0.00    -0.369 OA
ATOM      9  C   UNL     1      -1.402  -2.245  24.516  0.00  0.00    +0.164 C 
ATOM     10  C   UNL     1      -0.895  -2.107  25.957  0.00  0.00    +0.145 C 
ATOM     11  C   UNL     1      -1.120   0.125  24.128  0.00  0.00    +0.125 C 
ATOM     12  C   UNL     1      -1.067  -0.692  26.502  0.00  0.00    +0.036 C 
ATOM     13  C   UNL     1      -0.526   0.341  25.519  0.00  0.00    +0.034 C 
ENDROOT
BRANCH  10   2
ATOM      2  O   UNL     1       0.501  -2.419  25.986  0.00  0.00    -0.389 OA
ATOM     30  H   UNL     1       0.791  -2.559  25.068  0.00  0.00    +0.210 HD
ENDBRANCH  10   2
BRANCH   9  20
ATOM     20  C   UNL     1      -2.925  -2.306  24.423  0.00  0.00    +0.140 C 
BRANCH  20   7
ATOM      3  O   UNL     1      -3.909   0.045  23.093  0.00  0.00    -0.253 OA
ATOM      6  N   UNL     1      -4.515   0.923  25.155  0.00  0.00    -0.297 N 
ATOM      7  N   UNL     1      -3.522  -1.160  25.039  0.00  0.00    -0.297 N 
ATOM     22  C   UNL     1      -3.977  -0.051  24.318  0.00  0.00    +0.300 C 
ATOM     28  H   UNL     1      -4.453   0.773  26.158  0.00  0.00    +0.151 HD
ATOM     29  H   UNL     1      -3.606  -1.145  26.051  0.00  0.00    +0.150 HD
BRANCH   6  14
ATOM     14  C   UNL     1      -5.059   2.171  24.670  0.00  0.00    +0.074 C 
ATOM     15  C   UNL     1      -5.418   3.104  25.831  0.00  0.00    +0.022 C 
ATOM     16  C   UNL     1      -4.094   2.849  23.690  0.00  0.00    +0.022 C 
ATOM     17  C   UNL     1      -4.181   3.678  26.524  0.00  0.00    +0.002 C 
ATOM     18  C   UNL     1      -2.860   3.422  24.388  0.00  0.00    +0.002 C 
ATOM     19  C   UNL     1      -3.243   4.356  25.531  0.00  0.00    +0.000 C 
ENDBRANCH   6  14
ENDBRANCH  20   7
ENDBRANCH   9  20
BRANCH  11  21
ATOM     21  C   UNL     1      -0.492   1.075  23.116  0.00  0.00    +0.090 C 
BRANCH  21  23
ATOM      4  O   UNL     1       2.644  -0.333  22.036  0.00  0.00    -0.357 OA
ATOM      8  N   UNL     1       1.256  -0.303  22.069  0.00  0.00    -0.083 NA
ATOM     23  C   UNL     1       0.949   0.735  22.852  0.00  0.00    +0.086 A 
ATOM     24  C   UNL     1       2.093   1.392  23.337  0.00  0.00    +0.073 A 
ATOM     25  C   UNL     1       3.132   0.682  22.795  0.00  0.00    +0.163 A 
BRANCH  25  26
ATOM     26  C   UNL     1       4.593   0.798  22.873  0.00  0.00    +0.236 C 
BRANCH  26   5
ATOM      5  O   UNL     1       5.043   0.513  24.200  0.00  0.00    -0.375 OA
ATOM     27  C   UNL     1       5.455  -0.839  24.322  0.00  0.00    +0.194 C 
ENDBRANCH  26   5
ENDBRANCH  25  26
ENDBRANCH  21  23
ENDBRANCH  11  21
TORSDOF 8
ENDMDL
MODEL 5
REMARK VINA RESULT:      -1.7      1.751      6.619
REMARK  Name = 86769372
REMARK  9 active torsions:
REMARK  status: ('A' for Active; 'I' for Inactive)
REMARK    1  A    between atoms: O_2  and  C_10
REMARK    2  A    between atoms: O_5  and  C_26
REMARK    3  A    between atoms: O_5  and  C_27
REMARK    4  A    between atoms: N_6  and  C_14
REMARK    5  A    between atoms: N_7  and  C_20
REMARK    6  A    between atoms: C_9  and  C_20
REMARK    7  A    between atoms: C_11  and  C_21
REMARK    8  A    between atoms: C_21  and  C_23
REMARK    9  A    between atoms: C_25  and  C_26
REMARK                            x       y       z     vdW  Elec       q    Type
REMARK                         _______ _______ _______ _____ _____    ______ ____
ROOT
ATOM      1  O   UNL     1      -2.604  -0.351  23.967  0.00  0.00    -0.369 OA
ATOM      9  C   UNL     1      -3.642  -1.336  23.871  0.00  0.00    +0.164 C 
ATOM     10  C   UNL     1      -3.292  -2.595  24.675  0.00  0.00    +0.145 C 
ATOM     11  C   UNL     1      -2.252   0.033  25.298  0.00  0.00    +0.125 C 
ATOM     12  C   UNL     1      -2.848  -2.272  26.098  0.00  0.00    +0.036 C 
ATOM     13  C   UNL     1      -1.784  -1.178  26.103  0.00  0.00    +0.034 C 
ENDROOT
BRANCH  10   2
ATOM      2  O   UNL     1      -2.213  -3.272  24.025  0.00  0.00    -0.389 OA
ATOM     30  H   UNL     1      -2.487  -3.453  23.110  0.00  0.00    +0.210 HD
ENDBRANCH  10   2
BRANCH   9  20
ATOM     20  C   UNL     1      -4.999  -0.746  24.248  0.00  0.00    +0.140 C 
BRANCH  20   7
ATOM      3  O   UNL     1      -4.789   2.022  23.502  0.00  0.00    -0.253 OA
ATOM      6  N   UNL     1      -4.606   2.583  25.747  0.00  0.00    -0.297 N 
ATOM      7  N   UNL     1      -4.845   0.370  25.131  0.00  0.00    -0.297 N 
ATOM     22  C   UNL     1      -4.749   1.692  24.687  0.00  0.00    +0.300 C 
ATOM     28  H   UNL     1      -4.509   2.196  26.682  0.00  0.00    +0.151 HD
ATOM     29  H   UNL     1      -4.787   0.190  26.129  0.00  0.00    +0.150 HD
BRANCH   6  14
ATOM     14  C   UNL     1      -4.486   4.013  25.570  0.00  0.00    +0.074 C 
ATOM     15  C   UNL     1      -3.597   4.630  26.654  0.00  0.00    +0.022 C 
ATOM     16  C   UNL     1      -3.969   4.352  24.167  0.00  0.00    +0.022 C 
ATOM     17  C   UNL     1      -2.120   4.279  26.471  0.00  0.00    +0.002 C 
ATOM     18  C   UNL     1      -2.491   4.001  23.989  0.00  0.00    +0.002 C 
ATOM     19  C   UNL     1      -1.627   4.636  25.073  0.00  0.00    +0.000 C 
ENDBRANCH   6  14
ENDBRANCH  20   7
ENDBRANCH   9  20
BRANCH  11  21
ATOM     21  C   UNL     1      -1.148   1.077  25.197  0.00  0.00    +0.090 C 
BRANCH  21  23
ATOM      4  O   UNL     1       1.156  -0.742  23.107  0.00  0.00    -0.357 OA
ATOM      8  N   UNL     1       0.001  -0.649  23.873  0.00  0.00    -0.083 NA
ATOM     23  C   UNL     1      -0.017   0.610  24.321  0.00  0.00    +0.086 A 
ATOM     24  C   UNL     1       1.090   1.351  23.874  0.00  0.00    +0.073 A 
ATOM     25  C   UNL     1       1.797   0.455  23.115  0.00  0.00    +0.163 A 
BRANCH  25  26
ATOM     26  C   UNL     1       3.047   0.534  22.350  0.00  0.00    +0.236 C 
BRANCH  26   5
ATOM      5  O   UNL     1       4.062   1.178  23.126  0.00  0.00    -0.375 OA
ATOM     27  C   UNL     1       5.078   0.262  23.502  0.00  0.00    +0.194 C 
ENDBRANCH  26   5
ENDBRANCH  25  26
ENDBRANCH  21  23
ENDBRANCH  11  21
TORSDOF 8
ENDMDL
MODEL 6
REMARK VINA RESULT:      -0.3      2.944      6.945
REMARK  Name = 86769372
REMARK  9 active torsions:
REMARK  status: ('A' for Active; 'I' for Inactive)
REMARK    1  A    between atoms: O_2  and  C_10
REMARK    2  A    between atoms: O_5  and  C_26
REMARK    3  A    between atoms: O_5  and  C_27
REMARK    4  A    between atoms: N_6  and  C_14
REMARK    5  A    between atoms: N_7  and  C_20
REMARK    6  A    between atoms: C_9  and  C_20
REMARK    7  A    between atoms: C_11  and  C_21
REMARK    8  A    between atoms: C_21  and  C_23
REMARK    9  A    between atoms: C_25  and  C_26
REMARK                            x       y       z     vdW  Elec       q    Type
REMARK                         _______ _______ _______ _____ _____    ______ ____
ROOT
ATOM      1  O   UNL     1      -3.145  -0.846  23.318  0.00  0.00    -0.369 OA
ATOM      9  C   UNL     1      -4.152  -1.763  23.768  0.00  0.00    +0.164 C 
ATOM     10  C   UNL     1      -3.525  -3.034  24.354  0.00  0.00    +0.145 C 
ATOM     11  C   UNL     1      -2.177  -0.473  24.302  0.00  0.00    +0.125 C 
ATOM     12  C   UNL     1      -2.435  -2.728  25.378  0.00  0.00    +0.036 C 
ATOM     13  C   UNL     1      -1.444  -1.705  24.830  0.00  0.00    +0.034 C 
ENDROOT
BRANCH  10   2
ATOM      2  O   UNL     1      -2.928  -3.785  23.293  0.00  0.00    -0.389 OA
ATOM     30  H   UNL     1      -2.519  -3.153  22.678  0.00  0.00    +0.210 HD
ENDBRANCH  10   2
BRANCH   9  20
ATOM     20  C   UNL     1      -5.127  -1.083  24.727  0.00  0.00    +0.140 C 
BRANCH  20   7
ATOM      3  O   UNL     1      -5.938   1.641  24.298  0.00  0.00    -0.253 OA
ATOM      6  N   UNL     1      -4.258   2.338  25.741  0.00  0.00    -0.297 N 
ATOM      7  N   UNL     1      -4.543   0.086  25.309  0.00  0.00    -0.297 N 
ATOM     22  C   UNL     1      -4.998   1.382  25.048  0.00  0.00    +0.300 C 
ATOM     28  H   UNL     1      -3.454   2.019  26.275  0.00  0.00    +0.151 HD
ATOM     29  H   UNL     1      -3.749  -0.031  25.932  0.00  0.00    +0.150 HD
BRANCH   6  14
ATOM     14  C   UNL     1      -4.517   3.757  25.653  0.00  0.00    +0.074 C 
ATOM     15  C   UNL     1      -3.656   4.537  26.651  0.00  0.00    +0.022 C 
ATOM     16  C   UNL     1      -4.309   4.267  24.222  0.00  0.00    +0.022 C 
ATOM     17  C   UNL     1      -2.181   4.575  26.248  0.00  0.00    +0.002 C 
ATOM     18  C   UNL     1      -2.833   4.304  23.824  0.00  0.00    +0.002 C 
ATOM     19  C   UNL     1      -2.000   5.096  24.826  0.00  0.00    +0.000 C 
ENDBRANCH   6  14
ENDBRANCH  20   7
ENDBRANCH   9  20
BRANCH  11  21
ATOM     21  C   UNL     1      -1.205   0.497  23.645  0.00  0.00    +0.090 C 
BRANCH  21  23
ATOM      4  O   UNL     1       0.754   2.945  25.422  0.00  0.00    -0.357 OA
ATOM      8  N   UNL     1       0.281   2.361  24.254  0.00  0.00    -0.083 NA
ATOM     23  C   UNL     1      -0.508   1.362  24.660  0.00  0.00    +0.086 A 
ATOM     24  C   UNL     1      -0.572   1.270  26.061  0.00  0.00    +0.073 A 
ATOM     25  C   UNL     1       0.238   2.287  26.493  0.00  0.00    +0.163 A 
BRANCH  25  26
ATOM     26  C   UNL     1       0.637   2.776  27.817  0.00  0.00    +0.236 C 
BRANCH  26   5
ATOM      5  O   UNL     1       2.028   2.527  28.040  0.00  0.00    -0.375 OA
ATOM     27  C   UNL     1       2.410   2.887  29.357  0.00  0.00    +0.194 C 
ENDBRANCH  26   5
ENDBRANCH  25  26
ENDBRANCH  21  23
ENDBRANCH  11  21
TORSDOF 8
ENDMDL
MODEL 7
REMARK VINA RESULT:      -0.3      1.920      6.428
REMARK  Name = 86769372
REMARK  9 active torsions:
REMARK  status: ('A' for Active; 'I' for Inactive)
REMARK    1  A    between atoms: O_2  and  C_10
REMARK    2  A    between atoms: O_5  and  C_26
REMARK    3  A    between atoms: O_5  and  C_27
REMARK    4  A    between atoms: N_6  and  C_14
REMARK    5  A    between atoms: N_7  and  C_20
REMARK    6  A    between atoms: C_9  and  C_20
REMARK    7  A    between atoms: C_11  and  C_21
REMARK    8  A    between atoms: C_21  and  C_23
REMARK    9  A    between atoms: C_25  and  C_26
REMARK                            x       y       z     vdW  Elec       q    Type
REMARK                         _______ _______ _______ _____ _____    ______ ____
ROOT
ATOM      1  O   UNL     1       0.575   0.829  23.062  0.00  0.00    -0.369 OA
ATOM      9  C   UNL     1       1.161  -0.466  22.868  0.00  0.00    +0.164 C 
ATOM     10  C   UNL     1       2.545  -0.358  22.217  0.00  0.00    +0.145 C 
ATOM     11  C   UNL     1       1.369   1.750  23.813  0.00  0.00    +0.125 C 
ATOM     12  C   UNL     1       3.445   0.651  22.924  0.00  0.00    +0.036 C 
ATOM     13  C   UNL     1       2.719   1.976  23.134  0.00  0.00    +0.034 C 
ENDROOT
BRANCH  10   2
ATOM      2  O   UNL     1       2.386   0.073  20.863  0.00  0.00    -0.389 OA
ATOM     30  H   UNL     1       3.174   0.589  20.623  0.00  0.00    +0.210 HD
ENDBRANCH  10   2
BRANCH   9  20
ATOM     20  C   UNL     1       1.174  -1.265  24.170  0.00  0.00    +0.140 C 
BRANCH  20   7
ATOM      3  O   UNL     1      -1.423  -2.488  24.320  0.00  0.00    -0.253 OA
ATOM      6  N   UNL     1      -2.021  -0.950  25.953  0.00  0.00    -0.297 N 
ATOM      7  N   UNL     1       0.092  -0.876  25.021  0.00  0.00    -0.297 N 
ATOM     22  C   UNL     1      -1.146  -1.526  25.034  0.00  0.00    +0.300 C 
ATOM     28  H   UNL     1      -1.715  -0.111  26.437  0.00  0.00    +0.151 HD
ATOM     29  H   UNL     1       0.226  -0.078  25.637  0.00  0.00    +0.150 HD
BRANCH   6  14
ATOM     14  C   UNL     1      -3.368  -1.427  26.170  0.00  0.00    +0.074 C 
ATOM     15  C   UNL     1      -4.394  -0.504  25.504  0.00  0.00    +0.022 C 
ATOM     16  C   UNL     1      -3.525  -2.873  25.686  0.00  0.00    +0.022 C 
ATOM     17  C   UNL     1      -4.382  -0.619  23.979  0.00  0.00    +0.002 C 
ATOM     18  C   UNL     1      -3.514  -2.983  24.161  0.00  0.00    +0.002 C 
ATOM     19  C   UNL     1      -4.550  -2.064  23.523  0.00  0.00    +0.000 C 
ENDBRANCH   6  14
ENDBRANCH  20   7
ENDBRANCH   9  20
BRANCH  11  21
ATOM     21  C   UNL     1       0.587   3.053  23.915  0.00  0.00    +0.090 C 
BRANCH  21  23
ATOM      4  O   UNL     1      -2.531   2.077  25.437  0.00  0.00    -0.357 OA
ATOM      8  N   UNL     1      -1.143   2.106  25.386  0.00  0.00    -0.083 NA
ATOM     23  C   UNL     1      -0.851   2.813  24.290  0.00  0.00    +0.086 A 
ATOM     24  C   UNL     1      -2.003   3.252  23.617  0.00  0.00    +0.073 A 
ATOM     25  C   UNL     1      -3.033   2.764  24.378  0.00  0.00    +0.163 A 
BRANCH  25  26
ATOM     26  C   UNL     1      -4.494   2.834  24.276  0.00  0.00    +0.236 C 
BRANCH  26   5
ATOM      5  O   UNL     1      -5.044   3.441  25.448  0.00  0.00    -0.375 OA
ATOM     27  C   UNL     1      -5.966   2.574  26.090  0.00  0.00    +0.194 C 
ENDBRANCH  26   5
ENDBRANCH  25  26
ENDBRANCH  21  23
ENDBRANCH  11  21
TORSDOF 8
ENDMDL
