MODEL 1
REMARK VINA RESULT:      13.6      0.000      0.000
REMARK  Name = 44716462
REMARK  9 active torsions:
REMARK  status: ('A' for Active; 'I' for Inactive)
REMARK    1  A    between atoms: O_3  and  C_22
REMARK    2  A    between atoms: O_3  and  C_35
REMARK    3  A    between atoms: N_6  and  C_13
REMARK    4  A    between atoms: N_6  and  C_23
REMARK    5  A    between atoms: N_8  and  C_33
REMARK    6  A    between atoms: C_11  and  C_19
REMARK    7  A    between atoms: C_15  and  C_22
REMARK    8  A    between atoms: C_23  and  C_28
REMARK    9  A    between atoms: C_28  and  C_33
REMARK                            x       y       z     vdW  Elec       q    Type
REMARK                         _______ _______ _______ _____ _____    ______ ____
ROOT
ATOM      5  N   UNL     1      -1.067   1.529  25.735  0.00  0.00    -0.274 NA
ATOM      7  N   UNL     1      -3.804  -0.056  23.710  0.00  0.00    -0.356 N 
ATOM     10  C   UNL     1      -2.085   1.596  24.642  0.00  0.00    +0.106 C 
ATOM     11  C   UNL     1      -0.427   2.847  25.980  0.00  0.00    +0.090 C 
ATOM     12  C   UNL     1      -3.173   2.630  24.975  0.00  0.00    +0.044 C 
ATOM     13  C   UNL     1      -2.552   4.011  25.186  0.00  0.00    +0.057 C 
ATOM     14  C   UNL     1      -1.490   3.932  26.282  0.00  0.00    +0.042 C 
ATOM     15  C   UNL     1      -0.116   0.395  25.572  0.00  0.00    +0.172 C 
ATOM     16  C   UNL     1      -2.668   0.235  24.412  0.00  0.00    +0.038 A 
ATOM     17  C   UNL     1      -0.826  -0.982  25.588  0.00  0.00    +0.068 C 
ATOM     18  C   UNL     1      -2.101  -0.954  24.819  0.00  0.00    -0.016 A 
ATOM     20  C   UNL     1      -2.942  -2.011  24.377  0.00  0.00    +0.003 A 
ATOM     21  C   UNL     1      -4.004  -1.420  23.686  0.00  0.00    +0.047 A 
ATOM     26  C   UNL     1      -2.907  -3.415  24.494  0.00  0.00    +0.010 A 
ATOM     27  C   UNL     1      -5.034  -2.168  23.104  0.00  0.00    +0.026 A 
ATOM     29  C   UNL     1      -3.931  -4.174  23.919  0.00  0.00    +0.001 A 
ATOM     32  C   UNL     1      -4.978  -3.558  23.235  0.00  0.00    +0.002 A 
ATOM     40  H   UNL     1      -4.414   0.621  23.272  0.00  0.00    +0.166 HD
ENDROOT
BRANCH  11  19
ATOM      1 CL   UNL     1       3.540   2.860  30.532  0.00  0.00    -0.081 Cl
ATOM      2  F   UNL     1       0.648   2.237  30.714  0.00  0.00    -0.204 F 
ATOM     19  C   UNL     1       0.574   2.849  27.132  0.00  0.00    -0.027 A 
ATOM     24  C   UNL     1       0.152   2.537  28.425  0.00  0.00    +0.045 A 
ATOM     25  C   UNL     1       1.912   3.163  26.892  0.00  0.00    +0.007 A 
ATOM     30  C   UNL     1       1.068   2.538  29.477  0.00  0.00    +0.142 A 
ATOM     31  C   UNL     1       2.828   3.165  27.944  0.00  0.00    +0.023 A 
ATOM     34  C   UNL     1       2.406   2.853  29.237  0.00  0.00    +0.076 A 
ENDBRANCH  11  19
BRANCH  15  22
ATOM      4  O   UNL     1       1.314   1.583  24.038  0.00  0.00    -0.249 OA
ATOM     22  C   UNL     1       0.696   0.565  24.320  0.00  0.00    +0.325 C 
BRANCH  22   3
ATOM      3  O   UNL     1       0.632  -0.575  23.576  0.00  0.00    -0.467 OA
ATOM     35  C   UNL     1       1.284  -0.517  22.303  0.00  0.00    +0.280 C 
ENDBRANCH  22   3
ENDBRANCH  15  22
BRANCH  13   6
ATOM      6  N   UNL     1      -3.589   4.980  25.535  0.00  0.00    -0.313 NA
ATOM     39  H   UNL     1      -4.123   4.638  26.334  0.00  0.00    +0.122 HD
BRANCH   6  23
ATOM     23  C   UNL     1      -4.499   5.186  24.418  0.00  0.00    +0.083 C 
BRANCH  23  28
ATOM     28  C   UNL     1      -5.931   5.347  24.924  0.00  0.00    +0.037 C 
BRANCH  28  33
ATOM     33  C   UNL     1      -6.168   4.508  26.183  0.00  0.00    +0.124 C 
BRANCH  33   8
ATOM      8  N   UNL     1      -6.188   3.033  25.874  0.00  0.00    -0.337 N 
ATOM      9  N   UNL     1      -6.290   1.154  24.693  0.00  0.00    -0.244 NA
ATOM     36  C   UNL     1      -6.096   2.015  26.782  0.00  0.00    +0.106 A 
ATOM     37  C   UNL     1      -6.302   2.468  24.635  0.00  0.00    +0.199 A 
ATOM     38  C   UNL     1      -6.162   0.866  26.029  0.00  0.00    +0.130 A 
ENDBRANCH  33   8
ENDBRANCH  28  33
ENDBRANCH  23  28
ENDBRANCH   6  23
ENDBRANCH  13   6
TORSDOF 8
ENDMDL
MODEL 2
REMARK VINA RESULT:      15.2      3.255      6.702
REMARK  Name = 44716462
REMARK  9 active torsions:
REMARK  status: ('A' for Active; 'I' for Inactive)
REMARK    1  A    between atoms: O_3  and  C_22
REMARK    2  A    between atoms: O_3  and  C_35
REMARK    3  A    between atoms: N_6  and  C_13
REMARK    4  A    between atoms: N_6  and  C_23
REMARK    5  A    between atoms: N_8  and  C_33
REMARK    6  A    between atoms: C_11  and  C_19
REMARK    7  A    between atoms: C_15  and  C_22
REMARK    8  A    between atoms: C_23  and  C_28
REMARK    9  A    between atoms: C_28  and  C_33
REMARK                            x       y       z     vdW  Elec       q    Type
REMARK                         _______ _______ _______ _____ _____    ______ ____
ROOT
ATOM      5  N   UNL     1      -2.141   0.827  23.728  0.00  0.00    -0.274 NA
ATOM      7  N   UNL     1       1.028  -1.098  23.127  0.00  0.00    -0.356 N 
ATOM     10  C   UNL     1      -1.434  -0.415  23.289  0.00  0.00    +0.106 C 
ATOM     11  C   UNL     1      -3.613   0.639  23.784  0.00  0.00    +0.090 C 
ATOM     12  C   UNL     1      -1.757  -1.587  24.231  0.00  0.00    +0.044 C 
ATOM     13  C   UNL     1      -3.264  -1.839  24.274  0.00  0.00    +0.057 C 
ATOM     14  C   UNL     1      -3.986  -0.559  24.692  0.00  0.00    +0.042 C 
ATOM     15  C   UNL     1      -1.695   2.039  22.989  0.00  0.00    +0.172 C 
ATOM     16  C   UNL     1       0.040  -0.157  23.214  0.00  0.00    +0.038 A 
ATOM     17  C   UNL     1      -0.186   2.334  23.187  0.00  0.00    +0.068 C 
ATOM     18  C   UNL     1       0.628   1.088  23.147  0.00  0.00    -0.016 A 
ATOM     20  C   UNL     1       2.034   0.901  23.052  0.00  0.00    +0.003 A 
ATOM     21  C   UNL     1       2.257  -0.479  23.043  0.00  0.00    +0.047 A 
ATOM     26  C   UNL     1       3.142   1.768  22.968  0.00  0.00    +0.010 A 
ATOM     27  C   UNL     1       3.539  -1.034  22.955  0.00  0.00    +0.026 A 
ATOM     29  C   UNL     1       4.429   1.225  22.882  0.00  0.00    +0.001 A 
ATOM     32  C   UNL     1       4.622  -0.155  22.875  0.00  0.00    +0.002 A 
ATOM     40  H   UNL     1       0.887  -2.099  23.127  0.00  0.00    +0.166 HD
ENDROOT
BRANCH  11  19
ATOM      1 CL   UNL     1      -6.645   5.458  25.792  0.00  0.00    -0.081 Cl
ATOM      2  F   UNL     1      -4.219   5.483  24.090  0.00  0.00    -0.204 F 
ATOM     19  C   UNL     1      -4.379   1.858  24.290  0.00  0.00    -0.027 A 
ATOM     24  C   UNL     1      -3.946   3.142  23.956  0.00  0.00    +0.045 A 
ATOM     25  C   UNL     1      -5.511   1.689  25.087  0.00  0.00    +0.007 A 
ATOM     30  C   UNL     1      -4.647   4.257  24.419  0.00  0.00    +0.142 A 
ATOM     31  C   UNL     1      -6.211   2.803  25.550  0.00  0.00    +0.023 A 
ATOM     34  C   UNL     1      -5.779   4.087  25.215  0.00  0.00    +0.076 A 
ENDBRANCH  11  19
BRANCH  15  22
ATOM      4  O   UNL     1      -1.917   0.887  20.883  0.00  0.00    -0.249 OA
ATOM     22  C   UNL     1      -2.031   1.919  21.530  0.00  0.00    +0.325 C 
BRANCH  22   3
ATOM      3  O   UNL     1      -2.473   3.121  21.063  0.00  0.00    -0.467 OA
ATOM     35  C   UNL     1      -3.895   3.258  20.966  0.00  0.00    +0.280 C 
ENDBRANCH  22   3
ENDBRANCH  15  22
BRANCH  13   6
ATOM      6  N   UNL     1      -3.564  -2.932  25.197  0.00  0.00    -0.313 NA
ATOM     39  H   UNL     1      -4.573  -3.000  25.331  0.00  0.00    +0.122 HD
BRANCH   6  23
ATOM     23  C   UNL     1      -2.935  -2.704  26.489  0.00  0.00    +0.083 C 
BRANCH  23  28
ATOM     28  C   UNL     1      -2.730  -1.207  26.721  0.00  0.00    +0.037 C 
BRANCH  28  33
ATOM     33  C   UNL     1      -1.241  -0.858  26.779  0.00  0.00    +0.124 C 
BRANCH  33   8
ATOM      8  N   UNL     1      -1.009   0.623  26.617  0.00  0.00    -0.337 N 
ATOM      9  N   UNL     1      -1.453   2.782  26.349  0.00  0.00    -0.244 NA
ATOM     36  C   UNL     1       0.203   1.254  26.592  0.00  0.00    +0.106 A 
ATOM     37  C   UNL     1      -1.973   1.581  26.468  0.00  0.00    +0.199 A 
ATOM     38  C   UNL     1      -0.097   2.586  26.425  0.00  0.00    +0.130 A 
ENDBRANCH  33   8
ENDBRANCH  28  33
ENDBRANCH  23  28
ENDBRANCH   6  23
ENDBRANCH  13   6
TORSDOF 8
ENDMDL
MODEL 3
REMARK VINA RESULT:      15.7      2.707      6.098
REMARK  Name = 44716462
REMARK  9 active torsions:
REMARK  status: ('A' for Active; 'I' for Inactive)
REMARK    1  A    between atoms: O_3  and  C_22
REMARK    2  A    between atoms: O_3  and  C_35
REMARK    3  A    between atoms: N_6  and  C_13
REMARK    4  A    between atoms: N_6  and  C_23
REMARK    5  A    between atoms: N_8  and  C_33
REMARK    6  A    between atoms: C_11  and  C_19
REMARK    7  A    between atoms: C_15  and  C_22
REMARK    8  A    between atoms: C_23  and  C_28
REMARK    9  A    between atoms: C_28  and  C_33
REMARK                            x       y       z     vdW  Elec       q    Type
REMARK                         _______ _______ _______ _____ _____    ______ ____
ROOT
ATOM      5  N   UNL     1      -0.956   1.409  24.636  0.00  0.00    -0.274 NA
ATOM      7  N   UNL     1      -4.233   2.501  26.110  0.00  0.00    -0.356 N 
ATOM     10  C   UNL     1      -1.962   1.379  25.742  0.00  0.00    +0.106 C 
ATOM     11  C   UNL     1       0.138   0.428  24.853  0.00  0.00    +0.090 C 
ATOM     12  C   UNL     1      -2.567  -0.026  25.889  0.00  0.00    +0.044 C 
ATOM     13  C   UNL     1      -1.471  -1.056  26.162  0.00  0.00    +0.057 C 
ATOM     14  C   UNL     1      -0.428  -1.001  25.047  0.00  0.00    +0.042 C 
ATOM     15  C   UNL     1      -0.501   2.787  24.304  0.00  0.00    +0.172 C 
ATOM     16  C   UNL     1      -3.018   2.413  25.491  0.00  0.00    +0.038 A 
ATOM     17  C   UNL     1      -1.662   3.697  23.828  0.00  0.00    +0.068 C 
ATOM     18  C   UNL     1      -2.894   3.487  24.636  0.00  0.00    -0.016 A 
ATOM     20  C   UNL     1      -4.095   4.243  24.711  0.00  0.00    +0.003 A 
ATOM     21  C   UNL     1      -4.919   3.602  25.641  0.00  0.00    +0.047 A 
ATOM     26  C   UNL     1      -4.566   5.413  24.081  0.00  0.00    +0.010 A 
ATOM     27  C   UNL     1      -6.193   4.076  25.972  0.00  0.00    +0.026 A 
ATOM     29  C   UNL     1      -5.839   5.896  24.402  0.00  0.00    +0.001 A 
ATOM     32  C   UNL     1      -6.639   5.237  25.333  0.00  0.00    +0.002 A 
ATOM     40  H   UNL     1      -4.586   1.859  26.807  0.00  0.00    +0.166 HD
ENDROOT
BRANCH  11  19
ATOM      1 CL   UNL     1       4.170   0.202  20.365  0.00  0.00    -0.081 Cl
ATOM      2  F   UNL     1       4.534   1.510  23.001  0.00  0.00    -0.204 F 
ATOM     19  C   UNL     1       1.158   0.371  23.720  0.00  0.00    -0.027 A 
ATOM     24  C   UNL     1       2.406   0.976  23.874  0.00  0.00    +0.045 A 
ATOM     25  C   UNL     1       0.844  -0.285  22.530  0.00  0.00    +0.007 A 
ATOM     30  C   UNL     1       3.340   0.924  22.838  0.00  0.00    +0.142 A 
ATOM     31  C   UNL     1       1.776  -0.338  21.495  0.00  0.00    +0.023 A 
ATOM     34  C   UNL     1       3.024   0.267  21.649  0.00  0.00    +0.076 A 
ENDBRANCH  11  19
BRANCH  15  22
ATOM      4  O   UNL     1       0.298   4.606  25.669  0.00  0.00    -0.249 OA
ATOM     22  C   UNL     1       0.216   3.401  25.473  0.00  0.00    +0.325 C 
BRANCH  22   3
ATOM      3  O   UNL     1       0.742   2.416  26.254  0.00  0.00    -0.467 OA
ATOM     35  C   UNL     1       0.868   2.734  27.644  0.00  0.00    +0.280 C 
ENDBRANCH  22   3
ENDBRANCH  15  22
BRANCH  13   6
ATOM      6  N   UNL     1      -2.052  -2.393  26.266  0.00  0.00    -0.313 NA
ATOM     39  H   UNL     1      -1.456  -2.981  26.850  0.00  0.00    +0.122 HD
BRANCH   6  23
ATOM     23  C   UNL     1      -2.173  -3.006  24.953  0.00  0.00    +0.083 C 
BRANCH  23  28
ATOM     28  C   UNL     1      -3.596  -3.517  24.736  0.00  0.00    +0.037 C 
BRANCH  28  33
ATOM     33  C   UNL     1      -4.200  -2.936  23.455  0.00  0.00    +0.124 C 
BRANCH  33   8
ATOM      8  N   UNL     1      -4.311  -1.434  23.522  0.00  0.00    -0.337 N 
ATOM      9  N   UNL     1      -5.047   0.574  24.120  0.00  0.00    -0.244 NA
ATOM     36  C   UNL     1      -3.540  -0.535  22.840  0.00  0.00    +0.106 A 
ATOM     37  C   UNL     1      -5.200  -0.722  24.277  0.00  0.00    +0.199 A 
ATOM     38  C   UNL     1      -4.014   0.698  23.225  0.00  0.00    +0.130 A 
ENDBRANCH  33   8
ENDBRANCH  28  33
ENDBRANCH  23  28
ENDBRANCH   6  23
ENDBRANCH  13   6
TORSDOF 8
ENDMDL
MODEL 4
REMARK VINA RESULT:      15.9      1.317      2.066
REMARK  Name = 44716462
REMARK  9 active torsions:
REMARK  status: ('A' for Active; 'I' for Inactive)
REMARK    1  A    between atoms: O_3  and  C_22
REMARK    2  A    between atoms: O_3  and  C_35
REMARK    3  A    between atoms: N_6  and  C_13
REMARK    4  A    between atoms: N_6  and  C_23
REMARK    5  A    between atoms: N_8  and  C_33
REMARK    6  A    between atoms: C_11  and  C_19
REMARK    7  A    between atoms: C_15  and  C_22
REMARK    8  A    between atoms: C_23  and  C_28
REMARK    9  A    between atoms: C_28  and  C_33
REMARK                            x       y       z     vdW  Elec       q    Type
REMARK                         _______ _______ _______ _____ _____    ______ ____
ROOT
ATOM      5  N   UNL     1      -1.283   1.427  26.063  0.00  0.00    -0.274 NA
ATOM      7  N   UNL     1      -4.053  -0.244  24.155  0.00  0.00    -0.356 N 
ATOM     10  C   UNL     1      -2.444   1.495  25.123  0.00  0.00    +0.106 C 
ATOM     11  C   UNL     1      -0.788   2.777  26.433  0.00  0.00    +0.090 C 
ATOM     12  C   UNL     1      -3.597   2.304  25.740  0.00  0.00    +0.044 C 
ATOM     13  C   UNL     1      -3.133   3.717  26.089  0.00  0.00    +0.057 C 
ATOM     14  C   UNL     1      -1.926   3.644  27.025  0.00  0.00    +0.042 C 
ATOM     15  C   UNL     1      -0.229   0.477  25.613  0.00  0.00    +0.172 C 
ATOM     16  C   UNL     1      -2.876   0.108  24.754  0.00  0.00    +0.038 A 
ATOM     17  C   UNL     1      -0.750  -0.978  25.498  0.00  0.00    +0.068 C 
ATOM     18  C   UNL     1      -2.113  -1.029  24.900  0.00  0.00    -0.016 A 
ATOM     20  C   UNL     1      -2.866  -2.126  24.402  0.00  0.00    +0.003 A 
ATOM     21  C   UNL     1      -4.080  -1.606  23.942  0.00  0.00    +0.047 A 
ATOM     26  C   UNL     1      -2.638  -3.513  24.292  0.00  0.00    +0.010 A 
ATOM     27  C   UNL     1      -5.078  -2.409  23.378  0.00  0.00    +0.026 A 
ATOM     29  C   UNL     1      -3.628  -4.327  23.732  0.00  0.00    +0.001 A 
ATOM     32  C   UNL     1      -4.829  -3.781  23.282  0.00  0.00    +0.002 A 
ATOM     40  H   UNL     1      -4.799   0.391  23.904  0.00  0.00    +0.166 HD
ENDROOT
BRANCH  11  19
ATOM      1 CL   UNL     1       3.742   2.737  30.426  0.00  0.00    -0.081 Cl
ATOM      2  F   UNL     1       0.896   2.119  30.979  0.00  0.00    -0.204 F 
ATOM     19  C   UNL     1       0.356   2.766  27.443  0.00  0.00    -0.027 A 
ATOM     24  C   UNL     1       0.106   2.442  28.777  0.00  0.00    +0.045 A 
ATOM     25  C   UNL     1       1.652   3.079  27.034  0.00  0.00    +0.007 A 
ATOM     30  C   UNL     1       1.152   2.431  29.701  0.00  0.00    +0.142 A 
ATOM     31  C   UNL     1       2.698   3.069  27.956  0.00  0.00    +0.023 A 
ATOM     34  C   UNL     1       2.448   2.745  29.290  0.00  0.00    +0.076 A 
ENDBRANCH  11  19
BRANCH  15  22
ATOM      4  O   UNL     1       0.793   2.067  24.117  0.00  0.00    -0.249 OA
ATOM     22  C   UNL     1       0.373   0.935  24.315  0.00  0.00    +0.325 C 
BRANCH  22   3
ATOM      3  O   UNL     1       0.374  -0.095  23.424  0.00  0.00    -0.467 OA
ATOM     35  C   UNL     1       1.545  -0.203  22.608  0.00  0.00    +0.280 C 
ENDBRANCH  22   3
ENDBRANCH  15  22
BRANCH  13   6
ATOM      6  N   UNL     1      -4.225   4.467  26.706  0.00  0.00    -0.313 NA
ATOM     39  H   UNL     1      -4.604   3.938  27.492  0.00  0.00    +0.122 HD
BRANCH   6  23
ATOM     23  C   UNL     1      -5.291   4.708  25.746  0.00  0.00    +0.083 C 
BRANCH  23  28
ATOM     28  C   UNL     1      -5.108   3.819  24.517  0.00  0.00    +0.037 C 
BRANCH  28  33
ATOM     33  C   UNL     1      -4.218   4.499  23.473  0.00  0.00    +0.124 C 
BRANCH  33   8
ATOM      8  N   UNL     1      -3.418   3.495  22.683  0.00  0.00    -0.337 N 
ATOM      9  N   UNL     1      -1.702   2.235  22.051  0.00  0.00    -0.244 NA
ATOM     36  C   UNL     1      -3.859   2.775  21.608  0.00  0.00    +0.106 A 
ATOM     37  C   UNL     1      -2.119   3.136  22.912  0.00  0.00    +0.199 A 
ATOM     38  C   UNL     1      -2.781   2.006  21.235  0.00  0.00    +0.130 A 
ENDBRANCH  33   8
ENDBRANCH  28  33
ENDBRANCH  23  28
ENDBRANCH   6  23
ENDBRANCH  13   6
TORSDOF 8
ENDMDL
MODEL 5
REMARK VINA RESULT:      16.3      3.787      6.427
REMARK  Name = 44716462
REMARK  9 active torsions:
REMARK  status: ('A' for Active; 'I' for Inactive)
REMARK    1  A    between atoms: O_3  and  C_22
REMARK    2  A    between atoms: O_3  and  C_35
REMARK    3  A    between atoms: N_6  and  C_13
REMARK    4  A    between atoms: N_6  and  C_23
REMARK    5  A    between atoms: N_8  and  C_33
REMARK    6  A    between atoms: C_11  and  C_19
REMARK    7  A    between atoms: C_15  and  C_22
REMARK    8  A    between atoms: C_23  and  C_28
REMARK    9  A    between atoms: C_28  and  C_33
REMARK                            x       y       z     vdW  Elec       q    Type
REMARK                         _______ _______ _______ _____ _____    ______ ____
ROOT
ATOM      5  N   UNL     1      -1.178  -0.072  23.973  0.00  0.00    -0.274 NA
ATOM      7  N   UNL     1       2.160   1.629  23.711  0.00  0.00    -0.356 N 
ATOM     10  C   UNL     1      -0.284   1.093  24.252  0.00  0.00    +0.106 C 
ATOM     11  C   UNL     1      -2.583   0.198  24.370  0.00  0.00    +0.090 C 
ATOM     12  C   UNL     1      -0.782   2.349  23.520  0.00  0.00    +0.044 C 
ATOM     13  C   UNL     1      -2.212   2.684  23.943  0.00  0.00    +0.057 C 
ATOM     14  C   UNL     1      -3.117   1.481  23.686  0.00  0.00    +0.042 C 
ATOM     15  C   UNL     1      -0.625  -1.360  24.473  0.00  0.00    +0.172 C 
ATOM     16  C   UNL     1       1.124   0.751  23.869  0.00  0.00    +0.038 A 
ATOM     17  C   UNL     1       0.732  -1.718  23.818  0.00  0.00    +0.068 C 
ATOM     18  C   UNL     1       1.612  -0.524  23.684  0.00  0.00    -0.016 A 
ATOM     20  C   UNL     1       2.993  -0.420  23.366  0.00  0.00    +0.003 A 
ATOM     21  C   UNL     1       3.311   0.941  23.388  0.00  0.00    +0.047 A 
ATOM     26  C   UNL     1       4.010  -1.349  23.064  0.00  0.00    +0.010 A 
ATOM     27  C   UNL     1       4.600   1.418  23.121  0.00  0.00    +0.026 A 
ATOM     29  C   UNL     1       5.301  -0.884  22.793  0.00  0.00    +0.001 A 
ATOM     32  C   UNL     1       5.590   0.479  22.822  0.00  0.00    +0.002 A 
ATOM     40  H   UNL     1       2.101   2.633  23.811  0.00  0.00    +0.166 HD
ENDROOT
BRANCH  11  19
ATOM      1 CL   UNL     1      -6.421  -4.283  23.085  0.00  0.00    -0.081 Cl
ATOM      2  F   UNL     1      -3.484  -4.514  23.414  0.00  0.00    -0.204 F 
ATOM     19  C   UNL     1      -3.552  -0.936  24.046  0.00  0.00    -0.027 A 
ATOM     24  C   UNL     1      -3.073  -2.235  23.874  0.00  0.00    +0.045 A 
ATOM     25  C   UNL     1      -4.916  -0.674  23.922  0.00  0.00    +0.007 A 
ATOM     30  C   UNL     1      -3.959  -3.272  23.578  0.00  0.00    +0.142 A 
ATOM     31  C   UNL     1      -5.802  -1.709  23.627  0.00  0.00    +0.023 A 
ATOM     34  C   UNL     1      -5.323  -3.009  23.454  0.00  0.00    +0.076 A 
ENDBRANCH  11  19
BRANCH  15  22
ATOM      4  O   UNL     1       0.377  -1.904  26.598  0.00  0.00    -0.249 OA
ATOM     22  C   UNL     1      -0.507  -1.335  25.971  0.00  0.00    +0.325 C 
BRANCH  22   3
ATOM      3  O   UNL     1      -1.521  -0.592  26.497  0.00  0.00    -0.467 OA
ATOM     35  C   UNL     1      -2.569  -1.338  27.125  0.00  0.00    +0.280 C 
ENDBRANCH  22   3
ENDBRANCH  15  22
BRANCH  13   6
ATOM      6  N   UNL     1      -2.689   3.860  23.217  0.00  0.00    -0.313 NA
ATOM     39  H   UNL     1      -1.991   4.146  22.531  0.00  0.00    +0.122 HD
BRANCH   6  23
ATOM     23  C   UNL     1      -2.930   4.967  24.130  0.00  0.00    +0.083 C 
BRANCH  23  28
ATOM     28  C   UNL     1      -2.366   4.646  25.513  0.00  0.00    +0.037 C 
BRANCH  28  33
ATOM     33  C   UNL     1      -3.481   4.576  26.560  0.00  0.00    +0.124 C 
BRANCH  33   8
ATOM      8  N   UNL     1      -4.592   3.653  26.130  0.00  0.00    -0.337 N 
ATOM      9  N   UNL     1      -5.799   1.799  25.935  0.00  0.00    -0.244 NA
ATOM     36  C   UNL     1      -5.653   3.979  25.332  0.00  0.00    +0.106 A 
ATOM     37  C   UNL     1      -4.723   2.334  26.467  0.00  0.00    +0.199 A 
ATOM     38  C   UNL     1      -6.383   2.819  25.226  0.00  0.00    +0.130 A 
ENDBRANCH  33   8
ENDBRANCH  28  33
ENDBRANCH  23  28
ENDBRANCH   6  23
ENDBRANCH  13   6
TORSDOF 8
ENDMDL
MODEL 6
REMARK VINA RESULT:      16.8      2.784      5.796
REMARK  Name = 44716462
REMARK  9 active torsions:
REMARK  status: ('A' for Active; 'I' for Inactive)
REMARK    1  A    between atoms: O_3  and  C_22
REMARK    2  A    between atoms: O_3  and  C_35
REMARK    3  A    between atoms: N_6  and  C_13
REMARK    4  A    between atoms: N_6  and  C_23
REMARK    5  A    between atoms: N_8  and  C_33
REMARK    6  A    between atoms: C_11  and  C_19
REMARK    7  A    between atoms: C_15  and  C_22
REMARK    8  A    between atoms: C_23  and  C_28
REMARK    9  A    between atoms: C_28  and  C_33
REMARK                            x       y       z     vdW  Elec       q    Type
REMARK                         _______ _______ _______ _____ _____    ______ ____
ROOT
ATOM      5  N   UNL     1      -0.074   0.982  24.245  0.00  0.00    -0.274 NA
ATOM      7  N   UNL     1      -3.537   2.421  24.444  0.00  0.00    -0.356 N 
ATOM     10  C   UNL     1      -1.502   0.886  24.676  0.00  0.00    +0.106 C 
ATOM     11  C   UNL     1       0.667  -0.281  24.489  0.00  0.00    +0.090 C 
ATOM     12  C   UNL     1      -2.215  -0.265  23.947  0.00  0.00    +0.044 C 
ATOM     13  C   UNL     1      -1.504  -1.591  24.218  0.00  0.00    +0.057 C 
ATOM     14  C   UNL     1      -0.037  -1.479  23.805  0.00  0.00    +0.042 C 
ATOM     15  C   UNL     1       0.602   2.209  24.749  0.00  0.00    +0.172 C 
ATOM     16  C   UNL     1      -2.189   2.198  24.443  0.00  0.00    +0.038 A 
ATOM     17  C   UNL     1      -0.069   3.509  24.239  0.00  0.00    +0.068 C 
ATOM     18  C   UNL     1      -1.555   3.407  24.260  0.00  0.00    -0.016 A 
ATOM     20  C   UNL     1      -2.555   4.405  24.108  0.00  0.00    +0.003 A 
ATOM     21  C   UNL     1      -3.790   3.759  24.226  0.00  0.00    +0.047 A 
ATOM     26  C   UNL     1      -2.537   5.796  23.885  0.00  0.00    +0.010 A 
ATOM     27  C   UNL     1      -5.009   4.441  24.131  0.00  0.00    +0.026 A 
ATOM     29  C   UNL     1      -3.748   6.489  23.785  0.00  0.00    +0.001 A 
ATOM     32  C   UNL     1      -4.964   5.820  23.907  0.00  0.00    +0.002 A 
ATOM     40  H   UNL     1      -4.250   1.718  24.581  0.00  0.00    +0.166 HD
ENDROOT
BRANCH  11  19
ATOM      1 CL   UNL     1       6.393  -0.186  22.577  0.00  0.00    -0.081 Cl
ATOM      2  F   UNL     1       5.061  -2.387  24.050  0.00  0.00    -0.204 F 
ATOM     19  C   UNL     1       2.114  -0.259  24.006  0.00  0.00    -0.027 A 
ATOM     24  C   UNL     1       2.948  -1.351  24.250  0.00  0.00    +0.045 A 
ATOM     25  C   UNL     1       2.604   0.852  23.320  0.00  0.00    +0.007 A 
ATOM     30  C   UNL     1       4.272  -1.331  23.807  0.00  0.00    +0.142 A 
ATOM     31  C   UNL     1       3.926   0.873  22.878  0.00  0.00    +0.023 A 
ATOM     34  C   UNL     1       4.760  -0.219  23.122  0.00  0.00    +0.076 A 
ENDBRANCH  11  19
BRANCH  15  22
ATOM      4  O   UNL     1      -0.079   1.539  26.962  0.00  0.00    -0.249 OA
ATOM     22  C   UNL     1       0.670   2.194  26.249  0.00  0.00    +0.325 C 
BRANCH  22   3
ATOM      3  O   UNL     1       1.679   3.008  26.669  0.00  0.00    -0.467 OA
ATOM     35  C   UNL     1       1.980   2.945  28.066  0.00  0.00    +0.280 C 
ENDBRANCH  22   3
ENDBRANCH  15  22
BRANCH  13   6
ATOM      6  N   UNL     1      -2.168  -2.673  23.494  0.00  0.00    -0.313 NA
ATOM     39  H   UNL     1      -2.403  -2.362  22.551  0.00  0.00    +0.122 HD
BRANCH   6  23
ATOM     23  C   UNL     1      -3.390  -3.074  24.174  0.00  0.00    +0.083 C 
BRANCH  23  28
ATOM     28  C   UNL     1      -3.971  -1.898  24.957  0.00  0.00    +0.037 C 
BRANCH  28  33
ATOM     33  C   UNL     1      -4.814  -0.996  24.052  0.00  0.00    +0.124 C 
BRANCH  33   8
ATOM      8  N   UNL     1      -5.417   0.154  24.817  0.00  0.00    -0.337 N 
ATOM      9  N   UNL     1      -6.701   1.910  25.266  0.00  0.00    -0.244 NA
ATOM     36  C   UNL     1      -5.100   0.533  26.091  0.00  0.00    +0.106 A 
ATOM     37  C   UNL     1      -6.382   1.009  24.363  0.00  0.00    +0.199 A 
ATOM     38  C   UNL     1      -5.905   1.619  26.345  0.00  0.00    +0.130 A 
ENDBRANCH  33   8
ENDBRANCH  28  33
ENDBRANCH  23  28
ENDBRANCH   6  23
ENDBRANCH  13   6
TORSDOF 8
ENDMDL
