MODEL 1
REMARK VINA RESULT:       6.9      0.000      0.000
REMARK  Name = 40777670
REMARK  7 active torsions:
REMARK  status: ('A' for Active; 'I' for Inactive)
REMARK    1  A    between atoms: N_5  and  C_9
REMARK    2  A    between atoms: N_6  and  C_14
REMARK    3  A    between atoms: N_7  and  C_26
REMARK    4  A    between atoms: C_10  and  C_18
REMARK    5  A    between atoms: C_22  and  C_24
REMARK    6  A    between atoms: C_23  and  C_25
REMARK    7  A    between atoms: C_31  and  C_32
REMARK                            x       y       z     vdW  Elec       q    Type
REMARK                         _______ _______ _______ _____ _____    ______ ____
ROOT
ATOM     10  C   UNL     1      -2.757  -0.023  24.882  0.00  0.00    +0.047 C 
ATOM     13  C   UNL     1      -3.850   0.080  23.794  0.00  0.00    +0.039 C 
ATOM     14  C   UNL     1      -5.198  -0.016  24.522  0.00  0.00    +0.098 C 
ATOM     19  C   UNL     1      -3.493  -0.827  25.923  0.00  0.00    -0.021 C 
ATOM     20  C   UNL     1      -4.818  -0.806  25.733  0.00  0.00    -0.009 C 
ENDROOT
BRANCH  10  18
ATOM      7  N   UNL     1       0.688  -0.871  23.946  0.00  0.00    -0.236 N 
ATOM      8  N   UNL     1       0.144  -2.071  23.681  0.00  0.00    -0.171 NA
ATOM     18  C   UNL     1      -1.420  -0.592  24.444  0.00  0.00    +0.003 A 
ATOM     22  C   UNL     1      -0.207   0.050  24.407  0.00  0.00    +0.046 A 
ATOM     23  C   UNL     1      -1.144  -1.894  23.988  0.00  0.00    +0.064 A 
ATOM     24  C   UNL     1       0.165   1.434  24.764  0.00  0.00    +0.066 C 
ATOM     25  C   UNL     1      -2.088  -3.015  23.826  0.00  0.00    +0.068 C 
BRANCH   7  26
ATOM     26  C   UNL     1       2.053  -0.670  23.743  0.00  0.00    +0.066 A 
ATOM     27  C   UNL     1       2.968  -1.647  24.132  0.00  0.00    +0.028 A 
ATOM     28  C   UNL     1       2.503   0.512  23.154  0.00  0.00    +0.028 A 
ATOM     29  C   UNL     1       4.334  -1.443  23.932  0.00  0.00    +0.014 A 
ATOM     30  C   UNL     1       3.868   0.715  22.953  0.00  0.00    +0.014 A 
ATOM     31  C   UNL     1       4.783  -0.263  23.343  0.00  0.00    +0.055 A 
BRANCH  31  32
ATOM      1  F   UNL     1       7.036  -0.831  23.914  0.00  0.00    -0.166 F 
ATOM      2  F   UNL     1       6.627   1.239  23.387  0.00  0.00    -0.166 F 
ATOM      3  F   UNL     1       6.651  -0.296  21.847  0.00  0.00    -0.166 F 
ATOM     32  C   UNL     1       6.243  -0.045  23.127  0.00  0.00    +0.417 C 
ENDBRANCH  31  32
ENDBRANCH   7  26
ENDBRANCH  10  18
BRANCH  14   6
ATOM      4  O   UNL     1      -3.723   2.460  24.769  0.00  0.00    -0.253 OA
ATOM      5  N   UNL     1      -5.696   3.545  25.330  0.00  0.00    -0.297 N 
ATOM      6  N   UNL     1      -5.728   1.294  24.880  0.00  0.00    -0.293 N 
ATOM     21  C   UNL     1      -4.937   2.435  24.974  0.00  0.00    +0.300 C 
ATOM     33  H   UNL     1      -6.678   3.404  25.548  0.00  0.00    +0.151 HD
ATOM     34  H   UNL     1      -6.715   1.372  25.106  0.00  0.00    +0.151 HD
BRANCH   5   9
ATOM      9  C   UNL     1      -5.124   4.863  25.498  0.00  0.00    +0.074 C 
ATOM     11  C   UNL     1      -4.434   5.332  24.212  0.00  0.00    +0.022 C 
ATOM     12  C   UNL     1      -4.163   4.899  26.690  0.00  0.00    +0.022 C 
ATOM     15  C   UNL     1      -3.131   4.579  23.941  0.00  0.00    +0.002 C 
ATOM     16  C   UNL     1      -2.861   4.147  26.414  0.00  0.00    +0.002 C 
ATOM     17  C   UNL     1      -2.186   4.638  25.136  0.00  0.00    +0.000 C 
ENDBRANCH   5   9
ENDBRANCH  14   6
TORSDOF 5
ENDMDL
