MODEL 1
REMARK VINA RESULT:      -3.8      0.000      0.000
REMARK  Name = 75536604
REMARK  9 active torsions:
REMARK  status: ('A' for Active; 'I' for Inactive)
REMARK    1  A    between atoms: S_1  and  C_20
REMARK    2  A    between atoms: S_1  and  C_24
REMARK    3  A    between atoms: O_4  and  C_11
REMARK    4  A    between atoms: N_8  and  C_10
REMARK    5  A    between atoms: N_8  and  C_15
REMARK    6  A    between atoms: N_9  and  C_14
REMARK    7  A    between atoms: C_12  and  C_14
REMARK    8  A    between atoms: C_15  and  C_16
REMARK    9  A    between atoms: C_17  and  C_23
REMARK                            x       y       z     vdW  Elec       q    Type
REMARK                         _______ _______ _______ _____ _____    ______ ____
ROOT
ATOM      3  O   UNL     1      -0.097   4.513  24.576  0.00  0.00    -0.371 OA
ATOM     10  C   UNL     1      -2.375   4.419  25.211  0.00  0.00    +0.111 C 
ATOM     11  C   UNL     1      -1.700   3.152  25.705  0.00  0.00    +0.164 C 
ATOM     12  C   UNL     1      -0.307   3.179  25.075  0.00  0.00    +0.165 C 
ATOM     13  C   UNL     1      -1.187   5.342  24.997  0.00  0.00    +0.181 C 
ENDROOT
BRANCH  11   4
ATOM      4  O   UNL     1      -1.572   3.251  27.125  0.00  0.00    -0.388 OA
ATOM     29  H   UNL     1      -0.675   2.957  27.357  0.00  0.00    +0.210 HD
ENDBRANCH  11   4
BRANCH  10   8
ATOM      8  N   UNL     1      -3.089   4.196  23.955  0.00  0.00    -0.305 NA
ATOM     28  H   UNL     1      -3.311   5.084  23.508  0.00  0.00    +0.123 HD
BRANCH   8  15
ATOM     15  C   UNL     1      -4.328   3.459  24.181  0.00  0.00    +0.116 C 
BRANCH  15  16
ATOM     16  C   UNL     1      -4.088   1.975  24.275  0.00  0.00    -0.033 A 
ATOM     18  C   UNL     1      -3.317   1.331  23.308  0.00  0.00    +0.007 A 
ATOM     19  C   UNL     1      -4.637   1.246  25.330  0.00  0.00    +0.007 A 
ATOM     20  C   UNL     1      -3.643  -0.773  24.449  0.00  0.00    +0.088 A 
ATOM     21  C   UNL     1      -3.095  -0.043  23.395  0.00  0.00    +0.027 A 
ATOM     22  C   UNL     1      -4.415  -0.128  25.417  0.00  0.00    +0.027 A 
BRANCH  20   1
ATOM      1  S   UNL     1      -3.362  -2.492  24.559  0.00  0.00    -0.006 S 
ATOM      6  O   UNL     1      -3.436  -2.894  25.957  0.00  0.00    -0.170 OA
ATOM      7  O   UNL     1      -4.208  -3.150  23.573  0.00  0.00    -0.170 OA
ATOM     24  C   UNL     1      -1.670  -2.697  24.051  0.00  0.00    +0.200 C 
ENDBRANCH  20   1
ENDBRANCH  15  16
ENDBRANCH   8  15
ENDBRANCH  10   8
BRANCH  12  14
ATOM     14  C   UNL     1      -0.144   2.205  23.919  0.00  0.00    +0.138 C 
BRANCH  14   9
ATOM      5  O   UNL     1       0.678  -0.263  22.702  0.00  0.00    -0.270 OA
ATOM      9  N   UNL     1       1.190   1.680  23.863  0.00  0.00    -0.308 N 
ATOM     17  C   UNL     1       1.499   0.469  23.250  0.00  0.00    +0.251 C 
ATOM     30  H   UNL     1       1.911   2.191  24.361  0.00  0.00    +0.149 HD
BRANCH  17  23
ATOM      2  S   UNL     1       4.129   1.131  22.740  0.00  0.00    -0.092 S 
ATOM     23  C   UNL     1       2.923   0.052  23.301  0.00  0.00    +0.074 A 
ATOM     25  C   UNL     1       3.460  -1.132  23.756  0.00  0.00    +0.021 A 
ATOM     26  C   UNL     1       4.881  -1.154  23.642  0.00  0.00    +0.008 A 
ATOM     27  C   UNL     1       5.374   0.014  23.104  0.00  0.00    +0.046 A 
ENDBRANCH  17  23
ENDBRANCH  14   9
ENDBRANCH  12  14
TORSDOF 8
ENDMDL
MODEL 2
REMARK VINA RESULT:      -2.5      2.446      4.893
REMARK  Name = 75536604
REMARK  9 active torsions:
REMARK  status: ('A' for Active; 'I' for Inactive)
REMARK    1  A    between atoms: S_1  and  C_20
REMARK    2  A    between atoms: S_1  and  C_24
REMARK    3  A    between atoms: O_4  and  C_11
REMARK    4  A    between atoms: N_8  and  C_10
REMARK    5  A    between atoms: N_8  and  C_15
REMARK    6  A    between atoms: N_9  and  C_14
REMARK    7  A    between atoms: C_12  and  C_14
REMARK    8  A    between atoms: C_15  and  C_16
REMARK    9  A    between atoms: C_17  and  C_23
REMARK                            x       y       z     vdW  Elec       q    Type
REMARK                         _______ _______ _______ _____ _____    ______ ____
ROOT
ATOM      3  O   UNL     1      -1.961  -0.607  25.800  0.00  0.00    -0.371 OA
ATOM     10  C   UNL     1      -3.308  -2.210  24.696  0.00  0.00    +0.111 C 
ATOM     11  C   UNL     1      -1.855  -2.527  24.387  0.00  0.00    +0.164 C 
ATOM     12  C   UNL     1      -1.069  -1.339  24.940  0.00  0.00    +0.165 C 
ATOM     13  C   UNL     1      -3.180  -1.347  25.940  0.00  0.00    +0.181 C 
ENDROOT
BRANCH  11   4
ATOM      4  O   UNL     1      -1.501  -3.703  25.117  0.00  0.00    -0.388 OA
ATOM     29  H   UNL     1      -2.187  -3.844  25.791  0.00  0.00    +0.210 HD
ENDBRANCH  11   4
BRANCH  10   8
ATOM      8  N   UNL     1      -3.940  -1.462  23.610  0.00  0.00    -0.305 NA
ATOM     28  H   UNL     1      -3.239  -0.950  23.075  0.00  0.00    +0.123 HD
BRANCH   8  15
ATOM     15  C   UNL     1      -4.922  -0.517  24.128  0.00  0.00    +0.116 C 
BRANCH  15  16
ATOM     16  C   UNL     1      -4.324   0.847  24.350  0.00  0.00    -0.033 A 
ATOM     18  C   UNL     1      -4.811   1.664  25.370  0.00  0.00    +0.007 A 
ATOM     19  C   UNL     1      -3.282   1.292  23.537  0.00  0.00    +0.007 A 
ATOM     20  C   UNL     1      -3.216   3.373  24.763  0.00  0.00    +0.088 A 
ATOM     21  C   UNL     1      -4.257   2.927  25.576  0.00  0.00    +0.027 A 
ATOM     22  C   UNL     1      -2.728   2.556  23.742  0.00  0.00    +0.027 A 
BRANCH  20   1
ATOM      1  S   UNL     1      -2.521   4.953  25.023  0.00  0.00    -0.006 S 
ATOM      6  O   UNL     1      -2.874   5.815  23.903  0.00  0.00    -0.170 OA
ATOM      7  O   UNL     1      -2.842   5.367  26.382  0.00  0.00    -0.170 OA
ATOM     24  C   UNL     1      -0.765   4.684  24.935  0.00  0.00    +0.200 C 
ENDBRANCH  20   1
ENDBRANCH  15  16
ENDBRANCH   8  15
ENDBRANCH  10   8
BRANCH  12  14
ATOM     14  C   UNL     1      -0.558  -0.393  23.864  0.00  0.00    +0.138 C 
BRANCH  14   9
ATOM      5  O   UNL     1       1.295  -0.373  21.671  0.00  0.00    -0.270 OA
ATOM      9  N   UNL     1       0.864  -0.228  23.947  0.00  0.00    -0.308 N 
ATOM     17  C   UNL     1       1.689  -0.231  22.826  0.00  0.00    +0.251 C 
ATOM     30  H   UNL     1       1.273  -0.182  24.874  0.00  0.00    +0.149 HD
BRANCH  17  23
ATOM      2  S   UNL     1       4.015  -1.382  23.765  0.00  0.00    -0.092 S 
ATOM     23  C   UNL     1       3.144  -0.075  23.082  0.00  0.00    +0.074 A 
ATOM     25  C   UNL     1       3.952   1.015  22.842  0.00  0.00    +0.021 A 
ATOM     26  C   UNL     1       5.304   0.774  23.225  0.00  0.00    +0.008 A 
ATOM     27  C   UNL     1       5.476  -0.491  23.743  0.00  0.00    +0.046 A 
ENDBRANCH  17  23
ENDBRANCH  14   9
ENDBRANCH  12  14
TORSDOF 8
ENDMDL
MODEL 3
REMARK VINA RESULT:      -2.4      2.239      5.199
REMARK  Name = 75536604
REMARK  9 active torsions:
REMARK  status: ('A' for Active; 'I' for Inactive)
REMARK    1  A    between atoms: S_1  and  C_20
REMARK    2  A    between atoms: S_1  and  C_24
REMARK    3  A    between atoms: O_4  and  C_11
REMARK    4  A    between atoms: N_8  and  C_10
REMARK    5  A    between atoms: N_8  and  C_15
REMARK    6  A    between atoms: N_9  and  C_14
REMARK    7  A    between atoms: C_12  and  C_14
REMARK    8  A    between atoms: C_15  and  C_16
REMARK    9  A    between atoms: C_17  and  C_23
REMARK                            x       y       z     vdW  Elec       q    Type
REMARK                         _______ _______ _______ _____ _____    ______ ____
ROOT
ATOM      3  O   UNL     1      -4.738   2.659  26.847  0.00  0.00    -0.371 OA
ATOM     10  C   UNL     1      -4.285   4.550  25.498  0.00  0.00    +0.111 C 
ATOM     11  C   UNL     1      -5.663   4.032  25.128  0.00  0.00    +0.164 C 
ATOM     12  C   UNL     1      -5.793   2.701  25.868  0.00  0.00    +0.165 C 
ATOM     13  C   UNL     1      -4.077   3.929  26.869  0.00  0.00    +0.181 C 
ENDROOT
BRANCH  11   4
ATOM      4  O   UNL     1      -6.628   4.950  25.645  0.00  0.00    -0.388 OA
ATOM     29  H   UNL     1      -7.374   4.428  25.984  0.00  0.00    +0.210 HD
ENDBRANCH  11   4
BRANCH  10   8
ATOM      8  N   UNL     1      -3.264   4.086  24.560  0.00  0.00    -0.305 NA
ATOM     28  H   UNL     1      -3.488   3.150  24.224  0.00  0.00    +0.123 HD
BRANCH   8  15
ATOM     15  C   UNL     1      -1.948   4.059  25.189  0.00  0.00    +0.116 C 
BRANCH  15  16
ATOM     16  C   UNL     1      -1.057   3.010  24.578  0.00  0.00    -0.033 A 
ATOM     18  C   UNL     1      -1.487   2.294  23.461  0.00  0.00    +0.007 A 
ATOM     19  C   UNL     1       0.199   2.756  25.129  0.00  0.00    +0.007 A 
ATOM     20  C   UNL     1       0.594   1.067  23.447  0.00  0.00    +0.088 A 
ATOM     21  C   UNL     1      -0.662   1.323  22.896  0.00  0.00    +0.027 A 
ATOM     22  C   UNL     1       1.025   1.784  24.564  0.00  0.00    +0.027 A 
BRANCH  20   1
ATOM      1  S   UNL     1       1.629  -0.146  22.736  0.00  0.00    -0.006 S 
ATOM      6  O   UNL     1       1.826  -1.221  23.699  0.00  0.00    -0.170 OA
ATOM      7  O   UNL     1       1.115  -0.452  21.408  0.00  0.00    -0.170 OA
ATOM     24  C   UNL     1       3.197   0.669  22.541  0.00  0.00    +0.200 C 
ENDBRANCH  20   1
ENDBRANCH  15  16
ENDBRANCH   8  15
ENDBRANCH  10   8
BRANCH  12  14
ATOM     14  C   UNL     1      -5.655   1.486  24.964  0.00  0.00    +0.138 C 
BRANCH  14   9
ATOM      5  O   UNL     1      -4.926  -1.130  24.031  0.00  0.00    -0.270 OA
ATOM      9  N   UNL     1      -4.400   0.823  25.169  0.00  0.00    -0.308 N 
ATOM     17  C   UNL     1      -4.132  -0.452  24.679  0.00  0.00    +0.251 C 
ATOM     30  H   UNL     1      -3.720   1.288  25.762  0.00  0.00    +0.149 HD
BRANCH  17  23
ATOM      2  S   UNL     1      -2.324  -2.504  24.304  0.00  0.00    -0.092 S 
ATOM     23  C   UNL     1      -2.794  -1.012  25.001  0.00  0.00    +0.074 A 
ATOM     25  C   UNL     1      -1.814  -0.491  25.817  0.00  0.00    +0.021 A 
ATOM     26  C   UNL     1      -0.662  -1.328  25.871  0.00  0.00    +0.008 A 
ATOM     27  C   UNL     1      -0.807  -2.457  25.095  0.00  0.00    +0.046 A 
ENDBRANCH  17  23
ENDBRANCH  14   9
ENDBRANCH  12  14
TORSDOF 8
ENDMDL
MODEL 4
REMARK VINA RESULT:      -2.3      2.197      6.283
REMARK  Name = 75536604
REMARK  9 active torsions:
REMARK  status: ('A' for Active; 'I' for Inactive)
REMARK    1  A    between atoms: S_1  and  C_20
REMARK    2  A    between atoms: S_1  and  C_24
REMARK    3  A    between atoms: O_4  and  C_11
REMARK    4  A    between atoms: N_8  and  C_10
REMARK    5  A    between atoms: N_8  and  C_15
REMARK    6  A    between atoms: N_9  and  C_14
REMARK    7  A    between atoms: C_12  and  C_14
REMARK    8  A    between atoms: C_15  and  C_16
REMARK    9  A    between atoms: C_17  and  C_23
REMARK                            x       y       z     vdW  Elec       q    Type
REMARK                         _______ _______ _______ _____ _____    ______ ____
ROOT
ATOM      3  O   UNL     1      -3.623   4.254  26.405  0.00  0.00    -0.371 OA
ATOM     10  C   UNL     1      -2.397   3.433  24.553  0.00  0.00    +0.111 C 
ATOM     11  C   UNL     1      -3.853   3.548  24.136  0.00  0.00    +0.164 C 
ATOM     12  C   UNL     1      -4.606   3.866  25.427  0.00  0.00    +0.165 C 
ATOM     13  C   UNL     1      -2.346   4.352  25.762  0.00  0.00    +0.181 C 
ENDROOT
BRANCH  11   4
ATOM      4  O   UNL     1      -3.964   4.659  23.245  0.00  0.00    -0.388 OA
ATOM     29  H   UNL     1      -3.684   5.452  23.732  0.00  0.00    +0.210 HD
ENDBRANCH  11   4
BRANCH  10   8
ATOM      8  N   UNL     1      -2.050   2.064  24.930  0.00  0.00    -0.305 NA
ATOM     28  H   UNL     1      -1.227   2.057  25.531  0.00  0.00    +0.123 HD
BRANCH   8  15
ATOM     15  C   UNL     1      -1.781   1.248  23.752  0.00  0.00    +0.116 C 
BRANCH  15  16
ATOM     16  C   UNL     1      -0.307   1.001  23.567  0.00  0.00    -0.033 A 
ATOM     18  C   UNL     1       0.620   1.938  24.024  0.00  0.00    +0.007 A 
ATOM     19  C   UNL     1       0.131  -0.166  22.939  0.00  0.00    +0.007 A 
ATOM     20  C   UNL     1       2.423   0.544  23.224  0.00  0.00    +0.088 A 
ATOM     21  C   UNL     1       1.984   1.709  23.852  0.00  0.00    +0.027 A 
ATOM     22  C   UNL     1       1.496  -0.394  22.768  0.00  0.00    +0.027 A 
BRANCH  20   1
ATOM      1  S   UNL     1       4.132   0.256  23.013  0.00  0.00    -0.006 S 
ATOM      6  O   UNL     1       4.426   0.181  21.589  0.00  0.00    -0.170 OA
ATOM      7  O   UNL     1       4.854   1.204  23.851  0.00  0.00    -0.170 OA
ATOM     24  C   UNL     1       4.393  -1.372  23.682  0.00  0.00    +0.200 C 
ENDBRANCH  20   1
ENDBRANCH  15  16
ENDBRANCH   8  15
ENDBRANCH  10   8
BRANCH  12  14
ATOM     14  C   UNL     1      -5.390   2.685  25.980  0.00  0.00    +0.138 C 
BRANCH  14   9
ATOM      5  O   UNL     1      -6.268   0.553  24.269  0.00  0.00    -0.270 OA
ATOM      9  N   UNL     1      -4.708   1.447  25.737  0.00  0.00    -0.308 N 
ATOM     17  C   UNL     1      -5.210   0.465  24.888  0.00  0.00    +0.251 C 
ATOM     30  H   UNL     1      -3.865   1.268  26.271  0.00  0.00    +0.149 HD
BRANCH  17  23
ATOM      2  S   UNL     1      -3.233  -1.131  25.967  0.00  0.00    -0.092 S 
ATOM     23  C   UNL     1      -4.398  -0.773  24.763  0.00  0.00    +0.074 A 
ATOM     25  C   UNL     1      -4.436  -1.735  23.778  0.00  0.00    +0.021 A 
ATOM     26  C   UNL     1      -3.495  -2.780  24.014  0.00  0.00    +0.008 A 
ATOM     27  C   UNL     1      -2.775  -2.575  25.170  0.00  0.00    +0.046 A 
ENDBRANCH  17  23
ENDBRANCH  14   9
ENDBRANCH  12  14
TORSDOF 8
ENDMDL
MODEL 5
REMARK VINA RESULT:      -0.6      2.823      5.698
REMARK  Name = 75536604
REMARK  9 active torsions:
REMARK  status: ('A' for Active; 'I' for Inactive)
REMARK    1  A    between atoms: S_1  and  C_20
REMARK    2  A    between atoms: S_1  and  C_24
REMARK    3  A    between atoms: O_4  and  C_11
REMARK    4  A    between atoms: N_8  and  C_10
REMARK    5  A    between atoms: N_8  and  C_15
REMARK    6  A    between atoms: N_9  and  C_14
REMARK    7  A    between atoms: C_12  and  C_14
REMARK    8  A    between atoms: C_15  and  C_16
REMARK    9  A    between atoms: C_17  and  C_23
REMARK                            x       y       z     vdW  Elec       q    Type
REMARK                         _______ _______ _______ _____ _____    ______ ____
ROOT
ATOM      3  O   UNL     1      -6.491   2.253  24.256  0.00  0.00    -0.371 OA
ATOM     10  C   UNL     1      -5.405   0.762  25.739  0.00  0.00    +0.111 C 
ATOM     11  C   UNL     1      -5.898   1.949  26.548  0.00  0.00    +0.164 C 
ATOM     12  C   UNL     1      -6.384   2.957  25.507  0.00  0.00    +0.165 C 
ATOM     13  C   UNL     1      -6.264   0.858  24.489  0.00  0.00    +0.181 C 
ENDROOT
BRANCH  11   4
ATOM      4  O   UNL     1      -7.012   1.512  27.329  0.00  0.00    -0.388 OA
ATOM     29  H   UNL     1      -7.667   1.137  26.717  0.00  0.00    +0.210 HD
ENDBRANCH  11   4
BRANCH  10   8
ATOM      8  N   UNL     1      -3.988   0.889  25.403  0.00  0.00    -0.305 NA
ATOM     28  H   UNL     1      -3.868   1.485  24.585  0.00  0.00    +0.123 HD
BRANCH   8  15
ATOM     15  C   UNL     1      -3.396  -0.415  25.128  0.00  0.00    +0.116 C 
BRANCH  15  16
ATOM     16  C   UNL     1      -2.022  -0.289  24.523  0.00  0.00    -0.033 A 
ATOM     18  C   UNL     1      -1.789   0.640  23.510  0.00  0.00    +0.007 A 
ATOM     19  C   UNL     1      -0.984  -1.103  24.976  0.00  0.00    +0.007 A 
ATOM     20  C   UNL     1       0.521  -0.057  23.401  0.00  0.00    +0.088 A 
ATOM     21  C   UNL     1      -0.518   0.756  22.949  0.00  0.00    +0.027 A 
ATOM     22  C   UNL     1       0.288  -0.987  24.415  0.00  0.00    +0.027 A 
BRANCH  20   1
ATOM      1  S   UNL     1       2.114   0.091  22.701  0.00  0.00    -0.006 S 
ATOM      6  O   UNL     1       2.038  -0.236  21.284  0.00  0.00    -0.170 OA
ATOM      7  O   UNL     1       2.670   1.370  23.119  0.00  0.00    -0.170 OA
ATOM     24  C   UNL     1       3.060  -1.198  23.480  0.00  0.00    +0.200 C 
ENDBRANCH  20   1
ENDBRANCH  15  16
ENDBRANCH   8  15
ENDBRANCH  10   8
BRANCH  12  14
ATOM     14  C   UNL     1      -5.439   4.134  25.313  0.00  0.00    +0.138 C 
BRANCH  14   9
ATOM      5  O   UNL     1      -3.285   4.869  27.064  0.00  0.00    -0.270 OA
ATOM      9  N   UNL     1      -4.075   3.698  25.222  0.00  0.00    -0.308 N 
ATOM     17  C   UNL     1      -3.093   4.107  26.120  0.00  0.00    +0.251 C 
ATOM     30  H   UNL     1      -3.822   3.128  24.422  0.00  0.00    +0.149 HD
BRANCH  17  23
ATOM      2  S   UNL     1      -0.808   4.234  24.576  0.00  0.00    -0.092 S 
ATOM     23  C   UNL     1      -1.723   3.589  25.873  0.00  0.00    +0.074 A 
ATOM     25  C   UNL     1      -1.030   2.617  26.562  0.00  0.00    +0.021 A 
ATOM     26  C   UNL     1       0.269   2.399  26.017  0.00  0.00    +0.008 A 
ATOM     27  C   UNL     1       0.518   3.212  24.933  0.00  0.00    +0.046 A 
ENDBRANCH  17  23
ENDBRANCH  14   9
ENDBRANCH  12  14
TORSDOF 8
ENDMDL
MODEL 6
REMARK VINA RESULT:      -0.3      3.028      5.633
REMARK  Name = 75536604
REMARK  9 active torsions:
REMARK  status: ('A' for Active; 'I' for Inactive)
REMARK    1  A    between atoms: S_1  and  C_20
REMARK    2  A    between atoms: S_1  and  C_24
REMARK    3  A    between atoms: O_4  and  C_11
REMARK    4  A    between atoms: N_8  and  C_10
REMARK    5  A    between atoms: N_8  and  C_15
REMARK    6  A    between atoms: N_9  and  C_14
REMARK    7  A    between atoms: C_12  and  C_14
REMARK    8  A    between atoms: C_15  and  C_16
REMARK    9  A    between atoms: C_17  and  C_23
REMARK                            x       y       z     vdW  Elec       q    Type
REMARK                         _______ _______ _______ _____ _____    ______ ____
ROOT
ATOM      3  O   UNL     1      -1.378  -0.795  25.820  0.00  0.00    -0.371 OA
ATOM     10  C   UNL     1      -2.415  -2.687  24.846  0.00  0.00    +0.111 C 
ATOM     11  C   UNL     1      -0.918  -2.811  24.627  0.00  0.00    +0.164 C 
ATOM     12  C   UNL     1      -0.344  -1.468  25.078  0.00  0.00    +0.165 C 
ATOM     13  C   UNL     1      -2.481  -1.692  25.993  0.00  0.00    +0.181 C 
ENDROOT
BRANCH  11   4
ATOM      4  O   UNL     1      -0.435  -3.839  25.493  0.00  0.00    -0.388 OA
ATOM     29  H   UNL     1       0.170  -4.396  24.974  0.00  0.00    +0.210 HD
ENDBRANCH  11   4
BRANCH  10   8
ATOM      8  N   UNL     1      -3.092  -2.157  23.663  0.00  0.00    -0.305 NA
ATOM     28  H   UNL     1      -2.566  -1.377  23.271  0.00  0.00    +0.123 HD
BRANCH   8  15
ATOM     15  C   UNL     1      -4.438  -1.701  23.990  0.00  0.00    +0.116 C 
BRANCH  15  16
ATOM     16  C   UNL     1      -4.471  -0.227  24.299  0.00  0.00    -0.033 A 
ATOM     18  C   UNL     1      -3.616   0.645  23.625  0.00  0.00    +0.007 A 
ATOM     19  C   UNL     1      -5.356   0.265  25.258  0.00  0.00    +0.007 A 
ATOM     20  C   UNL     1      -4.531   2.502  24.870  0.00  0.00    +0.088 A 
ATOM     21  C   UNL     1      -3.646   2.009  23.911  0.00  0.00    +0.027 A 
ATOM     22  C   UNL     1      -5.386   1.629  25.544  0.00  0.00    +0.027 A 
BRANCH  20   1
ATOM      1  S   UNL     1      -4.571   4.211  25.225  0.00  0.00    -0.006 S 
ATOM      6  O   UNL     1      -3.881   4.447  26.486  0.00  0.00    -0.170 OA
ATOM      7  O   UNL     1      -4.153   4.928  24.028  0.00  0.00    -0.170 OA
ATOM     24  C   UNL     1      -6.291   4.566  25.501  0.00  0.00    +0.200 C 
ENDBRANCH  20   1
ENDBRANCH  15  16
ENDBRANCH   8  15
ENDBRANCH  10   8
BRANCH  12  14
ATOM     14  C   UNL     1       0.079  -0.570  23.925  0.00  0.00    +0.138 C 
BRANCH  14   9
ATOM      5  O   UNL     1       1.729   1.776  23.787  0.00  0.00    -0.270 OA
ATOM      9  N   UNL     1      -0.340   0.785  24.138  0.00  0.00    -0.308 N 
ATOM     17  C   UNL     1       0.533   1.866  24.051  0.00  0.00    +0.251 C 
ATOM     30  H   UNL     1      -1.298   0.933  24.436  0.00  0.00    +0.149 HD
BRANCH  17  23
ATOM      2  S   UNL     1      -0.860   3.471  25.812  0.00  0.00    -0.092 S 
ATOM     23  C   UNL     1      -0.051   3.204  24.326  0.00  0.00    +0.074 A 
ATOM     25  C   UNL     1      -0.043   4.330  23.533  0.00  0.00    +0.021 A 
ATOM     26  C   UNL     1      -0.710   5.426  24.153  0.00  0.00    +0.008 A 
ATOM     27  C   UNL     1      -1.203   5.095  25.395  0.00  0.00    +0.046 A 
ENDBRANCH  17  23
ENDBRANCH  14   9
ENDBRANCH  12  14
TORSDOF 8
ENDMDL
MODEL 7
REMARK VINA RESULT:       0.1      2.446      6.833
REMARK  Name = 75536604
REMARK  9 active torsions:
REMARK  status: ('A' for Active; 'I' for Inactive)
REMARK    1  A    between atoms: S_1  and  C_20
REMARK    2  A    between atoms: S_1  and  C_24
REMARK    3  A    between atoms: O_4  and  C_11
REMARK    4  A    between atoms: N_8  and  C_10
REMARK    5  A    between atoms: N_8  and  C_15
REMARK    6  A    between atoms: N_9  and  C_14
REMARK    7  A    between atoms: C_12  and  C_14
REMARK    8  A    between atoms: C_15  and  C_16
REMARK    9  A    between atoms: C_17  and  C_23
REMARK                            x       y       z     vdW  Elec       q    Type
REMARK                         _______ _______ _______ _____ _____    ______ ____
ROOT
ATOM      3  O   UNL     1      -5.012  -1.376  24.250  0.00  0.00    -0.371 OA
ATOM     10  C   UNL     1      -2.647  -1.263  24.259  0.00  0.00    +0.111 C 
ATOM     11  C   UNL     1      -3.152  -0.568  25.511  0.00  0.00    +0.164 C 
ATOM     12  C   UNL     1      -4.668  -0.486  25.328  0.00  0.00    +0.165 C 
ATOM     13  C   UNL     1      -3.845  -2.115  23.871  0.00  0.00    +0.181 C 
ENDROOT
BRANCH  11   4
ATOM      4  O   UNL     1      -2.862  -1.413  26.626  0.00  0.00    -0.388 OA
ATOM     29  H   UNL     1      -2.401  -0.871  27.289  0.00  0.00    +0.210 HD
ENDBRANCH  11   4
BRANCH  10   8
ATOM      8  N   UNL     1      -2.329  -0.306  23.201  0.00  0.00    -0.305 NA
ATOM     28  H   UNL     1      -1.758  -0.747  22.481  0.00  0.00    +0.123 HD
BRANCH   8  15
ATOM     15  C   UNL     1      -1.609   0.844  23.735  0.00  0.00    +0.116 C 
BRANCH  15  16
ATOM     16  C   UNL     1      -0.120   0.704  23.559  0.00  0.00    -0.033 A 
ATOM     18  C   UNL     1       0.736   1.683  24.061  0.00  0.00    +0.007 A 
ATOM     19  C   UNL     1       0.402  -0.406  22.894  0.00  0.00    +0.007 A 
ATOM     20  C   UNL     1       2.638   0.444  23.234  0.00  0.00    +0.088 A 
ATOM     21  C   UNL     1       2.115   1.553  23.898  0.00  0.00    +0.027 A 
ATOM     22  C   UNL     1       1.781  -0.536  22.731  0.00  0.00    +0.027 A 
BRANCH  20   1
ATOM      1  S   UNL     1       4.365   0.280  23.033  0.00  0.00    -0.006 S 
ATOM      6  O   UNL     1       4.670   0.218  21.611  0.00  0.00    -0.170 OA
ATOM      7  O   UNL     1       5.010   1.284  23.868  0.00  0.00    -0.170 OA
ATOM     24  C   UNL     1       4.739  -1.320  23.713  0.00  0.00    +0.200 C 
ENDBRANCH  20   1
ENDBRANCH  15  16
ENDBRANCH   8  15
ENDBRANCH  10   8
BRANCH  12  14
ATOM     14  C   UNL     1      -5.162   0.909  24.973  0.00  0.00    +0.138 C 
BRANCH  14   9
ATOM      5  O   UNL     1      -5.173   3.606  25.958  0.00  0.00    -0.270 OA
ATOM      9  N   UNL     1      -4.078   1.846  24.913  0.00  0.00    -0.308 N 
ATOM     17  C   UNL     1      -4.173   3.140  25.418  0.00  0.00    +0.251 C 
ATOM     30  H   UNL     1      -3.244   1.560  24.412  0.00  0.00    +0.149 HD
BRANCH  17  23
ATOM      2  S   UNL     1      -1.463   3.444  25.846  0.00  0.00    -0.092 S 
ATOM     23  C   UNL     1      -2.971   3.998  25.253  0.00  0.00    +0.074 A 
ATOM     25  C   UNL     1      -2.871   5.239  24.664  0.00  0.00    +0.021 A 
ATOM     26  C   UNL     1      -1.537   5.742  24.700  0.00  0.00    +0.008 A 
ATOM     27  C   UNL     1      -0.671   4.866  25.317  0.00  0.00    +0.046 A 
ENDBRANCH  17  23
ENDBRANCH  14   9
ENDBRANCH  12  14
TORSDOF 8
ENDMDL
