MODEL 1
REMARK VINA RESULT:       0.4      0.000      0.000
REMARK  Name = 7051292
REMARK  8 active torsions:
REMARK  status: ('A' for Active; 'I' for Inactive)
REMARK    1  A    between atoms: S_1  and  N_12
REMARK    2  A    between atoms: S_1  and  C_27
REMARK    3  A    between atoms: O_7  and  C_26
REMARK    4  A    between atoms: O_7  and  C_30
REMARK    5  A    between atoms: N_12  and  C_23
REMARK    6  A    between atoms: C_22  and  C_25
REMARK    7  A    between atoms: C_25  and  C_26
REMARK    8  A    between atoms: C_31  and  C_34
REMARK                            x       y       z     vdW  Elec       q    Type
REMARK                         _______ _______ _______ _____ _____    ______ ____
ROOT
ATOM      5  O   UNL     1      13.069  -6.249  27.933  0.00  0.00    -0.266 OA
ATOM      6  O   UNL     1      14.738  -4.818  32.821  0.00  0.00    -0.276 OA
ATOM     10  N   UNL     1      13.992  -7.018  32.818  0.00  0.00    -0.300 N 
ATOM     11  N   UNL     1      13.201  -7.672  29.791  0.00  0.00    -0.310 N 
ATOM     13  C   UNL     1      11.718  -7.408  31.860  0.00  0.00    +0.027 C 
ATOM     14  C   UNL     1      13.400  -9.202  31.783  0.00  0.00    +0.054 C 
ATOM     15  C   UNL     1      11.919  -8.911  32.023  0.00  0.00    +0.018 C 
ATOM     16  C   UNL     1      12.579  -6.636  32.873  0.00  0.00    +0.113 C 
ATOM     17  C   UNL     1      12.042  -7.019  30.413  0.00  0.00    +0.130 C 
ATOM     18  C   UNL     1      14.248  -8.467  32.839  0.00  0.00    +0.117 C 
ATOM     19  C   UNL     1      13.823  -8.774  30.391  0.00  0.00    +0.027 A 
ATOM     20  C   UNL     1      14.808  -9.432  29.752  0.00  0.00    +0.024 A 
ATOM     21  C   UNL     1      13.587  -7.200  28.518  0.00  0.00    +0.274 A 
ATOM     22  C   UNL     1      14.974  -6.029  32.838  0.00  0.00    +0.218 C 
ATOM     23  C   UNL     1      14.693  -7.951  27.874  0.00  0.00    +0.112 A 
ATOM     24  C   UNL     1      15.261  -9.009  28.455  0.00  0.00    +0.031 A 
ENDROOT
BRANCH  23  12
ATOM     12  N   UNL     1      15.169  -7.566  26.610  0.00  0.00    -0.211 N 
ATOM     35  H   UNL     1      14.696  -8.057  25.838  0.00  0.00    +0.174 HD
BRANCH  12   1
ATOM      1  S   UNL     1      16.846  -7.419  26.429  0.00  0.00    +0.073 S 
ATOM      8  O   UNL     1      17.405  -6.747  27.587  0.00  0.00    -0.150 OA
ATOM      9  O   UNL     1      17.401  -8.682  25.978  0.00  0.00    -0.150 OA
BRANCH   1  27
ATOM     27  C   UNL     1      16.932  -6.290  25.071  0.00  0.00    +0.109 A 
ATOM     28  C   UNL     1      16.684  -4.932  25.276  0.00  0.00    +0.041 A 
ATOM     29  C   UNL     1      17.248  -6.756  23.795  0.00  0.00    +0.029 A 
ATOM     31  C   UNL     1      16.751  -4.042  24.205  0.00  0.00    +0.057 A 
ATOM     32  C   UNL     1      17.316  -5.864  22.724  0.00  0.00    +0.002 A 
ATOM     33  C   UNL     1      17.067  -4.508  22.929  0.00  0.00    +0.012 A 
BRANCH  31  34
ATOM      2  F   UNL     1      16.705  -1.820  23.316  0.00  0.00    -0.166 F 
ATOM      3  F   UNL     1      15.200  -2.319  24.797  0.00  0.00    -0.166 F 
ATOM      4  F   UNL     1      17.272  -2.054  25.403  0.00  0.00    -0.166 F 
ATOM     34  C   UNL     1      16.486  -2.591  24.424  0.00  0.00    +0.417 C 
ENDBRANCH  31  34
ENDBRANCH   1  27
ENDBRANCH  12   1
ENDBRANCH  23  12
BRANCH  22  25
ATOM     25  C   UNL     1      16.406  -6.500  32.873  0.00  0.00    +0.124 C 
BRANCH  25  26
ATOM     26  C   UNL     1      17.119  -6.044  31.618  0.00  0.00    +0.168 C 
BRANCH  26   7
ATOM      7  O   UNL     1      16.208  -5.343  30.782  0.00  0.00    -0.382 OA
ATOM     30  C   UNL     1      16.872  -4.371  29.987  0.00  0.00    +0.194 C 
ENDBRANCH  26   7
ENDBRANCH  25  26
ENDBRANCH  22  25
TORSDOF 7
ENDMDL
MODEL 2
REMARK VINA RESULT:       1.4     17.534     19.575
REMARK  Name = 7051292
REMARK  8 active torsions:
REMARK  status: ('A' for Active; 'I' for Inactive)
REMARK    1  A    between atoms: S_1  and  N_12
REMARK    2  A    between atoms: S_1  and  C_27
REMARK    3  A    between atoms: O_7  and  C_26
REMARK    4  A    between atoms: O_7  and  C_30
REMARK    5  A    between atoms: N_12  and  C_23
REMARK    6  A    between atoms: C_22  and  C_25
REMARK    7  A    between atoms: C_25  and  C_26
REMARK    8  A    between atoms: C_31  and  C_34
REMARK                            x       y       z     vdW  Elec       q    Type
REMARK                         _______ _______ _______ _____ _____    ______ ____
ROOT
ATOM      5  O   UNL     1      -3.279   0.632  22.190  0.00  0.00    -0.266 OA
ATOM      6  O   UNL     1       0.111   3.548  25.144  0.00  0.00    -0.276 OA
ATOM     10  N   UNL     1      -2.092   4.075  25.661  0.00  0.00    -0.300 N 
ATOM     11  N   UNL     1      -3.899   2.116  23.895  0.00  0.00    -0.310 N 
ATOM     13  C   UNL     1      -3.569   4.648  23.730  0.00  0.00    +0.027 C 
ATOM     14  C   UNL     1      -4.546   3.675  25.767  0.00  0.00    +0.054 C 
ATOM     15  C   UNL     1      -4.761   4.725  24.678  0.00  0.00    +0.018 C 
ATOM     16  C   UNL     1      -2.260   4.931  24.485  0.00  0.00    +0.113 C 
ATOM     17  C   UNL     1      -3.559   3.272  23.055  0.00  0.00    +0.130 C 
ATOM     18  C   UNL     1      -3.261   4.000  26.552  0.00  0.00    +0.117 C 
ATOM     19  C   UNL     1      -4.449   2.282  25.172  0.00  0.00    +0.027 A 
ATOM     20  C   UNL     1      -4.862   1.215  25.881  0.00  0.00    +0.024 A 
ATOM     21  C   UNL     1      -3.740   0.841  23.312  0.00  0.00    +0.274 A 
ATOM     22  C   UNL     1      -0.858   3.473  25.905  0.00  0.00    +0.218 C 
ATOM     23  C   UNL     1      -4.191  -0.298  24.150  0.00  0.00    +0.112 A 
ATOM     24  C   UNL     1      -4.729  -0.118  25.357  0.00  0.00    +0.031 A 
ENDROOT
BRANCH  23  12
ATOM     12  N   UNL     1      -4.072  -1.616  23.678  0.00  0.00    -0.211 N 
ATOM     35  H   UNL     1      -4.983  -2.079  23.551  0.00  0.00    +0.174 HD
BRANCH  12   1
ATOM      1  S   UNL     1      -2.883  -2.586  24.391  0.00  0.00    +0.073 S 
ATOM      8  O   UNL     1      -3.310  -2.987  25.719  0.00  0.00    -0.150 OA
ATOM      9  O   UNL     1      -2.428  -3.581  23.438  0.00  0.00    -0.150 OA
BRANCH   1  27
ATOM     27  C   UNL     1      -1.577  -1.410  24.592  0.00  0.00    +0.109 A 
ATOM     28  C   UNL     1      -0.602  -1.276  23.603  0.00  0.00    +0.041 A 
ATOM     29  C   UNL     1      -1.522  -0.617  25.737  0.00  0.00    +0.029 A 
ATOM     31  C   UNL     1       0.429  -0.349  23.762  0.00  0.00    +0.057 A 
ATOM     32  C   UNL     1      -0.492   0.310  25.895  0.00  0.00    +0.002 A 
ATOM     33  C   UNL     1       0.483   0.444  24.908  0.00  0.00    +0.012 A 
BRANCH  31  34
ATOM      2  F   UNL     1       2.523  -1.067  22.853  0.00  0.00    -0.166 F 
ATOM      3  F   UNL     1       1.005  -0.428  21.442  0.00  0.00    -0.166 F 
ATOM      4  F   UNL     1       2.024   1.043  22.678  0.00  0.00    -0.166 F 
ATOM     34  C   UNL     1       1.472  -0.206  22.706  0.00  0.00    +0.417 C 
ENDBRANCH  31  34
ENDBRANCH   1  27
ENDBRANCH  12   1
ENDBRANCH  23  12
BRANCH  22  25
ATOM     25  C   UNL     1      -0.733   2.682  27.182  0.00  0.00    +0.124 C 
BRANCH  25  26
ATOM     26  C   UNL     1       0.708   2.700  27.647  0.00  0.00    +0.168 C 
BRANCH  26   7
ATOM      7  O   UNL     1       0.763   2.396  29.035  0.00  0.00    -0.382 OA
ATOM     30  C   UNL     1       2.090   2.481  29.535  0.00  0.00    +0.194 C 
ENDBRANCH  26   7
ENDBRANCH  25  26
ENDBRANCH  22  25
TORSDOF 7
ENDMDL
MODEL 3
REMARK VINA RESULT:       2.7     17.104     19.064
REMARK  Name = 7051292
REMARK  8 active torsions:
REMARK  status: ('A' for Active; 'I' for Inactive)
REMARK    1  A    between atoms: S_1  and  N_12
REMARK    2  A    between atoms: S_1  and  C_27
REMARK    3  A    between atoms: O_7  and  C_26
REMARK    4  A    between atoms: O_7  and  C_30
REMARK    5  A    between atoms: N_12  and  C_23
REMARK    6  A    between atoms: C_22  and  C_25
REMARK    7  A    between atoms: C_25  and  C_26
REMARK    8  A    between atoms: C_31  and  C_34
REMARK                            x       y       z     vdW  Elec       q    Type
REMARK                         _______ _______ _______ _____ _____    ______ ____
ROOT
ATOM      5  O   UNL     1      -0.721   2.171  26.907  0.00  0.00    -0.266 OA
ATOM      6  O   UNL     1      -6.077   2.281  27.047  0.00  0.00    -0.276 OA
ATOM     10  N   UNL     1      -5.285   3.292  25.112  0.00  0.00    -0.300 N 
ATOM     11  N   UNL     1      -2.106   2.967  25.191  0.00  0.00    -0.310 N 
ATOM     13  C   UNL     1      -3.553   5.065  25.425  0.00  0.00    +0.027 C 
ATOM     14  C   UNL     1      -3.609   3.769  23.334  0.00  0.00    +0.054 C 
ATOM     15  C   UNL     1      -3.401   5.168  23.911  0.00  0.00    +0.018 C 
ATOM     16  C   UNL     1      -4.953   4.546  25.792  0.00  0.00    +0.113 C 
ATOM     17  C   UNL     1      -2.442   4.163  25.975  0.00  0.00    +0.130 C 
ATOM     18  C   UNL     1      -5.034   3.282  23.661  0.00  0.00    +0.117 C 
ATOM     19  C   UNL     1      -2.590   2.791  23.889  0.00  0.00    +0.027 A 
ATOM     20  C   UNL     1      -2.179   1.748  23.144  0.00  0.00    +0.024 A 
ATOM     21  C   UNL     1      -1.194   2.062  25.776  0.00  0.00    +0.274 A 
ATOM     22  C   UNL     1      -5.875   2.253  25.830  0.00  0.00    +0.218 C 
ATOM     23  C   UNL     1      -0.797   0.921  24.915  0.00  0.00    +0.112 A 
ATOM     24  C   UNL     1      -1.256   0.780  23.670  0.00  0.00    +0.031 A 
ENDROOT
BRANCH  23  12
ATOM     12  N   UNL     1       0.099  -0.050  25.394  0.00  0.00    -0.211 N 
ATOM     35  H   UNL     1       0.943   0.359  25.818  0.00  0.00    +0.174 HD
BRANCH  12   1
ATOM      1  S   UNL     1       0.388  -1.390  24.400  0.00  0.00    +0.073 S 
ATOM      8  O   UNL     1       0.927  -2.479  25.193  0.00  0.00    -0.150 OA
ATOM      9  O   UNL     1      -0.754  -1.611  23.533  0.00  0.00    -0.150 OA
BRANCH   1  27
ATOM     27  C   UNL     1       1.704  -0.772  23.392  0.00  0.00    +0.109 A 
ATOM     28  C   UNL     1       2.991  -0.660  23.917  0.00  0.00    +0.041 A 
ATOM     29  C   UNL     1       1.454  -0.397  22.072  0.00  0.00    +0.029 A 
ATOM     31  C   UNL     1       4.029  -0.172  23.123  0.00  0.00    +0.057 A 
ATOM     32  C   UNL     1       2.492   0.090  21.277  0.00  0.00    +0.002 A 
ATOM     33  C   UNL     1       3.779   0.203  21.803  0.00  0.00    +0.012 A 
BRANCH  31  34
ATOM      2  F   UNL     1       5.633  -0.869  24.756  0.00  0.00    -0.166 F 
ATOM      3  F   UNL     1       6.390  -0.356  22.789  0.00  0.00    -0.166 F 
ATOM      4  F   UNL     1       5.686   1.211  24.123  0.00  0.00    -0.166 F 
ATOM     34  C   UNL     1       5.405  -0.052  23.685  0.00  0.00    +0.417 C 
ENDBRANCH  31  34
ENDBRANCH   1  27
ENDBRANCH  12   1
ENDBRANCH  23  12
BRANCH  22  25
ATOM     25  C   UNL     1      -6.274   1.029  25.045  0.00  0.00    +0.124 C 
BRANCH  25  26
ATOM     26  C   UNL     1      -5.031   0.286  24.604  0.00  0.00    +0.168 C 
BRANCH  26   7
ATOM      7  O   UNL     1      -4.217   0.009  25.736  0.00  0.00    -0.382 OA
ATOM     30  C   UNL     1      -3.596  -1.265  25.632  0.00  0.00    +0.194 C 
ENDBRANCH  26   7
ENDBRANCH  25  26
ENDBRANCH  22  25
TORSDOF 7
ENDMDL
MODEL 4
REMARK VINA RESULT:       3.4     17.362     19.281
REMARK  Name = 7051292
REMARK  8 active torsions:
REMARK  status: ('A' for Active; 'I' for Inactive)
REMARK    1  A    between atoms: S_1  and  N_12
REMARK    2  A    between atoms: S_1  and  C_27
REMARK    3  A    between atoms: O_7  and  C_26
REMARK    4  A    between atoms: O_7  and  C_30
REMARK    5  A    between atoms: N_12  and  C_23
REMARK    6  A    between atoms: C_22  and  C_25
REMARK    7  A    between atoms: C_25  and  C_26
REMARK    8  A    between atoms: C_31  and  C_34
REMARK                            x       y       z     vdW  Elec       q    Type
REMARK                         _______ _______ _______ _____ _____    ______ ____
ROOT
ATOM      5  O   UNL     1      -2.860   0.888  22.236  0.00  0.00    -0.266 OA
ATOM      6  O   UNL     1      -0.353   4.335  25.485  0.00  0.00    -0.276 OA
ATOM     10  N   UNL     1      -2.623   4.252  25.969  0.00  0.00    -0.300 N 
ATOM     11  N   UNL     1      -3.855   2.040  24.019  0.00  0.00    -0.310 N 
ATOM     13  C   UNL     1      -4.173   4.579  24.037  0.00  0.00    +0.027 C 
ATOM     14  C   UNL     1      -4.898   3.244  25.972  0.00  0.00    +0.054 C 
ATOM     15  C   UNL     1      -5.357   4.284  24.951  0.00  0.00    +0.018 C 
ATOM     16  C   UNL     1      -2.987   5.124  24.850  0.00  0.00    +0.113 C 
ATOM     17  C   UNL     1      -3.808   3.303  23.270  0.00  0.00    +0.130 C 
ATOM     18  C   UNL     1      -3.746   3.822  26.816  0.00  0.00    +0.117 C 
ATOM     19  C   UNL     1      -4.445   1.967  25.287  0.00  0.00    +0.027 A 
ATOM     20  C   UNL     1      -4.584   0.781  25.907  0.00  0.00    +0.024 A 
ATOM     21  C   UNL     1      -3.373   0.891  23.355  0.00  0.00    +0.274 A 
ATOM     22  C   UNL     1      -1.280   3.963  26.209  0.00  0.00    +0.218 C 
ATOM     23  C   UNL     1      -3.533  -0.383  24.099  0.00  0.00    +0.112 A 
ATOM     24  C   UNL     1      -4.113  -0.433  25.299  0.00  0.00    +0.031 A 
ENDROOT
BRANCH  23  12
ATOM     12  N   UNL     1      -3.079  -1.590  23.542  0.00  0.00    -0.211 N 
ATOM     35  H   UNL     1      -3.834  -2.278  23.411  0.00  0.00    +0.174 HD
BRANCH  12   1
ATOM      1  S   UNL     1      -1.641  -2.233  24.161  0.00  0.00    +0.073 S 
ATOM      8  O   UNL     1      -1.807  -2.534  25.571  0.00  0.00    -0.150 OA
ATOM      9  O   UNL     1      -1.126  -3.242  23.254  0.00  0.00    -0.150 OA
BRANCH   1  27
ATOM     27  C   UNL     1      -0.576  -0.825  24.045  0.00  0.00    +0.109 A 
ATOM     28  C   UNL     1       0.649  -0.930  23.387  0.00  0.00    +0.041 A 
ATOM     29  C   UNL     1      -0.961   0.389  24.612  0.00  0.00    +0.029 A 
ATOM     31  C   UNL     1       1.490   0.179  23.297  0.00  0.00    +0.057 A 
ATOM     32  C   UNL     1      -0.121   1.499  24.521  0.00  0.00    +0.002 A 
ATOM     33  C   UNL     1       1.104   1.393  23.864  0.00  0.00    +0.012 A 
BRANCH  31  34
ATOM      2  F   UNL     1       3.627   1.135  22.802  0.00  0.00    -0.166 F 
ATOM      3  F   UNL     1       3.530  -1.025  22.966  0.00  0.00    -0.166 F 
ATOM      4  F   UNL     1       2.663  -0.029  21.238  0.00  0.00    -0.166 F 
ATOM     34  C   UNL     1       2.800   0.067  22.593  0.00  0.00    +0.417 C 
ENDBRANCH  31  34
ENDBRANCH   1  27
ENDBRANCH  12   1
ENDBRANCH  23  12
BRANCH  22  25
ATOM     25  C   UNL     1      -0.976   3.137  27.432  0.00  0.00    +0.124 C 
BRANCH  25  26
ATOM     26  C   UNL     1       0.378   2.479  27.272  0.00  0.00    +0.168 C 
BRANCH  26   7
ATOM      7  O   UNL     1       0.801   1.951  28.523  0.00  0.00    -0.382 OA
ATOM     30  C   UNL     1       0.900   2.967  29.511  0.00  0.00    +0.194 C 
ENDBRANCH  26   7
ENDBRANCH  25  26
ENDBRANCH  22  25
TORSDOF 7
ENDMDL
