MODEL 1
REMARK VINA RESULT:      -3.0      0.000      0.000
REMARK  Name = 86768994
REMARK  10 active torsions:
REMARK  status: ('A' for Active; 'I' for Inactive)
REMARK    1  A    between atoms: O_2  and  C_11
REMARK    2  A    between atoms: O_5  and  C_26
REMARK    3  A    between atoms: O_5  and  C_27
REMARK    4  A    between atoms: N_6  and  C_10
REMARK    5  A    between atoms: N_6  and  C_13
REMARK    6  A    between atoms: C_9  and  C_13
REMARK    7  A    between atoms: C_12  and  C_20
REMARK    8  A    between atoms: C_20  and  C_21
REMARK    9  A    between atoms: C_22  and  C_24
REMARK   10  A    between atoms: C_25  and  C_26
REMARK                            x       y       z     vdW  Elec       q    Type
REMARK                         _______ _______ _______ _____ _____    ______ ____
ROOT
ATOM      1  O   UNL     1      -3.530   0.110  23.533  0.00  0.00    -0.369 OA
ATOM      9  C   UNL     1      -4.426  -0.505  24.469  0.00  0.00    +0.161 C 
ATOM     11  C   UNL     1      -3.777  -1.721  25.144  0.00  0.00    +0.145 C 
ATOM     12  C   UNL     1      -2.264   0.500  24.069  0.00  0.00    +0.125 C 
ATOM     14  C   UNL     1      -2.390  -1.408  25.698  0.00  0.00    +0.036 C 
ATOM     15  C   UNL     1      -1.530  -0.707  24.650  0.00  0.00    +0.034 C 
ENDROOT
BRANCH  11   2
ATOM      2  O   UNL     1      -3.635  -2.765  24.176  0.00  0.00    -0.389 OA
ATOM     29  H   UNL     1      -2.685  -2.955  24.088  0.00  0.00    +0.210 HD
ENDBRANCH  11   2
BRANCH   9  13
ATOM     13  C   UNL     1      -4.965   0.515  25.468  0.00  0.00    +0.115 C 
BRANCH  13   6
ATOM      6  N   UNL     1      -5.617   1.624  24.788  0.00  0.00    -0.311 NA
ATOM     28  H   UNL     1      -6.566   1.724  25.148  0.00  0.00    +0.122 HD
BRANCH   6  10
ATOM      3  O   UNL     1      -0.517   4.857  23.630  0.00  0.00    -0.276 OA
ATOM      7  N   UNL     1      -2.353   4.304  24.942  0.00  0.00    -0.302 N 
ATOM     10  C   UNL     1      -4.863   2.861  24.974  0.00  0.00    +0.057 C 
ATOM     16  C   UNL     1      -3.817   2.679  26.082  0.00  0.00    +0.037 C 
ATOM     17  C   UNL     1      -4.186   3.267  23.659  0.00  0.00    +0.037 C 
ATOM     18  C   UNL     1      -2.951   3.930  26.229  0.00  0.00    +0.109 C 
ATOM     19  C   UNL     1      -3.313   4.505  23.854  0.00  0.00    +0.109 C 
ATOM     22  C   UNL     1      -0.993   4.508  24.713  0.00  0.00    +0.212 C 
ATOM     24  C   UNL     1      -0.068   4.277  25.882  0.00  0.00    +0.109 C 
ENDBRANCH   6  10
ENDBRANCH  13   6
ENDBRANCH   9  13
BRANCH  12  20
ATOM     20  C   UNL     1      -1.462   1.130  22.938  0.00  0.00    +0.090 C 
BRANCH  20  21
ATOM      4  O   UNL     1       2.014   1.265  23.884  0.00  0.00    -0.357 OA
ATOM      8  N   UNL     1       0.702   1.721  23.949  0.00  0.00    -0.083 NA
ATOM     21  C   UNL     1       0.018   0.926  23.122  0.00  0.00    +0.086 A 
ATOM     23  C   UNL     1       0.837  -0.042  22.513  0.00  0.00    +0.073 A 
ATOM     25  C   UNL     1       2.080   0.215  23.025  0.00  0.00    +0.163 A 
BRANCH  25  26
ATOM     26  C   UNL     1       3.403  -0.393  22.837  0.00  0.00    +0.236 C 
BRANCH  26   5
ATOM      5  O   UNL     1       4.430   0.585  23.022  0.00  0.00    -0.375 OA
ATOM     27  C   UNL     1       5.488   0.073  23.814  0.00  0.00    +0.194 C 
ENDBRANCH  26   5
ENDBRANCH  25  26
ENDBRANCH  20  21
ENDBRANCH  12  20
TORSDOF 8
ENDMDL
MODEL 2
REMARK VINA RESULT:      -2.7      1.915      4.467
REMARK  Name = 86768994
REMARK  10 active torsions:
REMARK  status: ('A' for Active; 'I' for Inactive)
REMARK    1  A    between atoms: O_2  and  C_11
REMARK    2  A    between atoms: O_5  and  C_26
REMARK    3  A    between atoms: O_5  and  C_27
REMARK    4  A    between atoms: N_6  and  C_10
REMARK    5  A    between atoms: N_6  and  C_13
REMARK    6  A    between atoms: C_9  and  C_13
REMARK    7  A    between atoms: C_12  and  C_20
REMARK    8  A    between atoms: C_20  and  C_21
REMARK    9  A    between atoms: C_22  and  C_24
REMARK   10  A    between atoms: C_25  and  C_26
REMARK                            x       y       z     vdW  Elec       q    Type
REMARK                         _______ _______ _______ _____ _____    ______ ____
ROOT
ATOM      1  O   UNL     1      -2.709   3.343  25.597  0.00  0.00    -0.369 OA
ATOM      9  C   UNL     1      -4.105   3.524  25.322  0.00  0.00    +0.161 C 
ATOM     11  C   UNL     1      -4.347   3.818  23.835  0.00  0.00    +0.145 C 
ATOM     12  C   UNL     1      -2.061   2.337  24.815  0.00  0.00    +0.125 C 
ATOM     14  C   UNL     1      -3.639   2.820  22.922  0.00  0.00    +0.036 C 
ATOM     15  C   UNL     1      -2.177   2.654  23.325  0.00  0.00    +0.034 C 
ENDROOT
BRANCH  11   2
ATOM      2  O   UNL     1      -3.838   5.121  23.535  0.00  0.00    -0.389 OA
ATOM     29  H   UNL     1      -3.122   5.308  24.164  0.00  0.00    +0.210 HD
ENDBRANCH  11   2
BRANCH   9  13
ATOM     13  C   UNL     1      -4.925   2.344  25.838  0.00  0.00    +0.115 C 
BRANCH  13   6
ATOM      6  N   UNL     1      -5.339   1.474  24.747  0.00  0.00    -0.311 NA
ATOM     28  H   UNL     1      -4.921   1.806  23.878  0.00  0.00    +0.122 HD
BRANCH   6  10
ATOM      3  O   UNL     1      -0.814  -2.610  25.556  0.00  0.00    -0.276 OA
ATOM      7  N   UNL     1      -2.970  -2.022  24.920  0.00  0.00    -0.302 N 
ATOM     10  C   UNL     1      -4.948   0.091  25.010  0.00  0.00    +0.057 C 
ATOM     16  C   UNL     1      -4.582  -0.612  23.696  0.00  0.00    +0.037 C 
ATOM     17  C   UNL     1      -3.763   0.057  25.984  0.00  0.00    +0.037 C 
ATOM     18  C   UNL     1      -4.077  -2.031  23.957  0.00  0.00    +0.109 C 
ATOM     19  C   UNL     1      -3.275  -1.375  26.198  0.00  0.00    +0.109 C 
ATOM     22  C   UNL     1      -1.718  -2.599  24.716  0.00  0.00    +0.212 C 
ATOM     24  C   UNL     1      -1.480  -3.243  23.373  0.00  0.00    +0.109 C 
ENDBRANCH   6  10
ENDBRANCH  13   6
ENDBRANCH   9  13
BRANCH  12  20
ATOM     20  C   UNL     1      -0.601   2.291  25.247  0.00  0.00    +0.090 C 
BRANCH  20  21
ATOM      4  O   UNL     1       0.724  -0.399  23.247  0.00  0.00    -0.357 OA
ATOM      8  N   UNL     1      -0.258   0.168  24.051  0.00  0.00    -0.083 NA
ATOM     21  C   UNL     1       0.213   1.377  24.370  0.00  0.00    +0.086 A 
ATOM     23  C   UNL     1       1.474   1.626  23.801  0.00  0.00    +0.073 A 
ATOM     25  C   UNL     1       1.749   0.479  23.105  0.00  0.00    +0.163 A 
BRANCH  25  26
ATOM     26  C   UNL     1       2.879   0.038  22.279  0.00  0.00    +0.236 C 
BRANCH  26   5
ATOM      5  O   UNL     1       4.011   0.886  22.492  0.00  0.00    -0.375 OA
ATOM     27  C   UNL     1       5.005   0.230  23.262  0.00  0.00    +0.194 C 
ENDBRANCH  26   5
ENDBRANCH  25  26
ENDBRANCH  20  21
ENDBRANCH  12  20
TORSDOF 8
ENDMDL
MODEL 3
REMARK VINA RESULT:      -2.4      1.636      5.749
REMARK  Name = 86768994
REMARK  10 active torsions:
REMARK  status: ('A' for Active; 'I' for Inactive)
REMARK    1  A    between atoms: O_2  and  C_11
REMARK    2  A    between atoms: O_5  and  C_26
REMARK    3  A    between atoms: O_5  and  C_27
REMARK    4  A    between atoms: N_6  and  C_10
REMARK    5  A    between atoms: N_6  and  C_13
REMARK    6  A    between atoms: C_9  and  C_13
REMARK    7  A    between atoms: C_12  and  C_20
REMARK    8  A    between atoms: C_20  and  C_21
REMARK    9  A    between atoms: C_22  and  C_24
REMARK   10  A    between atoms: C_25  and  C_26
REMARK                            x       y       z     vdW  Elec       q    Type
REMARK                         _______ _______ _______ _____ _____    ______ ____
ROOT
ATOM      1  O   UNL     1      -3.034   0.037  25.121  0.00  0.00    -0.369 OA
ATOM      9  C   UNL     1      -2.103  -1.027  24.881  0.00  0.00    +0.161 C 
ATOM     11  C   UNL     1      -2.817  -2.382  24.789  0.00  0.00    +0.145 C 
ATOM     12  C   UNL     1      -4.100   0.139  24.174  0.00  0.00    +0.125 C 
ATOM     14  C   UNL     1      -4.010  -2.349  23.838  0.00  0.00    +0.036 C 
ATOM     15  C   UNL     1      -4.912  -1.155  24.135  0.00  0.00    +0.034 C 
ENDROOT
BRANCH  11   2
ATOM      2  O   UNL     1      -3.305  -2.735  26.088  0.00  0.00    -0.389 OA
ATOM     29  H   UNL     1      -4.144  -3.210  25.966  0.00  0.00    +0.210 HD
ENDBRANCH  11   2
BRANCH   9  13
ATOM     13  C   UNL     1      -1.230  -0.730  23.664  0.00  0.00    +0.115 C 
BRANCH  13   6
ATOM      6  N   UNL     1      -0.582   0.568  23.787  0.00  0.00    -0.311 NA
ATOM     28  H   UNL     1      -0.441   0.778  24.774  0.00  0.00    +0.122 HD
BRANCH   6  10
ATOM      3  O   UNL     1       5.228  -1.414  23.432  0.00  0.00    -0.276 OA
ATOM      7  N   UNL     1       3.554   0.147  23.029  0.00  0.00    -0.302 N 
ATOM     10  C   UNL     1       0.692   0.580  23.071  0.00  0.00    +0.057 C 
ATOM     16  C   UNL     1       1.663   1.561  23.742  0.00  0.00    +0.037 C 
ATOM     17  C   UNL     1       1.291  -0.832  23.041  0.00  0.00    +0.037 C 
ATOM     18  C   UNL     1       3.035   1.519  23.069  0.00  0.00    +0.109 C 
ATOM     19  C   UNL     1       2.669  -0.825  22.383  0.00  0.00    +0.109 C 
ATOM     22  C   UNL     1       4.798  -0.260  23.510  0.00  0.00    +0.212 C 
ATOM     24  C   UNL     1       5.649   0.800  24.165  0.00  0.00    +0.109 C 
ENDBRANCH   6  10
ENDBRANCH  13   6
ENDBRANCH   9  13
BRANCH  12  20
ATOM     20  C   UNL     1      -4.973   1.315  24.590  0.00  0.00    +0.090 C 
BRANCH  20  21
ATOM      4  O   UNL     1      -3.538   4.216  26.178  0.00  0.00    -0.357 OA
ATOM      8  N   UNL     1      -4.495   3.213  26.082  0.00  0.00    -0.083 NA
ATOM     21  C   UNL     1      -4.147   2.504  25.005  0.00  0.00    +0.086 A 
ATOM     23  C   UNL     1      -2.989   3.008  24.386  0.00  0.00    +0.073 A 
ATOM     25  C   UNL     1      -2.647   4.083  25.162  0.00  0.00    +0.163 A 
BRANCH  25  26
ATOM     26  C   UNL     1      -1.560   5.068  25.111  0.00  0.00    +0.236 C 
BRANCH  26   5
ATOM      5  O   UNL     1      -0.295   4.408  25.027  0.00  0.00    -0.375 OA
ATOM     27  C   UNL     1      -0.227   3.313  25.926  0.00  0.00    +0.194 C 
ENDBRANCH  26   5
ENDBRANCH  25  26
ENDBRANCH  20  21
ENDBRANCH  12  20
TORSDOF 8
ENDMDL
MODEL 4
REMARK VINA RESULT:      -2.1      1.520      1.783
REMARK  Name = 86768994
REMARK  10 active torsions:
REMARK  status: ('A' for Active; 'I' for Inactive)
REMARK    1  A    between atoms: O_2  and  C_11
REMARK    2  A    between atoms: O_5  and  C_26
REMARK    3  A    between atoms: O_5  and  C_27
REMARK    4  A    between atoms: N_6  and  C_10
REMARK    5  A    between atoms: N_6  and  C_13
REMARK    6  A    between atoms: C_9  and  C_13
REMARK    7  A    between atoms: C_12  and  C_20
REMARK    8  A    between atoms: C_20  and  C_21
REMARK    9  A    between atoms: C_22  and  C_24
REMARK   10  A    between atoms: C_25  and  C_26
REMARK                            x       y       z     vdW  Elec       q    Type
REMARK                         _______ _______ _______ _____ _____    ______ ____
ROOT
ATOM      1  O   UNL     1      -2.137  -0.228  23.715  0.00  0.00    -0.369 OA
ATOM      9  C   UNL     1      -2.999  -1.319  24.065  0.00  0.00    +0.161 C 
ATOM     11  C   UNL     1      -2.205  -2.490  24.658  0.00  0.00    +0.145 C 
ATOM     12  C   UNL     1      -1.315   0.262  24.777  0.00  0.00    +0.125 C 
ATOM     14  C   UNL     1      -1.253  -2.046  25.766  0.00  0.00    +0.036 C 
ATOM     15  C   UNL     1      -0.418  -0.849  25.320  0.00  0.00    +0.034 C 
ENDROOT
BRANCH  11   2
ATOM      2  O   UNL     1      -1.418  -3.085  23.621  0.00  0.00    -0.389 OA
ATOM     29  H   UNL     1      -1.241  -2.398  22.956  0.00  0.00    +0.210 HD
ENDBRANCH  11   2
BRANCH   9  13
ATOM     13  C   UNL     1      -4.138  -0.853  24.969  0.00  0.00    +0.115 C 
BRANCH  13   6
ATOM      6  N   UNL     1      -5.216  -0.258  24.193  0.00  0.00    -0.311 NA
ATOM     28  H   UNL     1      -6.107  -0.629  24.521  0.00  0.00    +0.122 HD
BRANCH   6  10
ATOM      3  O   UNL     1      -1.933   4.856  25.129  0.00  0.00    -0.276 OA
ATOM      7  N   UNL     1      -3.904   3.628  25.211  0.00  0.00    -0.302 N 
ATOM     10  C   UNL     1      -5.193   1.198  24.307  0.00  0.00    +0.057 C 
ATOM     16  C   UNL     1      -5.203   1.611  25.785  0.00  0.00    +0.037 C 
ATOM     17  C   UNL     1      -3.952   1.761  23.602  0.00  0.00    +0.037 C 
ATOM     18  C   UNL     1      -5.082   3.128  25.930  0.00  0.00    +0.109 C 
ATOM     19  C   UNL     1      -3.856   3.273  23.791  0.00  0.00    +0.109 C 
ATOM     22  C   UNL     1      -2.896   4.417  25.764  0.00  0.00    +0.212 C 
ATOM     24  C   UNL     1      -3.016   4.736  27.233  0.00  0.00    +0.109 C 
ENDBRANCH   6  10
ENDBRANCH  13   6
ENDBRANCH   9  13
BRANCH  12  20
ATOM     20  C   UNL     1      -0.481   1.407  24.219  0.00  0.00    +0.090 C 
BRANCH  20  21
ATOM      4  O   UNL     1       1.953  -0.293  22.175  0.00  0.00    -0.357 OA
ATOM      8  N   UNL     1       0.655  -0.087  22.628  0.00  0.00    -0.083 NA
ATOM     21  C   UNL     1       0.752   0.908  23.513  0.00  0.00    +0.086 A 
ATOM     23  C   UNL     1       2.073   1.366  23.659  0.00  0.00    +0.073 A 
ATOM     25  C   UNL     1       2.788   0.579  22.796  0.00  0.00    +0.163 A 
BRANCH  25  26
ATOM     26  C   UNL     1       4.208   0.498  22.432  0.00  0.00    +0.236 C 
BRANCH  26   5
ATOM      5  O   UNL     1       5.028   0.760  23.573  0.00  0.00    -0.375 OA
ATOM     27  C   UNL     1       5.411  -0.444  24.216  0.00  0.00    +0.194 C 
ENDBRANCH  26   5
ENDBRANCH  25  26
ENDBRANCH  20  21
ENDBRANCH  12  20
TORSDOF 8
ENDMDL
MODEL 5
REMARK VINA RESULT:      -1.4      1.864      3.712
REMARK  Name = 86768994
REMARK  10 active torsions:
REMARK  status: ('A' for Active; 'I' for Inactive)
REMARK    1  A    between atoms: O_2  and  C_11
REMARK    2  A    between atoms: O_5  and  C_26
REMARK    3  A    between atoms: O_5  and  C_27
REMARK    4  A    between atoms: N_6  and  C_10
REMARK    5  A    between atoms: N_6  and  C_13
REMARK    6  A    between atoms: C_9  and  C_13
REMARK    7  A    between atoms: C_12  and  C_20
REMARK    8  A    between atoms: C_20  and  C_21
REMARK    9  A    between atoms: C_22  and  C_24
REMARK   10  A    between atoms: C_25  and  C_26
REMARK                            x       y       z     vdW  Elec       q    Type
REMARK                         _______ _______ _______ _____ _____    ______ ____
ROOT
ATOM      1  O   UNL     1      -0.358   0.995  23.378  0.00  0.00    -0.369 OA
ATOM      9  C   UNL     1      -1.236   1.549  24.368  0.00  0.00    +0.161 C 
ATOM     11  C   UNL     1      -2.023   0.450  25.094  0.00  0.00    +0.145 C 
ATOM     12  C   UNL     1       0.560   0.013  23.862  0.00  0.00    +0.125 C 
ATOM     14  C   UNL     1      -1.122  -0.675  25.596  0.00  0.00    +0.036 C 
ATOM     15  C   UNL     1      -0.189  -1.161  24.491  0.00  0.00    +0.034 C 
ENDROOT
BRANCH  11   2
ATOM      2  O   UNL     1      -2.966  -0.121  24.181  0.00  0.00    -0.389 OA
ATOM     29  H   UNL     1      -3.770   0.424  24.211  0.00  0.00    +0.210 HD
ENDBRANCH  11   2
BRANCH   9  13
ATOM     13  C   UNL     1      -0.479   2.470  25.322  0.00  0.00    +0.115 C 
BRANCH  13   6
ATOM      6  N   UNL     1      -0.713   3.870  24.998  0.00  0.00    -0.311 NA
ATOM     28  H   UNL     1      -0.364   4.058  24.059  0.00  0.00    +0.122 HD
BRANCH   6  10
ATOM      3  O   UNL     1      -6.311   2.274  26.978  0.00  0.00    -0.276 OA
ATOM      7  N   UNL     1      -4.878   3.363  25.510  0.00  0.00    -0.302 N 
ATOM     10  C   UNL     1      -2.135   4.192  25.091  0.00  0.00    +0.057 C 
ATOM     16  C   UNL     1      -2.919   3.433  24.012  0.00  0.00    +0.037 C 
ATOM     17  C   UNL     1      -2.664   3.837  26.487  0.00  0.00    +0.037 C 
ATOM     18  C   UNL     1      -4.421   3.680  24.151  0.00  0.00    +0.109 C 
ATOM     19  C   UNL     1      -4.170   4.076  26.576  0.00  0.00    +0.109 C 
ATOM     22  C   UNL     1      -5.922   2.496  25.828  0.00  0.00    +0.212 C 
ATOM     24  C   UNL     1      -6.598   1.798  24.674  0.00  0.00    +0.109 C 
ENDBRANCH   6  10
ENDBRANCH  13   6
ENDBRANCH   9  13
BRANCH  12  20
ATOM     20  C   UNL     1       1.400  -0.451  22.680  0.00  0.00    +0.090 C 
BRANCH  20  21
ATOM      4  O   UNL     1       4.707   0.978  22.812  0.00  0.00    -0.357 OA
ATOM      8  N   UNL     1       3.357   1.028  22.484  0.00  0.00    -0.083 NA
ATOM     21  C   UNL     1       2.861  -0.148  22.879  0.00  0.00    +0.086 A 
ATOM     23  C   UNL     1       3.842  -0.973  23.458  0.00  0.00    +0.073 A 
ATOM     25  C   UNL     1       4.982  -0.218  23.392  0.00  0.00    +0.163 A 
BRANCH  25  26
ATOM     26  C   UNL     1       6.374  -0.441  23.804  0.00  0.00    +0.236 C 
BRANCH  26   5
ATOM      5  O   UNL     1       7.249  -0.327  22.679  0.00  0.00    -0.375 OA
ATOM     27  C   UNL     1       8.607  -0.303  23.086  0.00  0.00    +0.194 C 
ENDBRANCH  26   5
ENDBRANCH  25  26
ENDBRANCH  20  21
ENDBRANCH  12  20
TORSDOF 8
ENDMDL
MODEL 6
REMARK VINA RESULT:      -1.3      2.110      5.308
REMARK  Name = 86768994
REMARK  10 active torsions:
REMARK  status: ('A' for Active; 'I' for Inactive)
REMARK    1  A    between atoms: O_2  and  C_11
REMARK    2  A    between atoms: O_5  and  C_26
REMARK    3  A    between atoms: O_5  and  C_27
REMARK    4  A    between atoms: N_6  and  C_10
REMARK    5  A    between atoms: N_6  and  C_13
REMARK    6  A    between atoms: C_9  and  C_13
REMARK    7  A    between atoms: C_12  and  C_20
REMARK    8  A    between atoms: C_20  and  C_21
REMARK    9  A    between atoms: C_22  and  C_24
REMARK   10  A    between atoms: C_25  and  C_26
REMARK                            x       y       z     vdW  Elec       q    Type
REMARK                         _______ _______ _______ _____ _____    ______ ____
ROOT
ATOM      1  O   UNL     1      -4.751   2.635  24.268  0.00  0.00    -0.369 OA
ATOM      9  C   UNL     1      -4.384   3.851  24.935  0.00  0.00    +0.161 C 
ATOM     11  C   UNL     1      -5.403   4.221  26.021  0.00  0.00    +0.145 C 
ATOM     12  C   UNL     1      -4.944   1.507  25.124  0.00  0.00    +0.125 C 
ATOM     14  C   UNL     1      -5.714   3.050  26.950  0.00  0.00    +0.036 C 
ATOM     15  C   UNL     1      -6.039   1.791  26.151  0.00  0.00    +0.034 C 
ENDROOT
BRANCH  11   2
ATOM      2  O   UNL     1      -6.626   4.613  25.390  0.00  0.00    -0.389 OA
ATOM     29  H   UNL     1      -6.942   3.857  24.867  0.00  0.00    +0.210 HD
ENDBRANCH  11   2
BRANCH   9  13
ATOM     13  C   UNL     1      -2.952   3.780  25.460  0.00  0.00    +0.115 C 
BRANCH  13   6
ATOM      6  N   UNL     1      -1.996   3.681  24.368  0.00  0.00    -0.311 NA
ATOM     28  H   UNL     1      -1.351   4.469  24.416  0.00  0.00    +0.122 HD
BRANCH   6  10
ATOM      3  O   UNL     1       2.939   0.408  22.711  0.00  0.00    -0.276 OA
ATOM      7  N   UNL     1       0.715   0.601  23.354  0.00  0.00    -0.302 N 
ATOM     10  C   UNL     1      -1.267   2.417  24.432  0.00  0.00    +0.057 C 
ATOM     16  C   UNL     1      -1.538   1.587  23.169  0.00  0.00    +0.037 C 
ATOM     17  C   UNL     1       0.237   2.684  24.584  0.00  0.00    +0.037 C 
ATOM     18  C   UNL     1      -0.710   0.302  23.169  0.00  0.00    +0.109 C 
ATOM     19  C   UNL     1       1.028   1.378  24.555  0.00  0.00    +0.109 C 
ATOM     22  C   UNL     1       1.744   0.175  22.515  0.00  0.00    +0.212 C 
ATOM     24  C   UNL     1       1.339  -0.618  21.297  0.00  0.00    +0.109 C 
ENDBRANCH   6  10
ENDBRANCH  13   6
ENDBRANCH   9  13
BRANCH  12  20
ATOM     20  C   UNL     1      -5.322   0.323  24.242  0.00  0.00    +0.090 C 
BRANCH  20  21
ATOM      4  O   UNL     1      -3.402  -2.715  23.963  0.00  0.00    -0.357 OA
ATOM      8  N   UNL     1      -4.468  -1.896  23.609  0.00  0.00    -0.083 NA
ATOM     21  C   UNL     1      -4.328  -0.801  24.362  0.00  0.00    +0.086 A 
ATOM     23  C   UNL     1      -3.203  -0.872  25.201  0.00  0.00    +0.073 A 
ATOM     25  C   UNL     1      -2.656  -2.093  24.912  0.00  0.00    +0.163 A 
BRANCH  25  26
ATOM     26  C   UNL     1      -1.481  -2.824  25.403  0.00  0.00    +0.236 C 
BRANCH  26   5
ATOM      5  O   UNL     1      -0.396  -1.921  25.631  0.00  0.00    -0.375 OA
ATOM     27  C   UNL     1       0.847  -2.523  25.307  0.00  0.00    +0.194 C 
ENDBRANCH  26   5
ENDBRANCH  25  26
ENDBRANCH  20  21
ENDBRANCH  12  20
TORSDOF 8
ENDMDL
MODEL 7
REMARK VINA RESULT:      -1.3      1.828      6.423
REMARK  Name = 86768994
REMARK  10 active torsions:
REMARK  status: ('A' for Active; 'I' for Inactive)
REMARK    1  A    between atoms: O_2  and  C_11
REMARK    2  A    between atoms: O_5  and  C_26
REMARK    3  A    between atoms: O_5  and  C_27
REMARK    4  A    between atoms: N_6  and  C_10
REMARK    5  A    between atoms: N_6  and  C_13
REMARK    6  A    between atoms: C_9  and  C_13
REMARK    7  A    between atoms: C_12  and  C_20
REMARK    8  A    between atoms: C_20  and  C_21
REMARK    9  A    between atoms: C_22  and  C_24
REMARK   10  A    between atoms: C_25  and  C_26
REMARK                            x       y       z     vdW  Elec       q    Type
REMARK                         _______ _______ _______ _____ _____    ______ ____
ROOT
ATOM      1  O   UNL     1      -2.689   2.915  24.073  0.00  0.00    -0.369 OA
ATOM      9  C   UNL     1      -1.419   3.577  24.149  0.00  0.00    +0.161 C 
ATOM     11  C   UNL     1      -1.503   4.846  25.008  0.00  0.00    +0.145 C 
ATOM     12  C   UNL     1      -3.279   2.583  25.332  0.00  0.00    +0.125 C 
ATOM     14  C   UNL     1      -2.175   4.594  26.355  0.00  0.00    +0.036 C 
ATOM     15  C   UNL     1      -3.489   3.838  26.176  0.00  0.00    +0.034 C 
ENDROOT
BRANCH  11   2
ATOM      2  O   UNL     1      -2.279   5.824  24.310  0.00  0.00    -0.389 OA
ATOM     29  H   UNL     1      -1.660   6.455  23.904  0.00  0.00    +0.210 HD
ENDBRANCH  11   2
BRANCH   9  13
ATOM     13  C   UNL     1      -0.324   2.616  24.609  0.00  0.00    +0.115 C 
BRANCH  13   6
ATOM      6  N   UNL     1      -0.504   1.296  24.025  0.00  0.00    -0.311 NA
ATOM     28  H   UNL     1      -1.338   1.301  23.438  0.00  0.00    +0.122 HD
BRANCH   6  10
ATOM      3  O   UNL     1       4.822  -1.766  23.771  0.00  0.00    -0.276 OA
ATOM      7  N   UNL     1       3.399  -0.048  23.119  0.00  0.00    -0.302 N 
ATOM     10  C   UNL     1       0.670   0.911  23.245  0.00  0.00    +0.057 C 
ATOM     16  C   UNL     1       1.858   1.816  23.600  0.00  0.00    +0.037 C 
ATOM     17  C   UNL     1       1.019  -0.559  23.511  0.00  0.00    +0.037 C 
ATOM     18  C   UNL     1       3.124   1.371  22.868  0.00  0.00    +0.109 C 
ATOM     19  C   UNL     1       2.301  -0.956  22.781  0.00  0.00    +0.109 C 
ATOM     22  C   UNL     1       4.602  -0.564  23.601  0.00  0.00    +0.212 C 
ATOM     24  C   UNL     1       5.683   0.436  23.930  0.00  0.00    +0.109 C 
ENDBRANCH   6  10
ENDBRANCH  13   6
ENDBRANCH   9  13
BRANCH  12  20
ATOM     20  C   UNL     1      -4.606   1.892  25.048  0.00  0.00    +0.090 C 
BRANCH  20  21
ATOM      4  O   UNL     1      -4.781  -1.534  23.939  0.00  0.00    -0.357 OA
ATOM      8  N   UNL     1      -5.205  -0.211  23.918  0.00  0.00    -0.083 NA
ATOM     21  C   UNL     1      -4.427   0.417  24.804  0.00  0.00    +0.086 A 
ATOM     23  C   UNL     1      -3.500  -0.451  25.409  0.00  0.00    +0.073 A 
ATOM     25  C   UNL     1      -3.765  -1.664  24.831  0.00  0.00    +0.163 A 
BRANCH  25  26
ATOM     26  C   UNL     1      -3.193  -3.007  24.980  0.00  0.00    +0.236 C 
BRANCH  26   5
ATOM      5  O   UNL     1      -1.928  -3.085  24.317  0.00  0.00    -0.375 OA
ATOM     27  C   UNL     1      -0.909  -2.464  25.083  0.00  0.00    +0.194 C 
ENDBRANCH  26   5
ENDBRANCH  25  26
ENDBRANCH  20  21
ENDBRANCH  12  20
TORSDOF 8
ENDMDL
MODEL 8
REMARK VINA RESULT:      -0.8      2.082      2.761
REMARK  Name = 86768994
REMARK  10 active torsions:
REMARK  status: ('A' for Active; 'I' for Inactive)
REMARK    1  A    between atoms: O_2  and  C_11
REMARK    2  A    between atoms: O_5  and  C_26
REMARK    3  A    between atoms: O_5  and  C_27
REMARK    4  A    between atoms: N_6  and  C_10
REMARK    5  A    between atoms: N_6  and  C_13
REMARK    6  A    between atoms: C_9  and  C_13
REMARK    7  A    between atoms: C_12  and  C_20
REMARK    8  A    between atoms: C_20  and  C_21
REMARK    9  A    between atoms: C_22  and  C_24
REMARK   10  A    between atoms: C_25  and  C_26
REMARK                            x       y       z     vdW  Elec       q    Type
REMARK                         _______ _______ _______ _____ _____    ______ ____
ROOT
ATOM      1  O   UNL     1      -3.056  -0.456  23.689  0.00  0.00    -0.369 OA
ATOM      9  C   UNL     1      -4.368  -0.852  24.108  0.00  0.00    +0.161 C 
ATOM     11  C   UNL     1      -4.494  -2.380  24.180  0.00  0.00    +0.145 C 
ATOM     12  C   UNL     1      -1.983  -0.971  24.480  0.00  0.00    +0.125 C 
ATOM     14  C   UNL     1      -3.351  -3.021  24.963  0.00  0.00    +0.036 C 
ATOM     15  C   UNL     1      -2.000  -2.498  24.483  0.00  0.00    +0.034 C 
ENDROOT
BRANCH  11   2
ATOM      2  O   UNL     1      -4.461  -2.908  22.850  0.00  0.00    -0.389 OA
ATOM     29  H   UNL     1      -3.527  -3.019  22.602  0.00  0.00    +0.210 HD
ENDBRANCH  11   2
BRANCH   9  13
ATOM     13  C   UNL     1      -4.763  -0.160  25.411  0.00  0.00    +0.115 C 
BRANCH  13   6
ATOM      6  N   UNL     1      -5.854   0.778  25.198  0.00  0.00    -0.311 NA
ATOM     28  H   UNL     1      -6.345   0.925  26.080  0.00  0.00    +0.122 HD
BRANCH   6  10
ATOM      3  O   UNL     1      -1.019   4.208  23.568  0.00  0.00    -0.276 OA
ATOM      7  N   UNL     1      -3.197   3.949  24.333  0.00  0.00    -0.302 N 
ATOM     10  C   UNL     1      -5.353   2.045  24.672  0.00  0.00    +0.057 C 
ATOM     16  C   UNL     1      -4.887   2.947  25.824  0.00  0.00    +0.037 C 
ATOM     17  C   UNL     1      -4.200   1.789  23.693  0.00  0.00    +0.037 C 
ATOM     18  C   UNL     1      -4.269   4.240  25.292  0.00  0.00    +0.109 C 
ATOM     19  C   UNL     1      -3.596   3.104  23.205  0.00  0.00    +0.109 C 
ATOM     22  C   UNL     1      -1.893   4.438  24.407  0.00  0.00    +0.212 C 
ATOM     24  C   UNL     1      -1.560   5.298  25.601  0.00  0.00    +0.109 C 
ENDBRANCH   6  10
ENDBRANCH  13   6
ENDBRANCH   9  13
BRANCH  12  20
ATOM     20  C   UNL     1      -0.682  -0.444  23.888  0.00  0.00    +0.090 C 
BRANCH  20  21
ATOM      4  O   UNL     1       1.039   2.474  25.117  0.00  0.00    -0.357 OA
ATOM      8  N   UNL     1       0.743   1.548  24.125  0.00  0.00    -0.083 NA
ATOM     21  C   UNL     1      -0.132   0.708  24.685  0.00  0.00    +0.086 A 
ATOM     23  C   UNL     1      -0.421   1.051  26.018  0.00  0.00    +0.073 A 
ATOM     25  C   UNL     1       0.340   2.167  26.240  0.00  0.00    +0.163 A 
BRANCH  25  26
ATOM     26  C   UNL     1       0.536   3.051  27.396  0.00  0.00    +0.236 C 
BRANCH  26   5
ATOM      5  O   UNL     1       1.765   2.739  28.056  0.00  0.00    -0.375 OA
ATOM     27  C   UNL     1       1.556   2.484  29.435  0.00  0.00    +0.194 C 
ENDBRANCH  26   5
ENDBRANCH  25  26
ENDBRANCH  20  21
ENDBRANCH  12  20
TORSDOF 8
ENDMDL
MODEL 9
REMARK VINA RESULT:      -0.3      1.446      1.805
REMARK  Name = 86768994
REMARK  10 active torsions:
REMARK  status: ('A' for Active; 'I' for Inactive)
REMARK    1  A    between atoms: O_2  and  C_11
REMARK    2  A    between atoms: O_5  and  C_26
REMARK    3  A    between atoms: O_5  and  C_27
REMARK    4  A    between atoms: N_6  and  C_10
REMARK    5  A    between atoms: N_6  and  C_13
REMARK    6  A    between atoms: C_9  and  C_13
REMARK    7  A    between atoms: C_12  and  C_20
REMARK    8  A    between atoms: C_20  and  C_21
REMARK    9  A    between atoms: C_22  and  C_24
REMARK   10  A    between atoms: C_25  and  C_26
REMARK                            x       y       z     vdW  Elec       q    Type
REMARK                         _______ _______ _______ _____ _____    ______ ____
ROOT
ATOM      1  O   UNL     1      -2.871  -0.304  24.592  0.00  0.00    -0.369 OA
ATOM      9  C   UNL     1      -4.200  -0.485  24.085  0.00  0.00    +0.161 C 
ATOM     11  C   UNL     1      -4.484  -1.960  23.776  0.00  0.00    +0.145 C 
ATOM     12  C   UNL     1      -2.548  -1.087  25.744  0.00  0.00    +0.125 C 
ATOM     14  C   UNL     1      -4.112  -2.880  24.937  0.00  0.00    +0.036 C 
ATOM     15  C   UNL     1      -2.705  -2.577  25.443  0.00  0.00    +0.034 C 
ENDROOT
BRANCH  11   2
ATOM      2  O   UNL     1      -3.704  -2.352  22.643  0.00  0.00    -0.389 OA
ATOM     29  H   UNL     1      -2.772  -2.374  22.921  0.00  0.00    +0.210 HD
ENDBRANCH  11   2
BRANCH   9  13
ATOM     13  C   UNL     1      -5.235   0.139  25.019  0.00  0.00    +0.115 C 
BRANCH  13   6
ATOM      6  N   UNL     1      -5.407   1.557  24.741  0.00  0.00    -0.311 NA
ATOM     28  H   UNL     1      -6.358   1.832  24.984  0.00  0.00    +0.122 HD
BRANCH   6  10
ATOM      3  O   UNL     1      -1.904   6.602  25.038  0.00  0.00    -0.276 OA
ATOM      7  N   UNL     1      -2.381   4.391  25.567  0.00  0.00    -0.302 N 
ATOM     10  C   UNL     1      -4.436   2.352  25.490  0.00  0.00    +0.057 C 
ATOM     16  C   UNL     1      -3.019   2.086  24.964  0.00  0.00    +0.037 C 
ATOM     17  C   UNL     1      -4.778   3.843  25.377  0.00  0.00    +0.037 C 
ATOM     18  C   UNL     1      -1.997   2.978  25.667  0.00  0.00    +0.109 C 
ATOM     19  C   UNL     1      -3.721   4.699  26.072  0.00  0.00    +0.109 C 
ATOM     22  C   UNL     1      -1.571   5.415  25.079  0.00  0.00    +0.212 C 
ATOM     24  C   UNL     1      -0.207   5.016  24.573  0.00  0.00    +0.109 C 
ENDBRANCH   6  10
ENDBRANCH  13   6
ENDBRANCH   9  13
BRANCH  12  20
ATOM     20  C   UNL     1      -1.112  -0.761  26.132  0.00  0.00    +0.090 C 
BRANCH  20  21
ATOM      4  O   UNL     1       0.732   1.060  23.627  0.00  0.00    -0.357 OA
ATOM      8  N   UNL     1      -0.009   0.990  24.800  0.00  0.00    -0.083 NA
ATOM     21  C   UNL     1      -0.304  -0.305  24.947  0.00  0.00    +0.086 A 
ATOM     23  C   UNL     1       0.220  -1.092  23.906  0.00  0.00    +0.073 A 
ATOM     25  C   UNL     1       0.862  -0.186  23.104  0.00  0.00    +0.163 A 
BRANCH  25  26
ATOM     26  C   UNL     1       1.623  -0.296  21.854  0.00  0.00    +0.236 C 
BRANCH  26   5
ATOM      5  O   UNL     1       2.862   0.410  21.963  0.00  0.00    -0.375 OA
ATOM     27  C   UNL     1       3.707  -0.186  22.933  0.00  0.00    +0.194 C 
ENDBRANCH  26   5
ENDBRANCH  25  26
ENDBRANCH  20  21
ENDBRANCH  12  20
TORSDOF 8
ENDMDL
MODEL 10
REMARK VINA RESULT:       0.5      2.681      5.423
REMARK  Name = 86768994
REMARK  10 active torsions:
REMARK  status: ('A' for Active; 'I' for Inactive)
REMARK    1  A    between atoms: O_2  and  C_11
REMARK    2  A    between atoms: O_5  and  C_26
REMARK    3  A    between atoms: O_5  and  C_27
REMARK    4  A    between atoms: N_6  and  C_10
REMARK    5  A    between atoms: N_6  and  C_13
REMARK    6  A    between atoms: C_9  and  C_13
REMARK    7  A    between atoms: C_12  and  C_20
REMARK    8  A    between atoms: C_20  and  C_21
REMARK    9  A    between atoms: C_22  and  C_24
REMARK   10  A    between atoms: C_25  and  C_26
REMARK                            x       y       z     vdW  Elec       q    Type
REMARK                         _______ _______ _______ _____ _____    ______ ____
ROOT
ATOM      1  O   UNL     1      -2.387   0.053  24.632  0.00  0.00    -0.369 OA
ATOM      9  C   UNL     1      -1.883  -0.850  25.625  0.00  0.00    +0.161 C 
ATOM     11  C   UNL     1      -2.889  -1.969  25.924  0.00  0.00    +0.145 C 
ATOM     12  C   UNL     1      -2.782  -0.555  23.400  0.00  0.00    +0.125 C 
ATOM     14  C   UNL     1      -3.409  -2.639  24.654  0.00  0.00    +0.036 C 
ATOM     15  C   UNL     1      -3.872  -1.598  23.639  0.00  0.00    +0.034 C 
ENDROOT
BRANCH  11   2
ATOM      2  O   UNL     1      -4.012  -1.408  26.611  0.00  0.00    -0.389 OA
ATOM     29  H   UNL     1      -4.794  -1.934  26.372  0.00  0.00    +0.210 HD
ENDBRANCH  11   2
BRANCH   9  13
ATOM     13  C   UNL     1      -0.503  -1.377  25.239  0.00  0.00    +0.115 C 
BRANCH  13   6
ATOM      6  N   UNL     1       0.119  -0.533  24.229  0.00  0.00    -0.311 NA
ATOM     28  H   UNL     1      -0.483  -0.499  23.407  0.00  0.00    +0.122 HD
BRANCH   6  10
ATOM      3  O   UNL     1      -2.242   4.690  26.454  0.00  0.00    -0.276 OA
ATOM      7  N   UNL     1      -0.602   3.481  25.338  0.00  0.00    -0.302 N 
ATOM     10  C   UNL     1       0.353   0.811  24.751  0.00  0.00    +0.057 C 
ATOM     16  C   UNL     1       0.142   1.851  23.643  0.00  0.00    +0.037 C 
ATOM     17  C   UNL     1      -0.587   1.088  25.931  0.00  0.00    +0.037 C 
ATOM     18  C   UNL     1       0.287   3.271  24.189  0.00  0.00    +0.109 C 
ATOM     19  C   UNL     1      -0.427   2.522  26.431  0.00  0.00    +0.109 C 
ATOM     22  C   UNL     1      -1.531   4.513  25.462  0.00  0.00    +0.212 C 
ATOM     24  C   UNL     1      -1.653   5.457  24.291  0.00  0.00    +0.109 C 
ENDBRANCH   6  10
ENDBRANCH  13   6
ENDBRANCH   9  13
BRANCH  12  20
ATOM     20  C   UNL     1      -3.282   0.553  22.482  0.00  0.00    +0.090 C 
BRANCH  20  21
ATOM      4  O   UNL     1      -4.208   3.783  23.787  0.00  0.00    -0.357 OA
ATOM      8  N   UNL     1      -3.565   2.967  22.864  0.00  0.00    -0.083 NA
ATOM     21  C   UNL     1      -3.828   1.719  23.262  0.00  0.00    +0.086 A 
ATOM     23  C   UNL     1      -4.625   1.686  24.419  0.00  0.00    +0.073 A 
ATOM     25  C   UNL     1      -4.836   3.008  24.708  0.00  0.00    +0.163 A 
BRANCH  25  26
ATOM     26  C   UNL     1      -5.570   3.712  25.766  0.00  0.00    +0.236 C 
BRANCH  26   5
ATOM      5  O   UNL     1      -5.737   2.864  26.905  0.00  0.00    -0.375 OA
ATOM     27  C   UNL     1      -6.619   1.791  26.619  0.00  0.00    +0.194 C 
ENDBRANCH  26   5
ENDBRANCH  25  26
ENDBRANCH  20  21
ENDBRANCH  12  20
TORSDOF 8
ENDMDL
