MODEL 1
REMARK VINA RESULT:      -3.4      0.000      0.000
REMARK  Name = 40777345
REMARK  6 active torsions:
REMARK  status: ('A' for Active; 'I' for Inactive)
REMARK    1  A    between atoms: C_7  and  C_12
REMARK    2  A    between atoms: C_8  and  C_11
REMARK    3  A    between atoms: C_11  and  C_21
REMARK    4  A    between atoms: C_12  and  C_22
REMARK    5  A    between atoms: C_14  and  C_17
REMARK    6  A    between atoms: C_17  and  C_23
REMARK                            x       y       z     vdW  Elec       q    Type
REMARK                         _______ _______ _______ _____ _____    ______ ____
ROOT
ATOM      4  N   UNL     1      -3.251  -3.380  24.438  0.00  0.00    -0.316 NA
ATOM      7  C   UNL     1      -3.603  -0.462  24.179  0.00  0.00    +0.004 C 
ATOM      8  C   UNL     1      -2.236  -1.115  24.494  0.00  0.00    +0.012 C 
ATOM      9  C   UNL     1      -4.491  -1.484  23.453  0.00  0.00    +0.019 C 
ATOM     10  C   UNL     1      -2.403  -2.468  25.206  0.00  0.00    +0.085 C 
ATOM     13  C   UNL     1      -4.577  -2.815  24.198  0.00  0.00    +0.081 C 
ATOM     29  H   UNL     1      -3.346  -4.260  24.945  0.00  0.00    +0.122 HD
ENDROOT
BRANCH   8  11
ATOM     11  C   UNL     1      -1.303  -0.200  25.291  0.00  0.00    +0.064 C 
BRANCH  11  21
ATOM      1  O   UNL     1       1.473   1.523  23.780  0.00  0.00    -0.359 OA
ATOM      6  N   UNL     1       0.449   1.423  24.713  0.00  0.00    -0.083 NA
ATOM     21  C   UNL     1      -0.137   0.249  24.459  0.00  0.00    +0.084 A 
ATOM     23  C   UNL     1       1.475   0.415  22.996  0.00  0.00    +0.138 A 
ATOM     24  C   UNL     1       0.469  -0.428  23.387  0.00  0.00    +0.071 A 
BRANCH  23  17
ATOM     17  C   UNL     1       2.501   0.356  21.948  0.00  0.00    +0.080 C 
BRANCH  17  14
ATOM     14  C   UNL     1       3.850  -0.150  22.456  0.00  0.00    -0.004 C 
ATOM     15  C   UNL     1       4.665   0.998  23.066  0.00  0.00    +0.004 C 
ATOM     16  C   UNL     1       3.656  -1.283  23.473  0.00  0.00    +0.004 C 
ATOM     18  C   UNL     1       5.997   0.507  23.629  0.00  0.00    +0.000 C 
ATOM     19  C   UNL     1       4.989  -1.770  24.037  0.00  0.00    +0.000 C 
ATOM     20  C   UNL     1       5.800  -0.624  24.634  0.00  0.00    +0.000 C 
ENDBRANCH  17  14
ENDBRANCH  23  17
ENDBRANCH  11  21
ENDBRANCH   8  11
BRANCH   7  12
ATOM     12  C   UNL     1      -4.319   0.110  25.408  0.00  0.00    +0.100 C 
BRANCH  12  22
ATOM      2  O   UNL     1      -6.130   1.548  24.890  0.00  0.00    -0.276 OA
ATOM      3  O   UNL     1      -2.482   4.809  25.608  0.00  0.00    -0.377 OA
ATOM      5  N   UNL     1      -4.030   2.529  25.019  0.00  0.00    -0.297 N 
ATOM     22  C   UNL     1      -4.915   1.455  25.081  0.00  0.00    +0.216 C 
ATOM     25  C   UNL     1      -4.527   3.870  24.712  0.00  0.00    +0.136 C 
ATOM     26  C   UNL     1      -2.569   2.434  25.114  0.00  0.00    +0.136 C 
ATOM     27  C   UNL     1      -3.908   4.894  25.653  0.00  0.00    +0.179 C 
ATOM     28  C   UNL     1      -2.029   3.521  26.036  0.00  0.00    +0.179 C 
ENDBRANCH  12  22
ENDBRANCH   7  12
TORSDOF 6
ENDMDL
MODEL 2
REMARK VINA RESULT:      -2.2      1.836      6.238
REMARK  Name = 40777345
REMARK  6 active torsions:
REMARK  status: ('A' for Active; 'I' for Inactive)
REMARK    1  A    between atoms: C_7  and  C_12
REMARK    2  A    between atoms: C_8  and  C_11
REMARK    3  A    between atoms: C_11  and  C_21
REMARK    4  A    between atoms: C_12  and  C_22
REMARK    5  A    between atoms: C_14  and  C_17
REMARK    6  A    between atoms: C_17  and  C_23
REMARK                            x       y       z     vdW  Elec       q    Type
REMARK                         _______ _______ _______ _____ _____    ______ ____
ROOT
ATOM      4  N   UNL     1      -3.617  -3.477  24.422  0.00  0.00    -0.316 NA
ATOM      7  C   UNL     1      -2.825  -0.697  25.011  0.00  0.00    +0.004 C 
ATOM      8  C   UNL     1      -4.278  -1.095  24.661  0.00  0.00    +0.012 C 
ATOM      9  C   UNL     1      -2.094  -1.920  25.587  0.00  0.00    +0.019 C 
ATOM     10  C   UNL     1      -4.326  -2.363  23.791  0.00  0.00    +0.085 C 
ATOM     13  C   UNL     1      -2.218  -3.150  24.689  0.00  0.00    +0.081 C 
ATOM     29  H   UNL     1      -3.662  -4.294  23.813  0.00  0.00    +0.122 HD
ENDROOT
BRANCH   8  11
ATOM     11  C   UNL     1      -5.069   0.037  24.004  0.00  0.00    +0.064 C 
BRANCH  11  21
ATOM      1  O   UNL     1      -5.609   2.688  26.379  0.00  0.00    -0.359 OA
ATOM      6  N   UNL     1      -5.924   1.456  25.819  0.00  0.00    -0.083 NA
ATOM     21  C   UNL     1      -5.033   1.285  24.838  0.00  0.00    +0.084 A 
ATOM     23  C   UNL     1      -4.546   3.220  25.725  0.00  0.00    +0.138 A 
ATOM     24  C   UNL     1      -4.140   2.365  24.734  0.00  0.00    +0.071 A 
BRANCH  23  17
ATOM     17  C   UNL     1      -4.077   4.530  26.191  0.00  0.00    +0.080 C 
BRANCH  17  14
ATOM     14  C   UNL     1      -2.566   4.709  26.063  0.00  0.00    -0.004 C 
ATOM     15  C   UNL     1      -1.850   3.354  26.157  0.00  0.00    +0.004 C 
ATOM     16  C   UNL     1      -2.213   5.424  24.752  0.00  0.00    +0.004 C 
ATOM     18  C   UNL     1      -0.341   3.501  25.978  0.00  0.00    +0.000 C 
ATOM     19  C   UNL     1      -0.704   5.566  24.575  0.00  0.00    +0.000 C 
ATOM     20  C   UNL     1       0.005   4.219  24.677  0.00  0.00    +0.000 C 
ENDBRANCH  17  14
ENDBRANCH  23  17
ENDBRANCH  11  21
ENDBRANCH   8  11
BRANCH   7  12
ATOM     12  C   UNL     1      -2.043  -0.095  23.838  0.00  0.00    +0.100 C 
BRANCH  12  22
ATOM      2  O   UNL     1      -0.527   0.666  25.494  0.00  0.00    -0.276 OA
ATOM      3  O   UNL     1       2.515  -0.071  21.666  0.00  0.00    -0.377 OA
ATOM      5  N   UNL     1       0.310   0.456  23.339  0.00  0.00    -0.297 N 
ATOM     22  C   UNL     1      -0.690   0.378  24.306  0.00  0.00    +0.216 C 
ATOM     25  C   UNL     1       1.653   0.901  23.709  0.00  0.00    +0.136 C 
ATOM     26  C   UNL     1       0.120   0.244  21.900  0.00  0.00    +0.136 C 
ATOM     27  C   UNL     1       2.704  -0.003  23.081  0.00  0.00    +0.179 C 
ATOM     28  C   UNL     1       1.238  -0.629  21.343  0.00  0.00    +0.179 C 
ENDBRANCH  12  22
ENDBRANCH   7  12
TORSDOF 6
ENDMDL
MODEL 3
REMARK VINA RESULT:      -2.0      1.722      4.256
REMARK  Name = 40777345
REMARK  6 active torsions:
REMARK  status: ('A' for Active; 'I' for Inactive)
REMARK    1  A    between atoms: C_7  and  C_12
REMARK    2  A    between atoms: C_8  and  C_11
REMARK    3  A    between atoms: C_11  and  C_21
REMARK    4  A    between atoms: C_12  and  C_22
REMARK    5  A    between atoms: C_14  and  C_17
REMARK    6  A    between atoms: C_17  and  C_23
REMARK                            x       y       z     vdW  Elec       q    Type
REMARK                         _______ _______ _______ _____ _____    ______ ____
ROOT
ATOM      4  N   UNL     1      -2.137   5.452  24.935  0.00  0.00    -0.316 NA
ATOM      7  C   UNL     1      -3.023   2.721  25.618  0.00  0.00    +0.004 C 
ATOM      8  C   UNL     1      -1.702   3.330  26.149  0.00  0.00    +0.012 C 
ATOM      9  C   UNL     1      -3.996   3.860  25.272  0.00  0.00    +0.019 C 
ATOM     10  C   UNL     1      -1.149   4.405  25.198  0.00  0.00    +0.085 C 
ATOM     13  C   UNL     1      -3.364   4.908  24.357  0.00  0.00    +0.081 C 
ATOM     29  H   UNL     1      -1.739   6.139  24.295  0.00  0.00    +0.122 HD
ENDROOT
BRANCH   8  11
ATOM     11  C   UNL     1      -0.634   2.276  26.448  0.00  0.00    +0.064 C 
BRANCH  11  21
ATOM      1  O   UNL     1       1.398   2.151  23.480  0.00  0.00    -0.359 OA
ATOM      6  N   UNL     1       0.831   2.825  24.554  0.00  0.00    -0.083 NA
ATOM     21  C   UNL     1       0.124   1.900  25.209  0.00  0.00    +0.084 A 
ATOM     23  C   UNL     1       1.020   0.848  23.517  0.00  0.00    +0.138 A 
ATOM     24  C   UNL     1       0.207   0.636  24.600  0.00  0.00    +0.071 A 
BRANCH  23  17
ATOM     17  C   UNL     1       1.533  -0.015  22.447  0.00  0.00    +0.080 C 
BRANCH  17  14
ATOM     14  C   UNL     1       3.018  -0.339  22.597  0.00  0.00    -0.004 C 
ATOM     15  C   UNL     1       3.826   0.936  22.874  0.00  0.00    +0.004 C 
ATOM     16  C   UNL     1       3.238  -1.377  23.706  0.00  0.00    +0.004 C 
ATOM     18  C   UNL     1       5.308   0.630  23.080  0.00  0.00    +0.000 C 
ATOM     19  C   UNL     1       4.720  -1.678  23.912  0.00  0.00    +0.000 C 
ATOM     20  C   UNL     1       5.521  -0.407  24.178  0.00  0.00    +0.000 C 
ENDBRANCH  17  14
ENDBRANCH  23  17
ENDBRANCH  11  21
ENDBRANCH   8  11
BRANCH   7  12
ATOM     12  C   UNL     1      -2.839   1.777  24.425  0.00  0.00    +0.100 C 
BRANCH  12  22
ATOM      2  O   UNL     1      -5.081   1.032  24.234  0.00  0.00    -0.276 OA
ATOM      3  O   UNL     1      -2.647  -3.268  24.411  0.00  0.00    -0.377 OA
ATOM      5  N   UNL     1      -3.483  -0.592  24.681  0.00  0.00    -0.297 N 
ATOM     22  C   UNL     1      -3.907   0.713  24.437  0.00  0.00    +0.216 C 
ATOM     25  C   UNL     1      -4.455  -1.684  24.705  0.00  0.00    +0.136 C 
ATOM     26  C   UNL     1      -2.120  -0.988  25.051  0.00  0.00    +0.136 C 
ATOM     27  C   UNL     1      -3.931  -2.878  23.919  0.00  0.00    +0.179 C 
ATOM     28  C   UNL     1      -1.693  -2.214  24.254  0.00  0.00    +0.179 C 
ENDBRANCH  12  22
ENDBRANCH   7  12
TORSDOF 6
ENDMDL
MODEL 4
REMARK VINA RESULT:      -1.8      1.731      4.243
REMARK  Name = 40777345
REMARK  6 active torsions:
REMARK  status: ('A' for Active; 'I' for Inactive)
REMARK    1  A    between atoms: C_7  and  C_12
REMARK    2  A    between atoms: C_8  and  C_11
REMARK    3  A    between atoms: C_11  and  C_21
REMARK    4  A    between atoms: C_12  and  C_22
REMARK    5  A    between atoms: C_14  and  C_17
REMARK    6  A    between atoms: C_17  and  C_23
REMARK                            x       y       z     vdW  Elec       q    Type
REMARK                         _______ _______ _______ _____ _____    ______ ____
ROOT
ATOM      4  N   UNL     1      -5.713   3.672  25.739  0.00  0.00    -0.316 NA
ATOM      7  C   UNL     1      -3.366   1.926  25.351  0.00  0.00    +0.004 C 
ATOM      8  C   UNL     1      -3.262   3.469  25.395  0.00  0.00    +0.012 C 
ATOM      9  C   UNL     1      -4.624   1.486  26.116  0.00  0.00    +0.019 C 
ATOM     10  C   UNL     1      -4.572   4.140  24.950  0.00  0.00    +0.085 C 
ATOM     13  C   UNL     1      -5.878   2.223  25.647  0.00  0.00    +0.081 C 
ATOM     29  H   UNL     1      -6.562   4.130  25.410  0.00  0.00    +0.122 HD
ENDROOT
BRANCH   8  11
ATOM     11  C   UNL     1      -2.080   4.014  24.591  0.00  0.00    +0.064 C 
BRANCH  11  21
ATOM      1  O   UNL     1       0.645   1.686  24.929  0.00  0.00    -0.359 OA
ATOM      6  N   UNL     1      -0.201   2.670  25.426  0.00  0.00    -0.083 NA
ATOM     21  C   UNL     1      -1.015   2.972  24.411  0.00  0.00    +0.084 A 
ATOM     23  C   UNL     1       0.319   1.425  23.637  0.00  0.00    +0.138 A 
ATOM     24  C   UNL     1      -0.732   2.218  23.259  0.00  0.00    +0.071 A 
BRANCH  23  17
ATOM     17  C   UNL     1       1.118   0.403  22.953  0.00  0.00    +0.080 C 
BRANCH  17  14
ATOM     14  C   UNL     1       2.536   0.277  23.507  0.00  0.00    -0.004 C 
ATOM     15  C   UNL     1       3.027  -1.174  23.418  0.00  0.00    +0.004 C 
ATOM     16  C   UNL     1       3.493   1.224  22.771  0.00  0.00    +0.004 C 
ATOM     18  C   UNL     1       4.463  -1.315  23.918  0.00  0.00    +0.000 C 
ATOM     19  C   UNL     1       4.928   1.079  23.271  0.00  0.00    +0.000 C 
ATOM     20  C   UNL     1       5.409  -0.366  23.188  0.00  0.00    +0.000 C 
ENDBRANCH  17  14
ENDBRANCH  23  17
ENDBRANCH  11  21
ENDBRANCH   8  11
BRANCH   7  12
ATOM     12  C   UNL     1      -3.354   1.340  23.935  0.00  0.00    +0.100 C 
BRANCH  12  22
ATOM      2  O   UNL     1      -4.821  -0.444  23.401  0.00  0.00    -0.276 OA
ATOM      3  O   UNL     1      -0.986  -2.893  25.338  0.00  0.00    -0.377 OA
ATOM      5  N   UNL     1      -2.942  -0.984  24.654  0.00  0.00    -0.297 N 
ATOM     22  C   UNL     1      -3.779  -0.106  23.969  0.00  0.00    +0.216 C 
ATOM     25  C   UNL     1      -3.279  -2.405  24.732  0.00  0.00    +0.136 C 
ATOM     26  C   UNL     1      -1.769  -0.598  25.445  0.00  0.00    +0.136 C 
ATOM     27  C   UNL     1      -2.049  -3.258  24.455  0.00  0.00    +0.179 C 
ATOM     28  C   UNL     1      -0.601  -1.529  25.143  0.00  0.00    +0.179 C 
ENDBRANCH  12  22
ENDBRANCH   7  12
TORSDOF 6
ENDMDL
MODEL 5
REMARK VINA RESULT:      -1.6      2.904      5.683
REMARK  Name = 40777345
REMARK  6 active torsions:
REMARK  status: ('A' for Active; 'I' for Inactive)
REMARK    1  A    between atoms: C_7  and  C_12
REMARK    2  A    between atoms: C_8  and  C_11
REMARK    3  A    between atoms: C_11  and  C_21
REMARK    4  A    between atoms: C_12  and  C_22
REMARK    5  A    between atoms: C_14  and  C_17
REMARK    6  A    between atoms: C_17  and  C_23
REMARK                            x       y       z     vdW  Elec       q    Type
REMARK                         _______ _______ _______ _____ _____    ______ ____
ROOT
ATOM      4  N   UNL     1      -0.585   5.780  25.019  0.00  0.00    -0.316 NA
ATOM      7  C   UNL     1      -1.614   3.037  24.666  0.00  0.00    +0.004 C 
ATOM      8  C   UNL     1      -0.162   3.438  24.310  0.00  0.00    +0.012 C 
ATOM      9  C   UNL     1      -2.157   4.010  25.725  0.00  0.00    +0.019 C 
ATOM     10  C   UNL     1      -0.057   4.929  23.951  0.00  0.00    +0.085 C 
ATOM     13  C   UNL     1      -1.982   5.472  25.317  0.00  0.00    +0.081 C 
ATOM     29  H   UNL     1      -0.506   6.758  24.742  0.00  0.00    +0.122 HD
ENDROOT
BRANCH   8  11
ATOM     11  C   UNL     1       0.443   2.574  23.201  0.00  0.00    +0.064 C 
BRANCH  11  21
ATOM      1  O   UNL     1       0.963  -0.977  23.481  0.00  0.00    -0.359 OA
ATOM      6  N   UNL     1       1.162   0.250  22.860  0.00  0.00    -0.083 NA
ATOM     21  C   UNL     1       0.457   1.123  23.585  0.00  0.00    +0.084 A 
ATOM     23  C   UNL     1       0.149  -0.809  24.554  0.00  0.00    +0.138 A 
ATOM     24  C   UNL     1      -0.201   0.510  24.665  0.00  0.00    +0.071 A 
BRANCH  23  17
ATOM     17  C   UNL     1      -0.168  -2.013  25.331  0.00  0.00    +0.080 C 
BRANCH  17  14
ATOM     14  C   UNL     1      -1.660  -2.339  25.352  0.00  0.00    -0.004 C 
ATOM     15  C   UNL     1      -2.475  -1.119  25.805  0.00  0.00    +0.004 C 
ATOM     16  C   UNL     1      -2.130  -2.828  23.975  0.00  0.00    +0.004 C 
ATOM     18  C   UNL     1      -3.975  -1.403  25.783  0.00  0.00    +0.000 C 
ATOM     19  C   UNL     1      -3.630  -3.109  23.956  0.00  0.00    +0.000 C 
ATOM     20  C   UNL     1      -4.435  -1.897  24.415  0.00  0.00    +0.000 C 
ENDBRANCH  17  14
ENDBRANCH  23  17
ENDBRANCH  11  21
ENDBRANCH   8  11
BRANCH   7  12
ATOM     12  C   UNL     1      -2.555   2.962  23.459  0.00  0.00    +0.100 C 
BRANCH  12  22
ATOM      2  O   UNL     1      -3.442   0.776  23.219  0.00  0.00    -0.276 OA
ATOM      3  O   UNL     1      -6.575   2.736  26.505  0.00  0.00    -0.377 OA
ATOM      5  N   UNL     1      -4.720   2.288  24.433  0.00  0.00    -0.297 N 
ATOM     22  C   UNL     1      -3.607   1.906  23.687  0.00  0.00    +0.216 C 
ATOM     25  C   UNL     1      -5.785   1.323  24.704  0.00  0.00    +0.136 C 
ATOM     26  C   UNL     1      -5.008   3.650  24.894  0.00  0.00    +0.136 C 
ATOM     27  C   UNL     1      -6.209   1.397  26.164  0.00  0.00    +0.179 C 
ATOM     28  C   UNL     1      -5.469   3.629  26.346  0.00  0.00    +0.179 C 
ENDBRANCH  12  22
ENDBRANCH   7  12
TORSDOF 6
ENDMDL
MODEL 6
REMARK VINA RESULT:      -0.7      1.868      3.015
REMARK  Name = 40777345
REMARK  6 active torsions:
REMARK  status: ('A' for Active; 'I' for Inactive)
REMARK    1  A    between atoms: C_7  and  C_12
REMARK    2  A    between atoms: C_8  and  C_11
REMARK    3  A    between atoms: C_11  and  C_21
REMARK    4  A    between atoms: C_12  and  C_22
REMARK    5  A    between atoms: C_14  and  C_17
REMARK    6  A    between atoms: C_17  and  C_23
REMARK                            x       y       z     vdW  Elec       q    Type
REMARK                         _______ _______ _______ _____ _____    ______ ____
ROOT
ATOM      4  N   UNL     1      -5.686   0.877  24.984  0.00  0.00    -0.316 NA
ATOM      7  C   UNL     1      -2.843   0.903  24.191  0.00  0.00    +0.004 C 
ATOM      8  C   UNL     1      -3.654  -0.405  24.356  0.00  0.00    +0.012 C 
ATOM      9  C   UNL     1      -3.811   2.058  23.890  0.00  0.00    +0.019 C 
ATOM     10  C   UNL     1      -4.810  -0.235  25.356  0.00  0.00    +0.085 C 
ATOM     13  C   UNL     1      -4.954   2.140  24.901  0.00  0.00    +0.081 C 
ATOM     29  H   UNL     1      -6.432   0.964  25.673  0.00  0.00    +0.122 HD
ENDROOT
BRANCH   8  11
ATOM     11  C   UNL     1      -2.785  -1.605  24.738  0.00  0.00    +0.064 C 
BRANCH  11  21
ATOM      1  O   UNL     1       0.801  -1.339  24.568  0.00  0.00    -0.359 OA
ATOM      6  N   UNL     1      -0.379  -1.642  25.235  0.00  0.00    -0.083 NA
ATOM     21  C   UNL     1      -1.351  -1.385  24.355  0.00  0.00    +0.084 A 
ATOM     23  C   UNL     1       0.510  -0.911  23.313  0.00  0.00    +0.138 A 
ATOM     24  C   UNL     1      -0.847  -0.921  23.127  0.00  0.00    +0.071 A 
BRANCH  23  17
ATOM     17  C   UNL     1       1.649  -0.546  22.464  0.00  0.00    +0.080 C 
BRANCH  17  14
ATOM     14  C   UNL     1       2.914  -0.227  23.259  0.00  0.00    -0.004 C 
ATOM     15  C   UNL     1       3.778  -1.484  23.429  0.00  0.00    +0.004 C 
ATOM     16  C   UNL     1       3.711   0.897  22.584  0.00  0.00    +0.004 C 
ATOM     18  C   UNL     1       5.075  -1.180  24.176  0.00  0.00    +0.000 C 
ATOM     19  C   UNL     1       5.008   1.197  23.331  0.00  0.00    +0.000 C 
ATOM     20  C   UNL     1       5.860  -0.056  23.506  0.00  0.00    +0.000 C 
ENDBRANCH  17  14
ENDBRANCH  23  17
ENDBRANCH  11  21
ENDBRANCH   8  11
BRANCH   7  12
ATOM     12  C   UNL     1      -1.949   1.238  25.390  0.00  0.00    +0.100 C 
BRANCH  12  22
ATOM      2  O   UNL     1       0.090   1.915  24.388  0.00  0.00    -0.276 OA
ATOM      3  O   UNL     1      -2.002   6.286  25.370  0.00  0.00    -0.377 OA
ATOM      5  N   UNL     1      -1.195   3.587  25.359  0.00  0.00    -0.297 N 
ATOM     22  C   UNL     1      -0.922   2.269  24.998  0.00  0.00    +0.216 C 
ATOM     25  C   UNL     1      -0.252   4.651  25.013  0.00  0.00    +0.136 C 
ATOM     26  C   UNL     1      -2.320   4.025  26.192  0.00  0.00    +0.136 C 
ATOM     27  C   UNL     1      -0.994   5.856  24.452  0.00  0.00    +0.179 C 
ATOM     28  C   UNL     1      -2.975   5.260  25.586  0.00  0.00    +0.179 C 
ENDBRANCH  12  22
ENDBRANCH   7  12
TORSDOF 6
ENDMDL
MODEL 7
REMARK VINA RESULT:       0.1      2.573      4.587
REMARK  Name = 40777345
REMARK  6 active torsions:
REMARK  status: ('A' for Active; 'I' for Inactive)
REMARK    1  A    between atoms: C_7  and  C_12
REMARK    2  A    between atoms: C_8  and  C_11
REMARK    3  A    between atoms: C_11  and  C_21
REMARK    4  A    between atoms: C_12  and  C_22
REMARK    5  A    between atoms: C_14  and  C_17
REMARK    6  A    between atoms: C_17  and  C_23
REMARK                            x       y       z     vdW  Elec       q    Type
REMARK                         _______ _______ _______ _____ _____    ______ ____
ROOT
ATOM      4  N   UNL     1      -4.715   3.754  25.146  0.00  0.00    -0.316 NA
ATOM      7  C   UNL     1      -1.923   2.809  25.016  0.00  0.00    +0.004 C 
ATOM      8  C   UNL     1      -3.130   1.896  24.695  0.00  0.00    +0.012 C 
ATOM      9  C   UNL     1      -2.327   4.274  24.787  0.00  0.00    +0.019 C 
ATOM     10  C   UNL     1      -4.400   2.354  25.432  0.00  0.00    +0.085 C 
ATOM     13  C   UNL     1      -3.617   4.644  25.517  0.00  0.00    +0.081 C 
ATOM     29  H   UNL     1      -5.555   4.023  25.658  0.00  0.00    +0.122 HD
ENDROOT
BRANCH   8  11
ATOM     11  C   UNL     1      -2.853   0.417  24.970  0.00  0.00    +0.064 C 
BRANCH  11  21
ATOM      1  O   UNL     1       0.352  -1.096  24.341  0.00  0.00    -0.359 OA
ATOM      6  N   UNL     1      -0.832  -0.977  25.058  0.00  0.00    -0.083 NA
ATOM     21  C   UNL     1      -1.504   0.009  24.456  0.00  0.00    +0.084 A 
ATOM     23  C   UNL     1       0.360  -0.185  23.334  0.00  0.00    +0.138 A 
ATOM     24  C   UNL     1      -0.799   0.543  23.363  0.00  0.00    +0.071 A 
BRANCH  23  17
ATOM     17  C   UNL     1       1.546  -0.173  22.471  0.00  0.00    +0.080 C 
BRANCH  17  14
ATOM     14  C   UNL     1       2.855  -0.056  23.249  0.00  0.00    -0.004 C 
ATOM     15  C   UNL     1       3.560  -1.417  23.333  0.00  0.00    +0.004 C 
ATOM     16  C   UNL     1       3.773   0.996  22.612  0.00  0.00    +0.004 C 
ATOM     18  C   UNL     1       4.898  -1.315  24.061  0.00  0.00    +0.000 C 
ATOM     19  C   UNL     1       5.111   1.094  23.341  0.00  0.00    +0.000 C 
ATOM     20  C   UNL     1       5.804  -0.262  23.430  0.00  0.00    +0.000 C 
ENDBRANCH  17  14
ENDBRANCH  23  17
ENDBRANCH  11  21
ENDBRANCH   8  11
BRANCH   7  12
ATOM     12  C   UNL     1      -1.350   2.614  26.425  0.00  0.00    +0.100 C 
BRANCH  12  22
ATOM      2  O   UNL     1       0.721   2.963  25.326  0.00  0.00    -0.276 OA
ATOM      3  O   UNL     1       2.168   2.669  30.046  0.00  0.00    -0.377 OA
ATOM      5  N   UNL     1       0.821   2.427  27.584  0.00  0.00    -0.297 N 
ATOM     22  C   UNL     1       0.155   2.685  26.387  0.00  0.00    +0.216 C 
ATOM     25  C   UNL     1       2.281   2.480  27.634  0.00  0.00    +0.136 C 
ATOM     26  C   UNL     1       0.189   1.971  28.826  0.00  0.00    +0.136 C 
ATOM     27  C   UNL     1       2.742   3.242  28.869  0.00  0.00    +0.179 C 
ATOM     28  C   UNL     1       0.740   2.750  30.014  0.00  0.00    +0.179 C 
ENDBRANCH  12  22
ENDBRANCH   7  12
TORSDOF 6
ENDMDL
MODEL 8
REMARK VINA RESULT:       0.2      1.916      7.617
REMARK  Name = 40777345
REMARK  6 active torsions:
REMARK  status: ('A' for Active; 'I' for Inactive)
REMARK    1  A    between atoms: C_7  and  C_12
REMARK    2  A    between atoms: C_8  and  C_11
REMARK    3  A    between atoms: C_11  and  C_21
REMARK    4  A    between atoms: C_12  and  C_22
REMARK    5  A    between atoms: C_14  and  C_17
REMARK    6  A    between atoms: C_17  and  C_23
REMARK                            x       y       z     vdW  Elec       q    Type
REMARK                         _______ _______ _______ _____ _____    ______ ____
ROOT
ATOM      4  N   UNL     1      -2.623  -0.704  25.158  0.00  0.00    -0.316 NA
ATOM      7  C   UNL     1       0.286  -0.582  24.675  0.00  0.00    +0.004 C 
ATOM      8  C   UNL     1      -0.482   0.523  25.440  0.00  0.00    +0.012 C 
ATOM      9  C   UNL     1      -0.495  -1.902  24.783  0.00  0.00    +0.019 C 
ATOM     10  C   UNL     1      -1.957   0.591  25.010  0.00  0.00    +0.085 C 
ATOM     13  C   UNL     1      -1.960  -1.747  24.378  0.00  0.00    +0.081 C 
ATOM     29  H   UNL     1      -3.593  -0.621  24.855  0.00  0.00    +0.122 HD
ENDROOT
BRANCH   8  11
ATOM     11  C   UNL     1       0.176   1.899  25.325  0.00  0.00    +0.064 C 
BRANCH  11  21
ATOM      1  O   UNL     1      -1.652   4.980  24.971  0.00  0.00    -0.359 OA
ATOM      6  N   UNL     1      -0.477   4.239  24.959  0.00  0.00    -0.083 NA
ATOM     21  C   UNL     1      -0.852   2.991  25.252  0.00  0.00    +0.084 A 
ATOM     23  C   UNL     1      -2.694   4.163  25.269  0.00  0.00    +0.138 A 
ATOM     24  C   UNL     1      -2.238   2.886  25.457  0.00  0.00    +0.071 A 
BRANCH  23  17
ATOM     17  C   UNL     1      -4.021   4.787  25.324  0.00  0.00    +0.080 C 
BRANCH  17  14
ATOM     14  C   UNL     1      -5.163   3.774  25.298  0.00  0.00    -0.004 C 
ATOM     15  C   UNL     1      -4.895   2.680  24.255  0.00  0.00    +0.004 C 
ATOM     16  C   UNL     1      -5.377   3.161  26.689  0.00  0.00    +0.004 C 
ATOM     18  C   UNL     1      -5.998   1.625  24.248  0.00  0.00    +0.000 C 
ATOM     19  C   UNL     1      -6.478   2.105  26.678  0.00  0.00    +0.000 C 
ATOM     20  C   UNL     1      -6.212   1.024  25.634  0.00  0.00    +0.000 C 
ENDBRANCH  17  14
ENDBRANCH  23  17
ENDBRANCH  11  21
ENDBRANCH   8  11
BRANCH   7  12
ATOM     12  C   UNL     1       0.579  -0.238  23.210  0.00  0.00    +0.100 C 
BRANCH  12  22
ATOM      2  O   UNL     1       1.531   1.931  23.125  0.00  0.00    -0.276 OA
ATOM      3  O   UNL     1       5.567  -0.876  23.661  0.00  0.00    -0.377 OA
ATOM      5  N   UNL     1       3.012   0.144  23.054  0.00  0.00    -0.297 N 
ATOM     22  C   UNL     1       1.743   0.716  23.125  0.00  0.00    +0.216 C 
ATOM     25  C   UNL     1       4.196   0.998  22.974  0.00  0.00    +0.136 C 
ATOM     26  C   UNL     1       3.292  -1.290  22.925  0.00  0.00    +0.136 C 
ATOM     27  C   UNL     1       5.276   0.499  23.923  0.00  0.00    +0.179 C 
ATOM     28  C   UNL     1       4.414  -1.696  23.873  0.00  0.00    +0.179 C 
ENDBRANCH  12  22
ENDBRANCH   7  12
TORSDOF 6
ENDMDL
