MODEL 1
REMARK VINA RESULT:      -3.4      0.000      0.000
REMARK  Name = 56774062
REMARK  8 active torsions:
REMARK  status: ('A' for Active; 'I' for Inactive)
REMARK    1  A    between atoms: N_3  and  C_8
REMARK    2  A    between atoms: N_3  and  C_14
REMARK    3  A    between atoms: C_6  and  C_11
REMARK    4  A    between atoms: C_6  and  C_12
REMARK    5  A    between atoms: C_7  and  C_10
REMARK    6  A    between atoms: C_10  and  C_13
REMARK    7  A    between atoms: C_14  and  C_16
REMARK    8  A    between atoms: C_17  and  C_20
REMARK                            x       y       z     vdW  Elec       q    Type
REMARK                         _______ _______ _______ _____ _____    ______ ____
ROOT
ATOM      6  C   UNL     1      -2.982  -2.598  25.365  0.00  0.00    -0.016 C 
ATOM      7  C   UNL     1      -1.716  -2.709  24.490  0.00  0.00    +0.004 C 
ATOM      8  C   UNL     1      -3.762  -2.310  24.065  0.00  0.00    +0.060 C 
ATOM      9  C   UNL     1      -2.433  -1.798  23.471  0.00  0.00    +0.023 C 
ATOM     11  C   UNL     1      -3.317  -3.868  26.116  0.00  0.00    +0.013 C 
ATOM     12  C   UNL     1      -3.016  -1.419  26.322  0.00  0.00    +0.013 C 
ENDROOT
BRANCH   8   3
ATOM      3  N   UNL     1      -4.674  -1.178  24.233  0.00  0.00    -0.309 NA
ATOM     28  H   UNL     1      -5.600  -1.354  23.842  0.00  0.00    +0.123 HD
BRANCH   3  14
ATOM     14  C   UNL     1      -4.107   0.003  23.592  0.00  0.00    +0.118 C 
BRANCH  14  16
ATOM      5  N   UNL     1      -4.597   3.692  24.287  0.00  0.00    -0.263 NA
ATOM     16  C   UNL     1      -4.560   1.275  24.259  0.00  0.00    -0.015 A 
ATOM     18  C   UNL     1      -5.327   1.242  25.419  0.00  0.00    +0.008 A 
ATOM     19  C   UNL     1      -4.224   2.515  23.738  0.00  0.00    +0.115 A 
ATOM     21  C   UNL     1      -5.729   2.433  26.013  0.00  0.00    +0.020 A 
ATOM     22  C   UNL     1      -5.342   3.621  25.413  0.00  0.00    +0.111 A 
ENDBRANCH  14  16
ENDBRANCH   3  14
ENDBRANCH   8   3
BRANCH   7  10
ATOM     10  C   UNL     1      -0.417  -2.128  25.063  0.00  0.00    +0.063 C 
BRANCH  10  13
ATOM      2  O   UNL     1       0.386   1.139  23.861  0.00  0.00    -0.354 OA
ATOM      4  N   UNL     1       0.543  -0.242  23.863  0.00  0.00    -0.083 NA
ATOM     13  C   UNL     1      -0.313  -0.685  24.789  0.00  0.00    +0.084 A 
ATOM     15  C   UNL     1      -1.030   0.360  25.397  0.00  0.00    +0.076 A 
ATOM     17  C   UNL     1      -0.552   1.485  24.779  0.00  0.00    +0.167 A 
BRANCH  17  20
ATOM      1  F   UNL     1      -1.617   6.937  25.207  0.00  0.00    -0.205 F 
ATOM     20  C   UNL     1      -0.827   2.897  24.891  0.00  0.00    +0.020 A 
ATOM     23  C   UNL     1      -1.740   3.356  25.840  0.00  0.00    +0.014 A 
ATOM     24  C   UNL     1      -0.182   3.802  24.048  0.00  0.00    +0.014 A 
ATOM     25  C   UNL     1      -2.007   4.721  25.947  0.00  0.00    +0.039 A 
ATOM     26  C   UNL     1      -0.449   5.166  24.155  0.00  0.00    +0.039 A 
ATOM     27  C   UNL     1      -1.361   5.627  25.104  0.00  0.00    +0.123 A 
ENDBRANCH  17  20
ENDBRANCH  10  13
ENDBRANCH   7  10
TORSDOF 6
ENDMDL
MODEL 2
REMARK VINA RESULT:      -3.3      2.707      5.494
REMARK  Name = 56774062
REMARK  8 active torsions:
REMARK  status: ('A' for Active; 'I' for Inactive)
REMARK    1  A    between atoms: N_3  and  C_8
REMARK    2  A    between atoms: N_3  and  C_14
REMARK    3  A    between atoms: C_6  and  C_11
REMARK    4  A    between atoms: C_6  and  C_12
REMARK    5  A    between atoms: C_7  and  C_10
REMARK    6  A    between atoms: C_10  and  C_13
REMARK    7  A    between atoms: C_14  and  C_16
REMARK    8  A    between atoms: C_17  and  C_20
REMARK                            x       y       z     vdW  Elec       q    Type
REMARK                         _______ _______ _______ _____ _____    ______ ____
ROOT
ATOM      6  C   UNL     1      -4.829   3.863  25.190  0.00  0.00    -0.016 C 
ATOM      7  C   UNL     1      -3.803   4.012  26.333  0.00  0.00    +0.004 C 
ATOM      8  C   UNL     1      -4.903   2.366  25.556  0.00  0.00    +0.060 C 
ATOM      9  C   UNL     1      -3.481   2.516  26.137  0.00  0.00    +0.023 C 
ATOM     11  C   UNL     1      -6.079   4.694  25.381  0.00  0.00    +0.013 C 
ATOM     12  C   UNL     1      -4.285   4.081  23.788  0.00  0.00    +0.013 C 
ENDROOT
BRANCH   8   3
ATOM      3  N   UNL     1      -4.840   1.525  24.359  0.00  0.00    -0.309 NA
ATOM     28  H   UNL     1      -5.411   1.883  23.593  0.00  0.00    +0.123 HD
BRANCH   3  14
ATOM     14  C   UNL     1      -5.286   0.176  24.690  0.00  0.00    +0.118 C 
BRANCH  14  16
ATOM      5  N   UNL     1      -1.917  -1.409  25.378  0.00  0.00    -0.263 NA
ATOM     16  C   UNL     1      -4.149  -0.812  24.666  0.00  0.00    -0.015 A 
ATOM     18  C   UNL     1      -4.244  -1.997  23.945  0.00  0.00    +0.008 A 
ATOM     19  C   UNL     1      -2.974  -0.567  25.360  0.00  0.00    +0.115 A 
ATOM     21  C   UNL     1      -3.177  -2.888  23.940  0.00  0.00    +0.020 A 
ATOM     22  C   UNL     1      -2.046  -2.551  24.666  0.00  0.00    +0.111 A 
ENDBRANCH  14  16
ENDBRANCH   3  14
ENDBRANCH   8   3
BRANCH   7  10
ATOM     10  C   UNL     1      -2.618   4.957  26.090  0.00  0.00    +0.063 C 
BRANCH  10  13
ATOM      2  O   UNL     1       0.060   4.113  23.881  0.00  0.00    -0.354 OA
ATOM      4  N   UNL     1      -0.805   5.028  24.470  0.00  0.00    -0.083 NA
ATOM     13  C   UNL     1      -1.571   4.302  25.289  0.00  0.00    +0.084 A 
ATOM     15  C   UNL     1      -1.238   2.936  25.260  0.00  0.00    +0.076 A 
ATOM     17  C   UNL     1      -0.209   2.872  24.359  0.00  0.00    +0.167 A 
BRANCH  17  20
ATOM      1  F   UNL     1       2.977  -1.234  22.349  0.00  0.00    -0.205 F 
ATOM     20  C   UNL     1       0.616   1.809  23.838  0.00  0.00    +0.020 A 
ATOM     23  C   UNL     1       0.065   0.548  23.605  0.00  0.00    +0.014 A 
ATOM     24  C   UNL     1       1.964   2.041  23.568  0.00  0.00    +0.014 A 
ATOM     25  C   UNL     1       0.863  -0.479  23.102  0.00  0.00    +0.039 A 
ATOM     26  C   UNL     1       2.762   1.013  23.065  0.00  0.00    +0.039 A 
ATOM     27  C   UNL     1       2.212  -0.247  22.832  0.00  0.00    +0.123 A 
ENDBRANCH  17  20
ENDBRANCH  10  13
ENDBRANCH   7  10
TORSDOF 6
ENDMDL
MODEL 3
REMARK VINA RESULT:      -2.4      2.918      6.893
REMARK  Name = 56774062
REMARK  8 active torsions:
REMARK  status: ('A' for Active; 'I' for Inactive)
REMARK    1  A    between atoms: N_3  and  C_8
REMARK    2  A    between atoms: N_3  and  C_14
REMARK    3  A    between atoms: C_6  and  C_11
REMARK    4  A    between atoms: C_6  and  C_12
REMARK    5  A    between atoms: C_7  and  C_10
REMARK    6  A    between atoms: C_10  and  C_13
REMARK    7  A    between atoms: C_14  and  C_16
REMARK    8  A    between atoms: C_17  and  C_20
REMARK                            x       y       z     vdW  Elec       q    Type
REMARK                         _______ _______ _______ _____ _____    ______ ____
ROOT
ATOM      6  C   UNL     1      -2.245   5.137  25.171  0.00  0.00    -0.016 C 
ATOM      7  C   UNL     1      -3.326   4.799  24.124  0.00  0.00    +0.004 C 
ATOM      8  C   UNL     1      -1.241   4.402  24.259  0.00  0.00    +0.060 C 
ATOM      9  C   UNL     1      -2.442   3.605  23.707  0.00  0.00    +0.023 C 
ATOM     11  C   UNL     1      -2.042   6.622  25.382  0.00  0.00    +0.013 C 
ATOM     12  C   UNL     1      -2.400   4.449  26.517  0.00  0.00    +0.013 C 
ENDROOT
BRANCH   8   3
ATOM      3  N   UNL     1      -0.386   3.498  25.031  0.00  0.00    -0.309 NA
ATOM     28  H   UNL     1       0.240   3.992  25.666  0.00  0.00    +0.123 HD
BRANCH   3  14
ATOM     14  C   UNL     1       0.410   2.685  24.118  0.00  0.00    +0.118 C 
BRANCH  14  16
ATOM      5  N   UNL     1       0.338  -1.038  23.436  0.00  0.00    -0.263 NA
ATOM     16  C   UNL     1       0.130   1.215  24.287  0.00  0.00    -0.015 A 
ATOM     18  C   UNL     1      -0.568   0.741  25.393  0.00  0.00    +0.008 A 
ATOM     19  C   UNL     1       0.558   0.292  23.345  0.00  0.00    +0.115 A 
ATOM     21  C   UNL     1      -0.813  -0.622  25.521  0.00  0.00    +0.020 A 
ATOM     22  C   UNL     1      -0.343  -1.462  24.524  0.00  0.00    +0.111 A 
ENDBRANCH  14  16
ENDBRANCH   3  14
ENDBRANCH   8   3
BRANCH   7  10
ATOM     10  C   UNL     1      -4.715   4.413  24.651  0.00  0.00    +0.063 C 
BRANCH  10  13
ATOM      2  O   UNL     1      -5.478   1.130  25.834  0.00  0.00    -0.354 OA
ATOM      4  N   UNL     1      -5.655   2.508  25.836  0.00  0.00    -0.083 NA
ATOM     13  C   UNL     1      -4.799   2.968  24.919  0.00  0.00    +0.084 A 
ATOM     15  C   UNL     1      -4.062   1.936  24.311  0.00  0.00    +0.076 A 
ATOM     17  C   UNL     1      -4.527   0.802  24.922  0.00  0.00    +0.167 A 
BRANCH  17  20
ATOM      1  F   UNL     1      -3.390  -4.633  24.459  0.00  0.00    -0.205 F 
ATOM     20  C   UNL     1      -4.234  -0.606  24.802  0.00  0.00    +0.020 A 
ATOM     23  C   UNL     1      -3.705  -1.302  25.889  0.00  0.00    +0.014 A 
ATOM     24  C   UNL     1      -4.477  -1.269  23.600  0.00  0.00    +0.014 A 
ATOM     25  C   UNL     1      -3.420  -2.663  25.772  0.00  0.00    +0.039 A 
ATOM     26  C   UNL     1      -4.192  -2.629  23.484  0.00  0.00    +0.039 A 
ATOM     27  C   UNL     1      -3.664  -3.327  24.570  0.00  0.00    +0.123 A 
ENDBRANCH  17  20
ENDBRANCH  10  13
ENDBRANCH   7  10
TORSDOF 6
ENDMDL
MODEL 4
REMARK VINA RESULT:      -2.3      2.792      5.104
REMARK  Name = 56774062
REMARK  8 active torsions:
REMARK  status: ('A' for Active; 'I' for Inactive)
REMARK    1  A    between atoms: N_3  and  C_8
REMARK    2  A    between atoms: N_3  and  C_14
REMARK    3  A    between atoms: C_6  and  C_11
REMARK    4  A    between atoms: C_6  and  C_12
REMARK    5  A    between atoms: C_7  and  C_10
REMARK    6  A    between atoms: C_10  and  C_13
REMARK    7  A    between atoms: C_14  and  C_16
REMARK    8  A    between atoms: C_17  and  C_20
REMARK                            x       y       z     vdW  Elec       q    Type
REMARK                         _______ _______ _______ _____ _____    ______ ____
ROOT
ATOM      6  C   UNL     1      -5.729   1.838  25.119  0.00  0.00    -0.016 C 
ATOM      7  C   UNL     1      -4.677   1.164  24.214  0.00  0.00    +0.004 C 
ATOM      8  C   UNL     1      -4.939   3.150  24.930  0.00  0.00    +0.060 C 
ATOM      9  C   UNL     1      -3.699   2.274  24.653  0.00  0.00    +0.023 C 
ATOM     11  C   UNL     1      -7.136   1.782  24.566  0.00  0.00    +0.013 C 
ATOM     12  C   UNL     1      -5.734   1.381  26.569  0.00  0.00    +0.013 C 
ENDROOT
BRANCH   8   3
ATOM      3  N   UNL     1      -4.753   3.846  26.205  0.00  0.00    -0.309 NA
ATOM     28  H   UNL     1      -5.625   4.220  26.582  0.00  0.00    +0.123 HD
BRANCH   3  14
ATOM     14  C   UNL     1      -3.805   4.940  26.028  0.00  0.00    +0.118 C 
BRANCH  14  16
ATOM      5  N   UNL     1      -0.673   2.834  26.324  0.00  0.00    -0.263 NA
ATOM     16  C   UNL     1      -2.405   4.436  25.796  0.00  0.00    -0.015 A 
ATOM     18  C   UNL     1      -1.559   5.062  24.887  0.00  0.00    +0.008 A 
ATOM     19  C   UNL     1      -1.918   3.335  26.484  0.00  0.00    +0.115 A 
ATOM     21  C   UNL     1      -0.271   4.575  24.696  0.00  0.00    +0.020 A 
ATOM     22  C   UNL     1       0.121   3.468  25.432  0.00  0.00    +0.111 A 
ENDBRANCH  14  16
ENDBRANCH   3  14
ENDBRANCH   8   3
BRANCH   7  10
ATOM     10  C   UNL     1      -4.239  -0.258  24.588  0.00  0.00    +0.063 C 
BRANCH  10  13
ATOM      2  O   UNL     1      -0.892  -1.467  24.276  0.00  0.00    -0.354 OA
ATOM      4  N   UNL     1      -2.217  -1.608  24.671  0.00  0.00    -0.083 NA
ATOM     13  C   UNL     1      -2.807  -0.462  24.317  0.00  0.00    +0.084 A 
ATOM     15  C   UNL     1      -1.912   0.431  23.702  0.00  0.00    +0.076 A 
ATOM     17  C   UNL     1      -0.723  -0.249  23.701  0.00  0.00    +0.167 A 
BRANCH  17  20
ATOM      1  F   UNL     1       4.427   0.881  21.899  0.00  0.00    -0.205 F 
ATOM     20  C   UNL     1       0.611   0.043  23.235  0.00  0.00    +0.020 A 
ATOM     23  C   UNL     1       1.380   1.008  23.885  0.00  0.00    +0.014 A 
ATOM     24  C   UNL     1       1.130  -0.639  22.135  0.00  0.00    +0.014 A 
ATOM     25  C   UNL     1       2.669   1.291  23.433  0.00  0.00    +0.039 A 
ATOM     26  C   UNL     1       2.418  -0.356  21.683  0.00  0.00    +0.039 A 
ATOM     27  C   UNL     1       3.189   0.609  22.332  0.00  0.00    +0.123 A 
ENDBRANCH  17  20
ENDBRANCH  10  13
ENDBRANCH   7  10
TORSDOF 6
ENDMDL
MODEL 5
REMARK VINA RESULT:      -2.2      3.497      4.888
REMARK  Name = 56774062
REMARK  8 active torsions:
REMARK  status: ('A' for Active; 'I' for Inactive)
REMARK    1  A    between atoms: N_3  and  C_8
REMARK    2  A    between atoms: N_3  and  C_14
REMARK    3  A    between atoms: C_6  and  C_11
REMARK    4  A    between atoms: C_6  and  C_12
REMARK    5  A    between atoms: C_7  and  C_10
REMARK    6  A    between atoms: C_10  and  C_13
REMARK    7  A    between atoms: C_14  and  C_16
REMARK    8  A    between atoms: C_17  and  C_20
REMARK                            x       y       z     vdW  Elec       q    Type
REMARK                         _______ _______ _______ _____ _____    ______ ____
ROOT
ATOM      6  C   UNL     1      -2.706   0.561  24.757  0.00  0.00    -0.016 C 
ATOM      7  C   UNL     1      -2.475  -0.905  25.181  0.00  0.00    +0.004 C 
ATOM      8  C   UNL     1      -4.028   0.501  25.550  0.00  0.00    +0.060 C 
ATOM      9  C   UNL     1      -4.007  -1.025  25.324  0.00  0.00    +0.023 C 
ATOM     11  C   UNL     1      -1.637   1.513  25.247  0.00  0.00    +0.013 C 
ATOM     12  C   UNL     1      -2.943   0.784  23.273  0.00  0.00    +0.013 C 
ENDROOT
BRANCH   8   3
ATOM      3  N   UNL     1      -5.133   1.080  24.784  0.00  0.00    -0.309 NA
ATOM     28  H   UNL     1      -4.899   1.226  23.802  0.00  0.00    +0.123 HD
BRANCH   3  14
ATOM     14  C   UNL     1      -5.517   2.357  25.375  0.00  0.00    +0.118 C 
BRANCH  14  16
ATOM      5  N   UNL     1      -2.767   4.700  26.504  0.00  0.00    -0.263 NA
ATOM     16  C   UNL     1      -4.394   3.359  25.322  0.00  0.00    -0.015 A 
ATOM     18  C   UNL     1      -3.946   3.870  24.109  0.00  0.00    +0.008 A 
ATOM     19  C   UNL     1      -3.777   3.803  26.481  0.00  0.00    +0.115 A 
ATOM     21  C   UNL     1      -2.908   4.795  24.092  0.00  0.00    +0.020 A 
ATOM     22  C   UNL     1      -2.357   5.174  25.306  0.00  0.00    +0.111 A 
ENDBRANCH  14  16
ENDBRANCH   3  14
ENDBRANCH   8   3
BRANCH   7  10
ATOM     10  C   UNL     1      -1.855  -1.845  24.138  0.00  0.00    +0.063 C 
BRANCH  10  13
ATOM      2  O   UNL     1       0.831  -0.339  22.327  0.00  0.00    -0.354 OA
ATOM      4  N   UNL     1      -0.505  -0.692  22.475  0.00  0.00    -0.083 NA
ATOM     13  C   UNL     1      -0.567  -1.324  23.651  0.00  0.00    +0.084 A 
ATOM     15  C   UNL     1       0.686  -1.397  24.284  0.00  0.00    +0.076 A 
ATOM     17  C   UNL     1       1.529  -0.764  23.410  0.00  0.00    +0.167 A 
BRANCH  17  20
ATOM      1  F   UNL     1       6.981   0.387  23.373  0.00  0.00    -0.205 F 
ATOM     20  C   UNL     1       2.941  -0.466  23.401  0.00  0.00    +0.020 A 
ATOM     23  C   UNL     1       3.392   0.754  22.898  0.00  0.00    +0.014 A 
ATOM     24  C   UNL     1       3.853  -1.397  23.895  0.00  0.00    +0.014 A 
ATOM     25  C   UNL     1       4.757   1.041  22.888  0.00  0.00    +0.039 A 
ATOM     26  C   UNL     1       5.218  -1.110  23.885  0.00  0.00    +0.039 A 
ATOM     27  C   UNL     1       5.670   0.110  23.382  0.00  0.00    +0.123 A 
ENDBRANCH  17  20
ENDBRANCH  10  13
ENDBRANCH   7  10
TORSDOF 6
ENDMDL
MODEL 6
REMARK VINA RESULT:      -1.3      2.009      4.545
REMARK  Name = 56774062
REMARK  8 active torsions:
REMARK  status: ('A' for Active; 'I' for Inactive)
REMARK    1  A    between atoms: N_3  and  C_8
REMARK    2  A    between atoms: N_3  and  C_14
REMARK    3  A    between atoms: C_6  and  C_11
REMARK    4  A    between atoms: C_6  and  C_12
REMARK    5  A    between atoms: C_7  and  C_10
REMARK    6  A    between atoms: C_10  and  C_13
REMARK    7  A    between atoms: C_14  and  C_16
REMARK    8  A    between atoms: C_17  and  C_20
REMARK                            x       y       z     vdW  Elec       q    Type
REMARK                         _______ _______ _______ _____ _____    ______ ____
ROOT
ATOM      6  C   UNL     1       0.291  -0.471  23.174  0.00  0.00    -0.016 C 
ATOM      7  C   UNL     1      -0.155  -1.555  24.177  0.00  0.00    +0.004 C 
ATOM      8  C   UNL     1       0.800   0.334  24.387  0.00  0.00    +0.060 C 
ATOM      9  C   UNL     1      -0.236  -0.434  25.235  0.00  0.00    +0.023 C 
ATOM     11  C   UNL     1       1.318  -0.953  22.172  0.00  0.00    +0.013 C 
ATOM     12  C   UNL     1      -0.832   0.247  22.444  0.00  0.00    +0.013 C 
ENDROOT
BRANCH   8   3
ATOM      3  N   UNL     1       0.394   1.738  24.300  0.00  0.00    -0.309 NA
ATOM     28  H   UNL     1       1.069   2.314  23.796  0.00  0.00    +0.123 HD
BRANCH   3  14
ATOM     14  C   UNL     1       0.220   2.278  25.644  0.00  0.00    +0.118 C 
BRANCH  14  16
ATOM      5  N   UNL     1      -2.810   4.362  26.542  0.00  0.00    -0.263 NA
ATOM     16  C   UNL     1      -0.765   3.418  25.667  0.00  0.00    -0.015 A 
ATOM     18  C   UNL     1      -0.575   4.545  24.874  0.00  0.00    +0.008 A 
ATOM     19  C   UNL     1      -1.889   3.376  26.476  0.00  0.00    +0.115 A 
ATOM     21  C   UNL     1      -1.501   5.580  24.915  0.00  0.00    +0.020 A 
ATOM     22  C   UNL     1      -2.592   5.442  25.758  0.00  0.00    +0.111 A 
ENDBRANCH  14  16
ENDBRANCH   3  14
ENDBRANCH   8   3
BRANCH   7  10
ATOM     10  C   UNL     1      -1.487  -2.264  23.895  0.00  0.00    +0.063 C 
BRANCH  10  13
ATOM      2  O   UNL     1      -4.689  -0.725  24.261  0.00  0.00    -0.354 OA
ATOM      4  N   UNL     1      -3.876  -1.821  24.002  0.00  0.00    -0.083 NA
ATOM     13  C   UNL     1      -2.627  -1.358  24.110  0.00  0.00    +0.084 A 
ATOM     15  C   UNL     1      -2.591   0.010  24.432  0.00  0.00    +0.076 A 
ATOM     17  C   UNL     1      -3.912   0.359  24.516  0.00  0.00    +0.167 A 
BRANCH  17  20
ATOM      1  F   UNL     1      -6.644   5.083  25.644  0.00  0.00    -0.205 F 
ATOM     20  C   UNL     1      -4.620   1.582  24.807  0.00  0.00    +0.020 A 
ATOM     23  C   UNL     1      -4.365   2.731  24.058  0.00  0.00    +0.014 A 
ATOM     24  C   UNL     1      -5.558   1.616  25.839  0.00  0.00    +0.014 A 
ATOM     25  C   UNL     1      -5.049   3.913  24.341  0.00  0.00    +0.039 A 
ATOM     26  C   UNL     1      -6.241   2.798  26.122  0.00  0.00    +0.039 A 
ATOM     27  C   UNL     1      -5.987   3.947  25.373  0.00  0.00    +0.123 A 
ENDBRANCH  17  20
ENDBRANCH  10  13
ENDBRANCH   7  10
TORSDOF 6
ENDMDL
