MODEL 1
REMARK VINA RESULT:       8.4      0.000      0.000
REMARK  Name = 26742460
REMARK  10 active torsions:
REMARK  status: ('A' for Active; 'I' for Inactive)
REMARK    1  A    between atoms: O_3  and  C_31
REMARK    2  A    between atoms: O_3  and  C_34
REMARK    3  A    between atoms: O_4  and  C_32
REMARK    4  A    between atoms: O_4  and  C_35
REMARK    5  A    between atoms: N_6  and  C_17
REMARK    6  A    between atoms: N_9  and  C_26
REMARK    7  A    between atoms: C_11  and  C_18
REMARK    8  A    between atoms: C_12  and  C_17
REMARK    9  A    between atoms: C_20  and  C_23
REMARK   10  A    between atoms: C_21  and  C_24
REMARK                            x       y       z     vdW  Elec       q    Type
REMARK                         _______ _______ _______ _____ _____    ______ ____
ROOT
ATOM      5  N   UNL     1      -4.393   3.674  26.201  0.00  0.00    -0.297 NA
ATOM     10  C   UNL     1      -4.328   2.793  23.751  0.00  0.00    +0.002 C 
ATOM     11  C   UNL     1      -4.852   1.690  24.711  0.00  0.00    +0.055 C 
ATOM     12  C   UNL     1      -3.064   3.954  25.594  0.00  0.00    +0.074 C 
ATOM     13  C   UNL     1      -2.935   3.261  24.221  0.00  0.00    +0.024 C 
ATOM     14  C   UNL     1      -5.283   3.998  23.894  0.00  0.00    +0.019 C 
ATOM     15  C   UNL     1      -4.671   2.216  26.164  0.00  0.00    +0.094 C 
ATOM     16  C   UNL     1      -5.420   4.361  25.383  0.00  0.00    +0.085 C 
ENDROOT
BRANCH  11  18
ATOM      7  N   UNL     1      -5.151  -0.623  23.972  0.00  0.00    -0.237 NA
ATOM      8  N   UNL     1      -3.417  -2.279  24.206  0.00  0.00    -0.229 NA
ATOM     18  C   UNL     1      -4.319   0.275  24.540  0.00  0.00    +0.050 A 
ATOM     19  C   UNL     1      -3.039  -0.026  24.959  0.00  0.00    +0.055 A 
ATOM     20  C   UNL     1      -2.638  -1.331  24.766  0.00  0.00    +0.110 A 
ATOM     21  C   UNL     1      -4.644  -1.863  23.838  0.00  0.00    +0.127 A 
ATOM     24  C   UNL     1      -5.535  -2.884  23.214  0.00  0.00    +0.088 C 
BRANCH  20  23
ATOM      2  O   UNL     1      -0.817  -1.186  26.268  0.00  0.00    -0.461 OA
ATOM     23  C   UNL     1      -1.329  -1.781  25.158  0.00  0.00    +0.153 A 
ATOM     25  C   UNL     1      -0.442  -2.704  24.653  0.00  0.00    +0.051 A 
ATOM     27  C   UNL     1       0.686  -2.675  25.507  0.00  0.00    +0.042 A 
ATOM     28  C   UNL     1       0.409  -1.737  26.473  0.00  0.00    +0.196 A 
ENDBRANCH  20  23
ENDBRANCH  11  18
BRANCH  12  17
ATOM     17  C   UNL     1      -1.909   3.591  26.529  0.00  0.00    +0.124 C 
BRANCH  17   6
ATOM      1  O   UNL     1       0.002   3.491  24.398  0.00  0.00    -0.253 OA
ATOM      6  N   UNL     1      -1.215   2.433  26.056  0.00  0.00    -0.298 N 
ATOM      9  N   UNL     1       0.229   1.184  24.760  0.00  0.00    -0.269 N 
ATOM     22  C   UNL     1      -0.287   2.459  25.000  0.00  0.00    +0.304 C 
ATOM     36  H   UNL     1      -1.407   1.541  26.504  0.00  0.00    +0.150 HD
ATOM     37  H   UNL     1      -0.118   0.433  25.352  0.00  0.00    +0.156 HD
BRANCH   9  26
ATOM     26  C   UNL     1       1.181   0.800  23.787  0.00  0.00    +0.042 A 
ATOM     29  C   UNL     1       0.775   0.096  22.653  0.00  0.00    +0.069 A 
ATOM     30  C   UNL     1       2.526   1.125  23.961  0.00  0.00    +0.069 A 
ATOM     31  C   UNL     1       3.466   0.747  23.001  0.00  0.00    +0.125 A 
ATOM     32  C   UNL     1       1.714  -0.282  21.693  0.00  0.00    +0.125 A 
ATOM     33  C   UNL     1       3.059   0.044  21.867  0.00  0.00    +0.091 A 
BRANCH  31   3
ATOM      3  O   UNL     1       4.778   1.065  23.170  0.00  0.00    -0.495 OA
ATOM     34  C   UNL     1       5.650   0.017  23.590  0.00  0.00    +0.277 C 
ENDBRANCH  31   3
BRANCH  32   4
ATOM      4  O   UNL     1       1.318  -0.969  20.587  0.00  0.00    -0.495 OA
ATOM     35  C   UNL     1       0.033  -0.654  20.052  0.00  0.00    +0.277 C 
ENDBRANCH  32   4
ENDBRANCH   9  26
ENDBRANCH  17   6
ENDBRANCH  12  17
TORSDOF 7
ENDMDL
MODEL 2
REMARK VINA RESULT:       8.4      0.030      2.122
REMARK  Name = 26742460
REMARK  10 active torsions:
REMARK  status: ('A' for Active; 'I' for Inactive)
REMARK    1  A    between atoms: O_3  and  C_31
REMARK    2  A    between atoms: O_3  and  C_34
REMARK    3  A    between atoms: O_4  and  C_32
REMARK    4  A    between atoms: O_4  and  C_35
REMARK    5  A    between atoms: N_6  and  C_17
REMARK    6  A    between atoms: N_9  and  C_26
REMARK    7  A    between atoms: C_11  and  C_18
REMARK    8  A    between atoms: C_12  and  C_17
REMARK    9  A    between atoms: C_20  and  C_23
REMARK   10  A    between atoms: C_21  and  C_24
REMARK                            x       y       z     vdW  Elec       q    Type
REMARK                         _______ _______ _______ _____ _____    ______ ____
ROOT
ATOM      5  N   UNL     1      -4.389   3.677  26.209  0.00  0.00    -0.297 NA
ATOM     10  C   UNL     1      -4.321   2.799  23.758  0.00  0.00    +0.002 C 
ATOM     11  C   UNL     1      -4.843   1.694  24.717  0.00  0.00    +0.055 C 
ATOM     12  C   UNL     1      -3.061   3.961  25.603  0.00  0.00    +0.074 C 
ATOM     13  C   UNL     1      -2.929   3.269  24.229  0.00  0.00    +0.024 C 
ATOM     14  C   UNL     1      -5.279   4.001  23.902  0.00  0.00    +0.019 C 
ATOM     15  C   UNL     1      -4.664   2.219  26.171  0.00  0.00    +0.094 C 
ATOM     16  C   UNL     1      -5.417   4.363  25.391  0.00  0.00    +0.085 C 
ENDROOT
BRANCH  11  18
ATOM      7  N   UNL     1      -5.137  -0.619  23.977  0.00  0.00    -0.237 NA
ATOM      8  N   UNL     1      -3.399  -2.271  24.207  0.00  0.00    -0.229 NA
ATOM     18  C   UNL     1      -4.306   0.280  24.544  0.00  0.00    +0.050 A 
ATOM     19  C   UNL     1      -3.026  -0.018  24.962  0.00  0.00    +0.055 A 
ATOM     20  C   UNL     1      -2.621  -1.322  24.768  0.00  0.00    +0.110 A 
ATOM     21  C   UNL     1      -4.627  -1.858  23.841  0.00  0.00    +0.127 A 
ATOM     24  C   UNL     1      -5.516  -2.880  23.216  0.00  0.00    +0.088 C 
BRANCH  20  23
ATOM      2  O   UNL     1      -0.826  -1.221  26.304  0.00  0.00    -0.461 OA
ATOM     23  C   UNL     1      -1.311  -1.769  25.159  0.00  0.00    +0.153 A 
ATOM     25  C   UNL     1      -0.401  -2.651  24.623  0.00  0.00    +0.051 A 
ATOM     27  C   UNL     1       0.713  -2.645  25.496  0.00  0.00    +0.042 A 
ATOM     28  C   UNL     1       0.405  -1.760  26.502  0.00  0.00    +0.196 A 
ENDBRANCH  20  23
ENDBRANCH  11  18
BRANCH  12  17
ATOM     17  C   UNL     1      -1.905   3.599  26.538  0.00  0.00    +0.124 C 
BRANCH  17   6
ATOM      1  O   UNL     1       0.010   3.488  24.412  0.00  0.00    -0.253 OA
ATOM      6  N   UNL     1      -1.214   2.438  26.069  0.00  0.00    -0.298 N 
ATOM      9  N   UNL     1       0.228   1.180  24.780  0.00  0.00    -0.269 N 
ATOM     22  C   UNL     1      -0.284   2.458  25.015  0.00  0.00    +0.304 C 
ATOM     36  H   UNL     1      -1.410   1.548  26.519  0.00  0.00    +0.150 HD
ATOM     37  H   UNL     1      -0.123   0.432  25.372  0.00  0.00    +0.156 HD
BRANCH   9  26
ATOM     26  C   UNL     1       1.181   0.791  23.809  0.00  0.00    +0.042 A 
ATOM     29  C   UNL     1       2.528   1.103  23.990  0.00  0.00    +0.069 A 
ATOM     30  C   UNL     1       0.772   0.097  22.670  0.00  0.00    +0.069 A 
ATOM     31  C   UNL     1       1.712  -0.286  21.712  0.00  0.00    +0.125 A 
ATOM     32  C   UNL     1       3.467   0.720  23.032  0.00  0.00    +0.125 A 
ATOM     33  C   UNL     1       3.059   0.025  21.894  0.00  0.00    +0.091 A 
BRANCH  31   3
ATOM      3  O   UNL     1       1.313  -0.964  20.601  0.00  0.00    -0.495 OA
ATOM     34  C   UNL     1       0.053  -0.604  20.039  0.00  0.00    +0.277 C 
ENDBRANCH  31   3
BRANCH  32   4
ATOM      4  O   UNL     1       4.782   1.023  23.208  0.00  0.00    -0.495 OA
ATOM     35  C   UNL     1       5.652  -0.046  23.579  0.00  0.00    +0.277 C 
ENDBRANCH  32   4
ENDBRANCH   9  26
ENDBRANCH  17   6
ENDBRANCH  12  17
TORSDOF 7
ENDMDL
MODEL 3
REMARK VINA RESULT:       8.5      1.789      2.722
REMARK  Name = 26742460
REMARK  10 active torsions:
REMARK  status: ('A' for Active; 'I' for Inactive)
REMARK    1  A    between atoms: O_3  and  C_31
REMARK    2  A    between atoms: O_3  and  C_34
REMARK    3  A    between atoms: O_4  and  C_32
REMARK    4  A    between atoms: O_4  and  C_35
REMARK    5  A    between atoms: N_6  and  C_17
REMARK    6  A    between atoms: N_9  and  C_26
REMARK    7  A    between atoms: C_11  and  C_18
REMARK    8  A    between atoms: C_12  and  C_17
REMARK    9  A    between atoms: C_20  and  C_23
REMARK   10  A    between atoms: C_21  and  C_24
REMARK                            x       y       z     vdW  Elec       q    Type
REMARK                         _______ _______ _______ _____ _____    ______ ____
ROOT
ATOM      5  N   UNL     1      -4.392   4.703  26.727  0.00  0.00    -0.297 NA
ATOM     10  C   UNL     1      -5.126   4.432  24.244  0.00  0.00    +0.002 C 
ATOM     11  C   UNL     1      -4.975   3.041  24.920  0.00  0.00    +0.055 C 
ATOM     12  C   UNL     1      -3.509   5.511  25.845  0.00  0.00    +0.074 C 
ATOM     13  C   UNL     1      -3.796   5.204  24.359  0.00  0.00    +0.024 C 
ATOM     14  C   UNL     1      -6.177   5.213  25.062  0.00  0.00    +0.019 C 
ATOM     15  C   UNL     1      -4.345   3.275  26.324  0.00  0.00    +0.094 C 
ATOM     16  C   UNL     1      -5.781   5.188  26.549  0.00  0.00    +0.085 C 
ENDROOT
BRANCH  11  18
ATOM      7  N   UNL     1      -3.589   2.312  23.042  0.00  0.00    -0.237 NA
ATOM      8  N   UNL     1      -2.979   0.004  22.717  0.00  0.00    -0.229 NA
ATOM     18  C   UNL     1      -4.268   1.939  24.146  0.00  0.00    +0.050 A 
ATOM     19  C   UNL     1      -4.348   0.635  24.593  0.00  0.00    +0.055 A 
ATOM     20  C   UNL     1      -3.677  -0.299  23.831  0.00  0.00    +0.110 A 
ATOM     21  C   UNL     1      -2.976   1.308  22.384  0.00  0.00    +0.127 A 
ATOM     24  C   UNL     1      -2.214   1.683  21.159  0.00  0.00    +0.088 C 
BRANCH  20  23
ATOM      2  O   UNL     1      -3.241  -1.980  25.436  0.00  0.00    -0.461 OA
ATOM     23  C   UNL     1      -3.678  -1.695  24.182  0.00  0.00    +0.153 A 
ATOM     25  C   UNL     1      -4.030  -2.848  23.518  0.00  0.00    +0.051 A 
ATOM     27  C   UNL     1      -3.794  -3.910  24.424  0.00  0.00    +0.042 A 
ATOM     28  C   UNL     1      -3.315  -3.330  25.575  0.00  0.00    +0.196 A 
ENDBRANCH  20  23
ENDBRANCH  11  18
BRANCH  12  17
ATOM     17  C   UNL     1      -2.028   5.340  26.188  0.00  0.00    +0.124 C 
BRANCH  17   6
ATOM      1  O   UNL     1      -0.949   2.690  26.298  0.00  0.00    -0.253 OA
ATOM      6  N   UNL     1      -1.337   4.654  25.141  0.00  0.00    -0.298 N 
ATOM      9  N   UNL     1      -0.208   2.940  24.086  0.00  0.00    -0.269 N 
ATOM     22  C   UNL     1      -0.832   3.348  25.267  0.00  0.00    +0.304 C 
ATOM     36  H   UNL     1      -1.199   5.139  24.259  0.00  0.00    +0.150 HD
ATOM     37  H   UNL     1      -0.198   3.610  23.321  0.00  0.00    +0.156 HD
BRANCH   9  26
ATOM     26  C   UNL     1       0.420   1.701  23.818  0.00  0.00    +0.042 A 
ATOM     29  C   UNL     1      -0.215   0.508  24.164  0.00  0.00    +0.069 A 
ATOM     30  C   UNL     1       1.674   1.673  23.209  0.00  0.00    +0.069 A 
ATOM     31  C   UNL     1       2.294   0.451  22.945  0.00  0.00    +0.125 A 
ATOM     32  C   UNL     1       0.404  -0.713  23.900  0.00  0.00    +0.125 A 
ATOM     33  C   UNL     1       1.659  -0.741  23.289  0.00  0.00    +0.091 A 
BRANCH  31   3
ATOM      3  O   UNL     1       3.518   0.423  22.350  0.00  0.00    -0.495 OA
ATOM     34  C   UNL     1       4.657   0.432  23.209  0.00  0.00    +0.277 C 
ENDBRANCH  31   3
BRANCH  32   4
ATOM      4  O   UNL     1      -0.214  -1.877  24.236  0.00  0.00    -0.495 OA
ATOM     35  C   UNL     1       0.124  -2.452  25.498  0.00  0.00    +0.277 C 
ENDBRANCH  32   4
ENDBRANCH   9  26
ENDBRANCH  17   6
ENDBRANCH  12  17
TORSDOF 7
ENDMDL
MODEL 4
REMARK VINA RESULT:       8.5      1.786      3.075
REMARK  Name = 26742460
REMARK  10 active torsions:
REMARK  status: ('A' for Active; 'I' for Inactive)
REMARK    1  A    between atoms: O_3  and  C_31
REMARK    2  A    between atoms: O_3  and  C_34
REMARK    3  A    between atoms: O_4  and  C_32
REMARK    4  A    between atoms: O_4  and  C_35
REMARK    5  A    between atoms: N_6  and  C_17
REMARK    6  A    between atoms: N_9  and  C_26
REMARK    7  A    between atoms: C_11  and  C_18
REMARK    8  A    between atoms: C_12  and  C_17
REMARK    9  A    between atoms: C_20  and  C_23
REMARK   10  A    between atoms: C_21  and  C_24
REMARK                            x       y       z     vdW  Elec       q    Type
REMARK                         _______ _______ _______ _____ _____    ______ ____
ROOT
ATOM      5  N   UNL     1      -4.444   4.673  26.716  0.00  0.00    -0.297 NA
ATOM     10  C   UNL     1      -5.107   4.418  24.211  0.00  0.00    +0.002 C 
ATOM     11  C   UNL     1      -4.987   3.023  24.885  0.00  0.00    +0.055 C 
ATOM     12  C   UNL     1      -3.530   5.478  25.863  0.00  0.00    +0.074 C 
ATOM     13  C   UNL     1      -3.774   5.179  24.369  0.00  0.00    +0.024 C 
ATOM     14  C   UNL     1      -6.175   5.204  25.001  0.00  0.00    +0.019 C 
ATOM     15  C   UNL     1      -4.397   3.246  26.308  0.00  0.00    +0.094 C 
ATOM     16  C   UNL     1      -5.823   5.170  26.498  0.00  0.00    +0.085 C 
ENDROOT
BRANCH  11  18
ATOM      7  N   UNL     1      -3.593   2.283  23.017  0.00  0.00    -0.237 NA
ATOM      8  N   UNL     1      -2.952  -0.021  22.728  0.00  0.00    -0.229 NA
ATOM     18  C   UNL     1      -4.265   1.918  24.128  0.00  0.00    +0.050 A 
ATOM     19  C   UNL     1      -4.326   0.621  24.596  0.00  0.00    +0.055 A 
ATOM     20  C   UNL     1      -3.643  -0.316  23.848  0.00  0.00    +0.110 A 
ATOM     21  C   UNL     1      -2.968   1.278  22.374  0.00  0.00    +0.127 A 
ATOM     24  C   UNL     1      -2.213   1.643  21.141  0.00  0.00    +0.088 C 
BRANCH  20  23
ATOM      2  O   UNL     1      -3.266  -1.958  25.507  0.00  0.00    -0.461 OA
ATOM     23  C   UNL     1      -3.624  -1.705  24.221  0.00  0.00    +0.153 A 
ATOM     25  C   UNL     1      -3.892  -2.879  23.555  0.00  0.00    +0.051 A 
ATOM     27  C   UNL     1      -3.685  -3.919  24.492  0.00  0.00    +0.042 A 
ATOM     28  C   UNL     1      -3.306  -3.307  25.664  0.00  0.00    +0.196 A 
ENDBRANCH  20  23
ENDBRANCH  11  18
BRANCH  12  17
ATOM     17  C   UNL     1      -2.061   5.294  26.250  0.00  0.00    +0.124 C 
BRANCH  17   6
ATOM      1  O   UNL     1      -1.007   2.632  26.297  0.00  0.00    -0.253 OA
ATOM      6  N   UNL     1      -1.335   4.643  25.203  0.00  0.00    -0.298 N 
ATOM      9  N   UNL     1      -0.180   2.961  24.126  0.00  0.00    -0.269 N 
ATOM     22  C   UNL     1      -0.846   3.328  25.298  0.00  0.00    +0.304 C 
ATOM     36  H   UNL     1      -1.159   5.160  24.347  0.00  0.00    +0.150 HD
ATOM     37  H   UNL     1      -0.135   3.660  23.388  0.00  0.00    +0.156 HD
BRANCH   9  26
ATOM     26  C   UNL     1       0.448   1.728  23.833  0.00  0.00    +0.042 A 
ATOM     29  C   UNL     1       1.706   1.711  23.230  0.00  0.00    +0.069 A 
ATOM     30  C   UNL     1      -0.191   0.528  24.147  0.00  0.00    +0.069 A 
ATOM     31  C   UNL     1       0.429  -0.689  23.858  0.00  0.00    +0.125 A 
ATOM     32  C   UNL     1       2.325   0.495  22.941  0.00  0.00    +0.125 A 
ATOM     33  C   UNL     1       1.686  -0.705  23.256  0.00  0.00    +0.091 A 
BRANCH  31   3
ATOM      3  O   UNL     1      -0.194  -1.859  24.165  0.00  0.00    -0.495 OA
ATOM     34  C   UNL     1       0.139  -2.463  25.414  0.00  0.00    +0.277 C 
ENDBRANCH  31   3
BRANCH  32   4
ATOM      4  O   UNL     1       3.552   0.478  22.353  0.00  0.00    -0.495 OA
ATOM     35  C   UNL     1       4.685   0.394  23.216  0.00  0.00    +0.277 C 
ENDBRANCH  32   4
ENDBRANCH   9  26
ENDBRANCH  17   6
ENDBRANCH  12  17
TORSDOF 7
ENDMDL
MODEL 5
REMARK VINA RESULT:       9.4      1.907      5.370
REMARK  Name = 26742460
REMARK  10 active torsions:
REMARK  status: ('A' for Active; 'I' for Inactive)
REMARK    1  A    between atoms: O_3  and  C_31
REMARK    2  A    between atoms: O_3  and  C_34
REMARK    3  A    between atoms: O_4  and  C_32
REMARK    4  A    between atoms: O_4  and  C_35
REMARK    5  A    between atoms: N_6  and  C_17
REMARK    6  A    between atoms: N_9  and  C_26
REMARK    7  A    between atoms: C_11  and  C_18
REMARK    8  A    between atoms: C_12  and  C_17
REMARK    9  A    between atoms: C_20  and  C_23
REMARK   10  A    between atoms: C_21  and  C_24
REMARK                            x       y       z     vdW  Elec       q    Type
REMARK                         _______ _______ _______ _____ _____    ______ ____
ROOT
ATOM      5  N   UNL     1      -4.414   4.836  23.695  0.00  0.00    -0.297 NA
ATOM     10  C   UNL     1      -2.262   5.775  24.821  0.00  0.00    +0.002 C 
ATOM     11  C   UNL     1      -1.917   4.554  23.925  0.00  0.00    +0.055 C 
ATOM     12  C   UNL     1      -4.635   5.002  25.156  0.00  0.00    +0.074 C 
ATOM     13  C   UNL     1      -3.314   5.359  25.870  0.00  0.00    +0.024 C 
ATOM     14  C   UNL     1      -2.925   6.826  23.905  0.00  0.00    +0.019 C 
ATOM     15  C   UNL     1      -3.263   3.930  23.454  0.00  0.00    +0.094 C 
ATOM     16  C   UNL     1      -4.081   6.166  23.132  0.00  0.00    +0.085 C 
ENDROOT
BRANCH  11  18
ATOM      7  N   UNL     1      -0.932   3.351  25.813  0.00  0.00    -0.237 NA
ATOM      8  N   UNL     1       0.744   1.646  25.515  0.00  0.00    -0.229 NA
ATOM     18  C   UNL     1      -0.958   3.508  24.473  0.00  0.00    +0.050 A 
ATOM     19  C   UNL     1      -0.173   2.781  23.602  0.00  0.00    +0.055 A 
ATOM     20  C   UNL     1       0.668   1.855  24.185  0.00  0.00    +0.110 A 
ATOM     21  C   UNL     1      -0.071   2.417  26.260  0.00  0.00    +0.127 A 
ATOM     24  C   UNL     1      -0.015   2.214  27.737  0.00  0.00    +0.088 C 
BRANCH  20  23
ATOM      2  O   UNL     1       2.844   1.414  23.371  0.00  0.00    -0.461 OA
ATOM     23  C   UNL     1       1.541   1.030  23.393  0.00  0.00    +0.153 A 
ATOM     25  C   UNL     1       1.357  -0.096  22.624  0.00  0.00    +0.051 A 
ATOM     27  C   UNL     1       2.628  -0.425  22.097  0.00  0.00    +0.042 A 
ATOM     28  C   UNL     1       3.499   0.523  22.581  0.00  0.00    +0.196 A 
ENDBRANCH  20  23
ENDBRANCH  11  18
BRANCH  12  17
ATOM     17  C   UNL     1      -5.313   3.782  25.784  0.00  0.00    +0.124 C 
BRANCH  17   6
ATOM      1  O   UNL     1      -4.840   1.377  24.303  0.00  0.00    -0.253 OA
ATOM      6  N   UNL     1      -4.353   2.765  26.088  0.00  0.00    -0.298 N 
ATOM      9  N   UNL     1      -3.172   0.798  25.848  0.00  0.00    -0.269 N 
ATOM     22  C   UNL     1      -4.177   1.606  25.312  0.00  0.00    +0.304 C 
ATOM     36  H   UNL     1      -3.770   2.885  26.911  0.00  0.00    +0.150 HD
ATOM     37  H   UNL     1      -2.718   1.135  26.694  0.00  0.00    +0.156 HD
BRANCH   9  26
ATOM     26  C   UNL     1      -2.703  -0.444  25.360  0.00  0.00    +0.042 A 
ATOM     29  C   UNL     1      -1.334  -0.714  25.340  0.00  0.00    +0.069 A 
ATOM     30  C   UNL     1      -3.609  -1.399  24.898  0.00  0.00    +0.069 A 
ATOM     31  C   UNL     1      -3.147  -2.624  24.416  0.00  0.00    +0.125 A 
ATOM     32  C   UNL     1      -0.872  -1.939  24.858  0.00  0.00    +0.125 A 
ATOM     33  C   UNL     1      -1.779  -2.894  24.397  0.00  0.00    +0.091 A 
BRANCH  31   3
ATOM      3  O   UNL     1      -4.031  -3.556  23.966  0.00  0.00    -0.495 OA
ATOM     34  C   UNL     1      -5.161  -3.079  23.238  0.00  0.00    +0.277 C 
ENDBRANCH  31   3
BRANCH  32   4
ATOM      4  O   UNL     1       0.463  -2.203  24.838  0.00  0.00    -0.495 OA
ATOM     35  C   UNL     1       0.936  -3.224  25.716  0.00  0.00    +0.277 C 
ENDBRANCH  32   4
ENDBRANCH   9  26
ENDBRANCH  17   6
ENDBRANCH  12  17
TORSDOF 7
ENDMDL
MODEL 6
REMARK VINA RESULT:       9.6      1.924      4.984
REMARK  Name = 26742460
REMARK  10 active torsions:
REMARK  status: ('A' for Active; 'I' for Inactive)
REMARK    1  A    between atoms: O_3  and  C_31
REMARK    2  A    between atoms: O_3  and  C_34
REMARK    3  A    between atoms: O_4  and  C_32
REMARK    4  A    between atoms: O_4  and  C_35
REMARK    5  A    between atoms: N_6  and  C_17
REMARK    6  A    between atoms: N_9  and  C_26
REMARK    7  A    between atoms: C_11  and  C_18
REMARK    8  A    between atoms: C_12  and  C_17
REMARK    9  A    between atoms: C_20  and  C_23
REMARK   10  A    between atoms: C_21  and  C_24
REMARK                            x       y       z     vdW  Elec       q    Type
REMARK                         _______ _______ _______ _____ _____    ______ ____
ROOT
ATOM      5  N   UNL     1      -4.407   4.803  23.740  0.00  0.00    -0.297 NA
ATOM     10  C   UNL     1      -2.244   5.745  24.842  0.00  0.00    +0.002 C 
ATOM     11  C   UNL     1      -1.908   4.522  23.945  0.00  0.00    +0.055 C 
ATOM     12  C   UNL     1      -4.613   4.971  25.203  0.00  0.00    +0.074 C 
ATOM     13  C   UNL     1      -3.285   5.330  25.903  0.00  0.00    +0.024 C 
ATOM     14  C   UNL     1      -2.916   6.794  23.931  0.00  0.00    +0.019 C 
ATOM     15  C   UNL     1      -3.258   3.897  23.489  0.00  0.00    +0.094 C 
ATOM     16  C   UNL     1      -4.080   6.132  23.172  0.00  0.00    +0.085 C 
ENDROOT
BRANCH  11  18
ATOM      7  N   UNL     1      -0.909   3.317  25.825  0.00  0.00    -0.237 NA
ATOM      8  N   UNL     1       0.771   1.618  25.514  0.00  0.00    -0.229 NA
ATOM     18  C   UNL     1      -0.942   3.477  24.486  0.00  0.00    +0.050 A 
ATOM     19  C   UNL     1      -0.160   2.755  23.608  0.00  0.00    +0.055 A 
ATOM     20  C   UNL     1       0.687   1.830  24.184  0.00  0.00    +0.110 A 
ATOM     21  C   UNL     1      -0.042   2.384  26.265  0.00  0.00    +0.127 A 
ATOM     24  C   UNL     1       0.022   2.178  27.741  0.00  0.00    +0.088 C 
BRANCH  20  23
ATOM      2  O   UNL     1       2.859   1.399  23.356  0.00  0.00    -0.461 OA
ATOM     23  C   UNL     1       1.558   1.010  23.386  0.00  0.00    +0.153 A 
ATOM     25  C   UNL     1       1.373  -0.116  22.617  0.00  0.00    +0.051 A 
ATOM     27  C   UNL     1       2.643  -0.439  22.081  0.00  0.00    +0.042 A 
ATOM     28  C   UNL     1       3.513   0.512  22.560  0.00  0.00    +0.196 A 
ENDBRANCH  20  23
ENDBRANCH  11  18
BRANCH  12  17
ATOM     17  C   UNL     1      -5.283   3.753  25.840  0.00  0.00    +0.124 C 
BRANCH  17   6
ATOM      1  O   UNL     1      -4.920   1.343  24.336  0.00  0.00    -0.253 OA
ATOM      6  N   UNL     1      -4.327   2.720  26.097  0.00  0.00    -0.298 N 
ATOM      9  N   UNL     1      -3.190   0.735  25.801  0.00  0.00    -0.269 N 
ATOM     22  C   UNL     1      -4.206   1.559  25.313  0.00  0.00    +0.304 C 
ATOM     36  H   UNL     1      -3.705   2.829  26.893  0.00  0.00    +0.150 HD
ATOM     37  H   UNL     1      -2.691   1.063  26.624  0.00  0.00    +0.156 HD
BRANCH   9  26
ATOM     26  C   UNL     1      -2.764  -0.514  25.290  0.00  0.00    +0.042 A 
ATOM     29  C   UNL     1      -3.705  -1.448  24.855  0.00  0.00    +0.069 A 
ATOM     30  C   UNL     1      -1.403  -0.812  25.223  0.00  0.00    +0.069 A 
ATOM     31  C   UNL     1      -0.983  -2.044  24.719  0.00  0.00    +0.125 A 
ATOM     32  C   UNL     1      -3.285  -2.679  24.352  0.00  0.00    +0.125 A 
ATOM     33  C   UNL     1      -1.924  -2.976  24.284  0.00  0.00    +0.091 A 
BRANCH  31   3
ATOM      3  O   UNL     1       0.345  -2.335  24.652  0.00  0.00    -0.495 OA
ATOM     34  C   UNL     1       0.924  -2.983  25.784  0.00  0.00    +0.277 C 
ENDBRANCH  31   3
BRANCH  32   4
ATOM      4  O   UNL     1      -4.203  -3.590  23.928  0.00  0.00    -0.495 OA
ATOM     35  C   UNL     1      -5.298  -3.098  23.156  0.00  0.00    +0.277 C 
ENDBRANCH  32   4
ENDBRANCH   9  26
ENDBRANCH  17   6
ENDBRANCH  12  17
TORSDOF 7
ENDMDL
MODEL 7
REMARK VINA RESULT:       9.6      2.502      5.234
REMARK  Name = 26742460
REMARK  10 active torsions:
REMARK  status: ('A' for Active; 'I' for Inactive)
REMARK    1  A    between atoms: O_3  and  C_31
REMARK    2  A    between atoms: O_3  and  C_34
REMARK    3  A    between atoms: O_4  and  C_32
REMARK    4  A    between atoms: O_4  and  C_35
REMARK    5  A    between atoms: N_6  and  C_17
REMARK    6  A    between atoms: N_9  and  C_26
REMARK    7  A    between atoms: C_11  and  C_18
REMARK    8  A    between atoms: C_12  and  C_17
REMARK    9  A    between atoms: C_20  and  C_23
REMARK   10  A    between atoms: C_21  and  C_24
REMARK                            x       y       z     vdW  Elec       q    Type
REMARK                         _______ _______ _______ _____ _____    ______ ____
ROOT
ATOM      5  N   UNL     1      -4.365   4.749  23.757  0.00  0.00    -0.297 NA
ATOM     10  C   UNL     1      -2.176   5.653  24.838  0.00  0.00    +0.002 C 
ATOM     11  C   UNL     1      -1.881   4.381  23.996  0.00  0.00    +0.055 C 
ATOM     12  C   UNL     1      -4.576   4.986  25.210  0.00  0.00    +0.074 C 
ATOM     13  C   UNL     1      -3.240   5.324  25.906  0.00  0.00    +0.024 C 
ATOM     14  C   UNL     1      -2.801   6.688  23.878  0.00  0.00    +0.019 C 
ATOM     15  C   UNL     1      -3.251   3.790  23.555  0.00  0.00    +0.094 C 
ATOM     16  C   UNL     1      -3.983   6.039  23.137  0.00  0.00    +0.085 C 
ENDROOT
BRANCH  11  18
ATOM      7  N   UNL     1      -0.641   2.283  23.792  0.00  0.00    -0.237 NA
ATOM      8  N   UNL     1       0.688   1.397  25.596  0.00  0.00    -0.229 NA
ATOM     18  C   UNL     1      -0.960   3.324  24.588  0.00  0.00    +0.050 A 
ATOM     19  C   UNL     1      -0.500   3.469  25.881  0.00  0.00    +0.055 A 
ATOM     20  C   UNL     1       0.329   2.465  26.337  0.00  0.00    +0.110 A 
ATOM     21  C   UNL     1       0.175   1.368  24.352  0.00  0.00    +0.127 A 
ATOM     24  C   UNL     1       0.551   0.202  23.502  0.00  0.00    +0.088 C 
BRANCH  20  23
ATOM      2  O   UNL     1       2.190   2.838  27.748  0.00  0.00    -0.461 OA
ATOM     23  C   UNL     1       0.879   2.491  27.666  0.00  0.00    +0.153 A 
ATOM     25  C   UNL     1       0.368   2.234  28.918  0.00  0.00    +0.051 A 
ATOM     27  C   UNL     1       1.434   2.438  29.827  0.00  0.00    +0.042 A 
ATOM     28  C   UNL     1       2.519   2.805  29.066  0.00  0.00    +0.196 A 
ENDBRANCH  20  23
ENDBRANCH  11  18
BRANCH  12  17
ATOM     17  C   UNL     1      -5.297   3.822  25.892  0.00  0.00    +0.124 C 
BRANCH  17   6
ATOM      1  O   UNL     1      -5.363   1.361  24.429  0.00  0.00    -0.253 OA
ATOM      6  N   UNL     1      -4.419   2.705  26.058  0.00  0.00    -0.298 N 
ATOM      9  N   UNL     1      -3.526   0.611  25.682  0.00  0.00    -0.269 N 
ATOM     22  C   UNL     1      -4.512   1.523  25.300  0.00  0.00    +0.304 C 
ATOM     36  H   UNL     1      -3.692   2.766  26.764  0.00  0.00    +0.150 HD
ATOM     37  H   UNL     1      -2.897   0.903  26.425  0.00  0.00    +0.156 HD
BRANCH   9  26
ATOM     26  C   UNL     1      -3.292  -0.683  25.160  0.00  0.00    +0.042 A 
ATOM     29  C   UNL     1      -4.328  -1.385  24.544  0.00  0.00    +0.069 A 
ATOM     30  C   UNL     1      -2.025  -1.258  25.264  0.00  0.00    +0.069 A 
ATOM     31  C   UNL     1      -1.794  -2.534  24.750  0.00  0.00    +0.125 A 
ATOM     32  C   UNL     1      -4.096  -2.661  24.030  0.00  0.00    +0.125 A 
ATOM     33  C   UNL     1      -2.829  -3.235  24.133  0.00  0.00    +0.091 A 
BRANCH  31   3
ATOM      3  O   UNL     1      -0.557  -3.095  24.850  0.00  0.00    -0.495 OA
ATOM     34  C   UNL     1       0.382  -2.445  25.705  0.00  0.00    +0.277 C 
ENDBRANCH  31   3
BRANCH  32   4
ATOM      4  O   UNL     1      -5.106  -3.346  23.428  0.00  0.00    -0.495 OA
ATOM     35  C   UNL     1      -4.846  -3.881  22.131  0.00  0.00    +0.277 C 
ENDBRANCH  32   4
ENDBRANCH   9  26
ENDBRANCH  17   6
ENDBRANCH  12  17
TORSDOF 7
ENDMDL
MODEL 8
REMARK VINA RESULT:       9.7      2.494      5.612
REMARK  Name = 26742460
REMARK  10 active torsions:
REMARK  status: ('A' for Active; 'I' for Inactive)
REMARK    1  A    between atoms: O_3  and  C_31
REMARK    2  A    between atoms: O_3  and  C_34
REMARK    3  A    between atoms: O_4  and  C_32
REMARK    4  A    between atoms: O_4  and  C_35
REMARK    5  A    between atoms: N_6  and  C_17
REMARK    6  A    between atoms: N_9  and  C_26
REMARK    7  A    between atoms: C_11  and  C_18
REMARK    8  A    between atoms: C_12  and  C_17
REMARK    9  A    between atoms: C_20  and  C_23
REMARK   10  A    between atoms: C_21  and  C_24
REMARK                            x       y       z     vdW  Elec       q    Type
REMARK                         _______ _______ _______ _____ _____    ______ ____
ROOT
ATOM      5  N   UNL     1      -4.361   4.735  23.722  0.00  0.00    -0.297 NA
ATOM     10  C   UNL     1      -2.198   5.637  24.857  0.00  0.00    +0.002 C 
ATOM     11  C   UNL     1      -1.878   4.382  23.999  0.00  0.00    +0.055 C 
ATOM     12  C   UNL     1      -4.599   4.947  25.175  0.00  0.00    +0.074 C 
ATOM     13  C   UNL     1      -3.278   5.282  25.900  0.00  0.00    +0.024 C 
ATOM     14  C   UNL     1      -2.814   6.683  23.904  0.00  0.00    +0.019 C 
ATOM     15  C   UNL     1      -3.236   3.788  23.524  0.00  0.00    +0.094 C 
ATOM     16  C   UNL     1      -3.978   6.039  23.130  0.00  0.00    +0.085 C 
ENDROOT
BRANCH  11  18
ATOM      7  N   UNL     1      -0.646   2.279  23.794  0.00  0.00    -0.237 NA
ATOM      8  N   UNL     1       0.684   1.389  25.595  0.00  0.00    -0.229 NA
ATOM     18  C   UNL     1      -0.960   3.322  24.590  0.00  0.00    +0.050 A 
ATOM     19  C   UNL     1      -0.497   3.466  25.882  0.00  0.00    +0.055 A 
ATOM     20  C   UNL     1       0.329   2.459  26.336  0.00  0.00    +0.110 A 
ATOM     21  C   UNL     1       0.168   1.362  24.352  0.00  0.00    +0.127 A 
ATOM     24  C   UNL     1       0.538   0.194  23.501  0.00  0.00    +0.088 C 
BRANCH  20  23
ATOM      2  O   UNL     1       2.193   2.831  27.744  0.00  0.00    -0.461 OA
ATOM     23  C   UNL     1       0.882   2.483  27.665  0.00  0.00    +0.153 A 
ATOM     25  C   UNL     1       0.374   2.226  28.917  0.00  0.00    +0.051 A 
ATOM     27  C   UNL     1       1.442   2.428  29.824  0.00  0.00    +0.042 A 
ATOM     28  C   UNL     1       2.525   2.796  29.061  0.00  0.00    +0.196 A 
ENDBRANCH  20  23
ENDBRANCH  11  18
BRANCH  12  17
ATOM     17  C   UNL     1      -5.323   3.766  25.824  0.00  0.00    +0.124 C 
BRANCH  17   6
ATOM      1  O   UNL     1      -5.344   1.276  24.410  0.00  0.00    -0.253 OA
ATOM      6  N   UNL     1      -4.431   2.664  26.019  0.00  0.00    -0.298 N 
ATOM      9  N   UNL     1      -3.506   0.576  25.691  0.00  0.00    -0.269 N 
ATOM     22  C   UNL     1      -4.502   1.467  25.284  0.00  0.00    +0.304 C 
ATOM     36  H   UNL     1      -3.710   2.750  26.730  0.00  0.00    +0.150 HD
ATOM     37  H   UNL     1      -2.886   0.892  26.433  0.00  0.00    +0.156 HD
BRANCH   9  26
ATOM     26  C   UNL     1      -3.249  -0.724  25.197  0.00  0.00    +0.042 A 
ATOM     29  C   UNL     1      -1.977  -1.281  25.326  0.00  0.00    +0.069 A 
ATOM     30  C   UNL     1      -4.268  -1.449  24.579  0.00  0.00    +0.069 A 
ATOM     31  C   UNL     1      -4.015  -2.732  24.091  0.00  0.00    +0.125 A 
ATOM     32  C   UNL     1      -1.724  -2.563  24.838  0.00  0.00    +0.125 A 
ATOM     33  C   UNL     1      -2.744  -3.289  24.222  0.00  0.00    +0.091 A 
BRANCH  31   3
ATOM      3  O   UNL     1      -5.010  -3.440  23.489  0.00  0.00    -0.495 OA
ATOM     34  C   UNL     1      -4.870  -3.695  22.093  0.00  0.00    +0.277 C 
ENDBRANCH  31   3
BRANCH  32   4
ATOM      4  O   UNL     1      -0.483  -3.107  24.964  0.00  0.00    -0.495 OA
ATOM     35  C   UNL     1       0.474  -2.373  25.727  0.00  0.00    +0.277 C 
ENDBRANCH  32   4
ENDBRANCH   9  26
ENDBRANCH  17   6
ENDBRANCH  12  17
TORSDOF 7
ENDMDL
MODEL 9
REMARK VINA RESULT:      10.1      2.786      4.583
REMARK  Name = 26742460
REMARK  10 active torsions:
REMARK  status: ('A' for Active; 'I' for Inactive)
REMARK    1  A    between atoms: O_3  and  C_31
REMARK    2  A    between atoms: O_3  and  C_34
REMARK    3  A    between atoms: O_4  and  C_32
REMARK    4  A    between atoms: O_4  and  C_35
REMARK    5  A    between atoms: N_6  and  C_17
REMARK    6  A    between atoms: N_9  and  C_26
REMARK    7  A    between atoms: C_11  and  C_18
REMARK    8  A    between atoms: C_12  and  C_17
REMARK    9  A    between atoms: C_20  and  C_23
REMARK   10  A    between atoms: C_21  and  C_24
REMARK                            x       y       z     vdW  Elec       q    Type
REMARK                         _______ _______ _______ _____ _____    ______ ____
ROOT
ATOM      5  N   UNL     1      -4.400   3.355  25.672  0.00  0.00    -0.297 NA
ATOM     10  C   UNL     1      -5.173   1.419  24.111  0.00  0.00    +0.002 C 
ATOM     11  C   UNL     1      -4.200   0.884  25.199  0.00  0.00    +0.055 C 
ATOM     12  C   UNL     1      -4.225   3.748  24.249  0.00  0.00    +0.074 C 
ATOM     13  C   UNL     1      -4.480   2.546  23.316  0.00  0.00    +0.024 C 
ATOM     14  C   UNL     1      -6.366   2.056  24.855  0.00  0.00    +0.019 C 
ATOM     15  C   UNL     1      -3.630   2.118  25.957  0.00  0.00    +0.094 C 
ATOM     16  C   UNL     1      -5.837   3.065  25.890  0.00  0.00    +0.085 C 
ENDROOT
BRANCH  11  18
ATOM      7  N   UNL     1      -3.406  -1.401  24.840  0.00  0.00    -0.237 NA
ATOM      8  N   UNL     1      -1.190  -1.876  24.021  0.00  0.00    -0.229 NA
ATOM     18  C   UNL     1      -3.109  -0.086  24.772  0.00  0.00    +0.050 A 
ATOM     19  C   UNL     1      -1.892   0.403  24.345  0.00  0.00    +0.055 A 
ATOM     20  C   UNL     1      -0.961  -0.547  23.978  0.00  0.00    +0.110 A 
ATOM     21  C   UNL     1      -2.415  -2.228  24.455  0.00  0.00    +0.127 A 
ATOM     24  C   UNL     1      -2.706  -3.690  24.516  0.00  0.00    +0.088 C 
BRANCH  20  23
ATOM      2  O   UNL     1       0.807   1.023  23.962  0.00  0.00    -0.461 OA
ATOM     23  C   UNL     1       0.349  -0.175  23.514  0.00  0.00    +0.153 A 
ATOM     25  C   UNL     1       1.278  -0.771  22.693  0.00  0.00    +0.051 A 
ATOM     27  C   UNL     1       2.377   0.118  22.632  0.00  0.00    +0.042 A 
ATOM     28  C   UNL     1       2.042   1.193  23.421  0.00  0.00    +0.196 A 
ENDBRANCH  20  23
ENDBRANCH  11  18
BRANCH  12  17
ATOM     17  C   UNL     1      -2.863   4.395  23.987  0.00  0.00    +0.124 C 
BRANCH  17   6
ATOM      1  O   UNL     1      -1.689   4.773  26.572  0.00  0.00    -0.253 OA
ATOM      6  N   UNL     1      -1.810   3.621  24.570  0.00  0.00    -0.298 N 
ATOM      9  N   UNL     1      -0.268   2.954  26.152  0.00  0.00    -0.269 N 
ATOM     22  C   UNL     1      -1.282   3.867  25.850  0.00  0.00    +0.304 C 
ATOM     36  H   UNL     1      -1.419   2.856  24.029  0.00  0.00    +0.150 HD
ATOM     37  H   UNL     1      -0.050   2.262  25.439  0.00  0.00    +0.156 HD
BRANCH   9  26
ATOM     26  C   UNL     1       0.504   2.873  27.335  0.00  0.00    +0.042 A 
ATOM     29  C   UNL     1      -0.125   2.701  28.568  0.00  0.00    +0.069 A 
ATOM     30  C   UNL     1       1.894   2.966  27.268  0.00  0.00    +0.069 A 
ATOM     31  C   UNL     1       2.656   2.886  28.434  0.00  0.00    +0.125 A 
ATOM     32  C   UNL     1       0.636   2.621  29.734  0.00  0.00    +0.125 A 
ATOM     33  C   UNL     1       2.027   2.713  29.666  0.00  0.00    +0.091 A 
BRANCH  31   3
ATOM      3  O   UNL     1       4.013   2.976  28.369  0.00  0.00    -0.495 OA
ATOM     34  C   UNL     1       4.722   1.801  27.982  0.00  0.00    +0.277 C 
ENDBRANCH  31   3
BRANCH  32   4
ATOM      4  O   UNL     1       0.023   2.453  30.937  0.00  0.00    -0.495 OA
ATOM     35  C   UNL     1       0.859   2.162  32.057  0.00  0.00    +0.277 C 
ENDBRANCH  32   4
ENDBRANCH   9  26
ENDBRANCH  17   6
ENDBRANCH  12  17
TORSDOF 7
ENDMDL
MODEL 10
REMARK VINA RESULT:      10.7      2.955      6.175
REMARK  Name = 26742460
REMARK  10 active torsions:
REMARK  status: ('A' for Active; 'I' for Inactive)
REMARK    1  A    between atoms: O_3  and  C_31
REMARK    2  A    between atoms: O_3  and  C_34
REMARK    3  A    between atoms: O_4  and  C_32
REMARK    4  A    between atoms: O_4  and  C_35
REMARK    5  A    between atoms: N_6  and  C_17
REMARK    6  A    between atoms: N_9  and  C_26
REMARK    7  A    between atoms: C_11  and  C_18
REMARK    8  A    between atoms: C_12  and  C_17
REMARK    9  A    between atoms: C_20  and  C_23
REMARK   10  A    between atoms: C_21  and  C_24
REMARK                            x       y       z     vdW  Elec       q    Type
REMARK                         _______ _______ _______ _____ _____    ______ ____
ROOT
ATOM      5  N   UNL     1      -1.662  -3.137  24.007  0.00  0.00    -0.297 NA
ATOM     10  C   UNL     1      -3.871  -2.110  24.927  0.00  0.00    +0.002 C 
ATOM     11  C   UNL     1      -3.488  -1.451  23.573  0.00  0.00    +0.055 C 
ATOM     12  C   UNL     1      -1.483  -2.734  25.427  0.00  0.00    +0.074 C 
ATOM     13  C   UNL     1      -2.708  -1.939  25.926  0.00  0.00    +0.024 C 
ATOM     14  C   UNL     1      -4.020  -3.623  24.659  0.00  0.00    +0.019 C 
ATOM     15  C   UNL     1      -2.069  -1.965  23.193  0.00  0.00    +0.094 C 
ATOM     16  C   UNL     1      -2.753  -4.139  23.953  0.00  0.00    +0.085 C 
ENDROOT
BRANCH  11  18
ATOM      7  N   UNL     1      -2.906   0.646  22.457  0.00  0.00    -0.237 NA
ATOM      8  N   UNL     1      -3.777   2.772  23.183  0.00  0.00    -0.229 NA
ATOM     18  C   UNL     1      -3.605   0.061  23.451  0.00  0.00    +0.050 A 
ATOM     19  C   UNL     1      -4.401   0.756  24.339  0.00  0.00    +0.055 A 
ATOM     20  C   UNL     1      -4.449   2.122  24.155  0.00  0.00    +0.110 A 
ATOM     21  C   UNL     1      -3.035   1.985  22.381  0.00  0.00    +0.127 A 
ATOM     24  C   UNL     1      -2.277   2.667  21.293  0.00  0.00    +0.088 C 
BRANCH  20  23
ATOM      2  O   UNL     1      -5.220   4.291  24.702  0.00  0.00    -0.461 OA
ATOM     23  C   UNL     1      -5.240   2.968  25.010  0.00  0.00    +0.153 A 
ATOM     25  C   UNL     1      -6.039   2.740  26.108  0.00  0.00    +0.051 A 
ATOM     27  C   UNL     1      -6.541   4.004  26.497  0.00  0.00    +0.042 A 
ATOM     28  C   UNL     1      -6.015   4.914  25.611  0.00  0.00    +0.196 A 
ENDBRANCH  20  23
ENDBRANCH  11  18
BRANCH  12  17
ATOM     17  C   UNL     1      -0.175  -1.973  25.655  0.00  0.00    +0.124 C 
BRANCH  17   6
ATOM      1  O   UNL     1      -0.884   0.658  26.537  0.00  0.00    -0.253 OA
ATOM      6  N   UNL     1      -0.142  -0.772  24.878  0.00  0.00    -0.298 N 
ATOM      9  N   UNL     1      -0.373   1.473  24.396  0.00  0.00    -0.269 N 
ATOM     22  C   UNL     1      -0.506   0.490  25.380  0.00  0.00    +0.304 C 
ATOM     36  H   UNL     1       0.157  -0.835  23.909  0.00  0.00    +0.150 HD
ATOM     37  H   UNL     1      -0.046   1.164  23.484  0.00  0.00    +0.156 HD
BRANCH   9  26
ATOM     26  C   UNL     1      -0.641   2.857  24.510  0.00  0.00    +0.042 A 
ATOM     29  C   UNL     1      -1.573   3.313  25.441  0.00  0.00    +0.069 A 
ATOM     30  C   UNL     1       0.027   3.766  23.689  0.00  0.00    +0.069 A 
ATOM     31  C   UNL     1      -0.237   5.132  23.800  0.00  0.00    +0.125 A 
ATOM     32  C   UNL     1      -1.837   4.678  25.552  0.00  0.00    +0.125 A 
ATOM     33  C   UNL     1      -1.169   5.587  24.732  0.00  0.00    +0.091 A 
BRANCH  31   3
ATOM      3  O   UNL     1       0.415   6.019  22.999  0.00  0.00    -0.495 OA
ATOM     34  C   UNL     1       1.098   5.487  21.865  0.00  0.00    +0.277 C 
ENDBRANCH  31   3
BRANCH  32   4
ATOM      4  O   UNL     1      -2.747   5.124  26.461  0.00  0.00    -0.495 OA
ATOM     35  C   UNL     1      -3.104   4.230  27.515  0.00  0.00    +0.277 C 
ENDBRANCH  32   4
ENDBRANCH   9  26
ENDBRANCH  17   6
ENDBRANCH  12  17
TORSDOF 7
ENDMDL
