MODEL 1
REMARK VINA RESULT:      -2.6      0.000      0.000
REMARK  Name = 26742380
REMARK  7 active torsions:
REMARK  status: ('A' for Active; 'I' for Inactive)
REMARK    1  A    between atoms: N_3  and  C_14
REMARK    2  A    between atoms: N_6  and  C_22
REMARK    3  A    between atoms: C_8  and  C_15
REMARK    4  A    between atoms: C_9  and  C_14
REMARK    5  A    between atoms: C_17  and  C_20
REMARK    6  A    between atoms: C_18  and  C_21
REMARK    7  A    between atoms: C_22  and  C_27
REMARK                            x       y       z     vdW  Elec       q    Type
REMARK                         _______ _______ _______ _____ _____    ______ ____
ROOT
ATOM      2  N   UNL     1      -2.767  -2.438  23.732  0.00  0.00    -0.297 NA
ATOM      7  C   UNL     1      -2.834  -1.404  26.121  0.00  0.00    +0.002 C 
ATOM      8  C   UNL     1      -3.937  -0.776  25.226  0.00  0.00    +0.055 C 
ATOM      9  C   UNL     1      -1.405  -1.998  24.134  0.00  0.00    +0.074 C 
ATOM     10  C   UNL     1      -1.457  -1.198  25.453  0.00  0.00    +0.024 C 
ATOM     11  C   UNL     1      -3.098  -2.924  26.157  0.00  0.00    +0.019 C 
ATOM     12  C   UNL     1      -3.706  -1.290  23.776  0.00  0.00    +0.094 C 
ATOM     13  C   UNL     1      -3.226  -3.449  24.715  0.00  0.00    +0.085 C 
ENDROOT
BRANCH   8  15
ATOM      4  N   UNL     1      -5.387   1.171  25.528  0.00  0.00    -0.237 NA
ATOM      5  N   UNL     1      -4.553   3.427  25.384  0.00  0.00    -0.232 NA
ATOM     15  C   UNL     1      -4.136   0.732  25.279  0.00  0.00    +0.050 A 
ATOM     16  C   UNL     1      -3.056   1.567  25.075  0.00  0.00    +0.052 A 
ATOM     17  C   UNL     1      -3.326   2.919  25.140  0.00  0.00    +0.075 A 
ATOM     18  C   UNL     1      -5.522   2.511  25.566  0.00  0.00    +0.127 A 
ATOM     21  C   UNL     1      -6.892   3.033  25.836  0.00  0.00    +0.088 C 
BRANCH  17  20
ATOM     20  C   UNL     1      -2.284   3.898  24.943  0.00  0.00    +0.000 A 
ATOM     23  C   UNL     1      -1.016   3.492  24.526  0.00  0.00    +0.010 A 
ATOM     24  C   UNL     1      -2.546   5.249  25.170  0.00  0.00    +0.010 A 
ATOM     25  C   UNL     1      -0.009   4.439  24.336  0.00  0.00    +0.001 A 
ATOM     26  C   UNL     1      -1.537   6.195  24.980  0.00  0.00    +0.001 A 
ATOM     28  C   UNL     1      -0.269   5.790  24.562  0.00  0.00    +0.000 A 
ENDBRANCH  17  20
ENDBRANCH   8  15
BRANCH   9  14
ATOM     14  C   UNL     1      -0.693  -1.221  23.024  0.00  0.00    +0.124 C 
BRANCH  14   3
ATOM      1  O   UNL     1       1.533  -0.289  21.444  0.00  0.00    -0.253 OA
ATOM      3  N   UNL     1       0.522  -0.641  23.506  0.00  0.00    -0.298 N 
ATOM      6  N   UNL     1       2.625   0.314  23.401  0.00  0.00    -0.300 N 
ATOM     19  C   UNL     1       1.561  -0.211  22.671  0.00  0.00    +0.300 C 
ATOM     29  H   UNL     1       0.641  -0.538  24.509  0.00  0.00    +0.150 HD
ATOM     30  H   UNL     1       2.562   0.326  24.414  0.00  0.00    +0.150 HD
BRANCH   6  22
ATOM     22  C   UNL     1       3.822   0.827  22.779  0.00  0.00    +0.102 C 
ATOM     27  C   UNL     1       5.070   0.271  23.434  0.00  0.00    +0.024 C 
ENDBRANCH   6  22
ENDBRANCH  14   3
ENDBRANCH   9  14
TORSDOF 5
ENDMDL
MODEL 2
REMARK VINA RESULT:      -0.8      2.100      6.837
REMARK  Name = 26742380
REMARK  7 active torsions:
REMARK  status: ('A' for Active; 'I' for Inactive)
REMARK    1  A    between atoms: N_3  and  C_14
REMARK    2  A    between atoms: N_6  and  C_22
REMARK    3  A    between atoms: C_8  and  C_15
REMARK    4  A    between atoms: C_9  and  C_14
REMARK    5  A    between atoms: C_17  and  C_20
REMARK    6  A    between atoms: C_18  and  C_21
REMARK    7  A    between atoms: C_22  and  C_27
REMARK                            x       y       z     vdW  Elec       q    Type
REMARK                         _______ _______ _______ _____ _____    ______ ____
ROOT
ATOM      2  N   UNL     1      -3.345   4.073  24.257  0.00  0.00    -0.297 NA
ATOM      7  C   UNL     1      -0.966   3.965  25.310  0.00  0.00    +0.002 C 
ATOM      8  C   UNL     1      -1.022   3.123  24.005  0.00  0.00    +0.055 C 
ATOM      9  C   UNL     1      -3.443   3.728  25.700  0.00  0.00    +0.074 C 
ATOM     10  C   UNL     1      -2.043   3.457  26.292  0.00  0.00    +0.024 C 
ATOM     11  C   UNL     1      -1.348   5.410  24.925  0.00  0.00    +0.019 C 
ATOM     12  C   UNL     1      -2.509   3.071  23.551  0.00  0.00    +0.094 C 
ATOM     13  C   UNL     1      -2.678   5.392  24.150  0.00  0.00    +0.085 C 
ENDROOT
BRANCH   8  15
ATOM      4  N   UNL     1      -1.173   0.697  24.280  0.00  0.00    -0.237 NA
ATOM      5  N   UNL     1       0.742  -0.745  24.032  0.00  0.00    -0.232 NA
ATOM     15  C   UNL     1      -0.371   1.747  24.009  0.00  0.00    +0.050 A 
ATOM     16  C   UNL     1       0.979   1.634  23.743  0.00  0.00    +0.052 A 
ATOM     17  C   UNL     1       1.486   0.350  23.769  0.00  0.00    +0.075 A 
ATOM     18  C   UNL     1      -0.560  -0.502  24.275  0.00  0.00    +0.127 A 
ATOM     21  C   UNL     1      -1.415  -1.687  24.572  0.00  0.00    +0.088 C 
BRANCH  17  20
ATOM     20  C   UNL     1       2.883   0.095  23.509  0.00  0.00    +0.000 A 
ATOM     23  C   UNL     1       3.448  -1.127  23.877  0.00  0.00    +0.010 A 
ATOM     24  C   UNL     1       3.666   1.070  22.893  0.00  0.00    +0.010 A 
ATOM     25  C   UNL     1       4.798  -1.373  23.626  0.00  0.00    +0.001 A 
ATOM     26  C   UNL     1       5.017   0.822  22.643  0.00  0.00    +0.001 A 
ATOM     28  C   UNL     1       5.582  -0.399  23.009  0.00  0.00    +0.000 A 
ENDBRANCH  17  20
ENDBRANCH   8  15
BRANCH   9  14
ATOM     14  C   UNL     1      -4.406   2.568  25.958  0.00  0.00    +0.124 C 
BRANCH  14   3
ATOM      1  O   UNL     1      -5.954   0.510  24.656  0.00  0.00    -0.253 OA
ATOM      3  N   UNL     1      -3.914   1.357  25.377  0.00  0.00    -0.298 N 
ATOM      6  N   UNL     1      -3.995  -0.677  24.282  0.00  0.00    -0.300 N 
ATOM     19  C   UNL     1      -4.732   0.403  24.760  0.00  0.00    +0.300 C 
ATOM     29  H   UNL     1      -2.915   1.175  25.418  0.00  0.00    +0.150 HD
ATOM     30  H   UNL     1      -2.990  -0.683  24.424  0.00  0.00    +0.150 HD
BRANCH   6  22
ATOM     22  C   UNL     1      -4.600  -1.799  23.604  0.00  0.00    +0.102 C 
ATOM     27  C   UNL     1      -4.027  -3.115  24.088  0.00  0.00    +0.024 C 
ENDBRANCH   6  22
ENDBRANCH  14   3
ENDBRANCH   9  14
TORSDOF 5
ENDMDL
MODEL 3
REMARK VINA RESULT:      -0.2      2.144      5.919
REMARK  Name = 26742380
REMARK  7 active torsions:
REMARK  status: ('A' for Active; 'I' for Inactive)
REMARK    1  A    between atoms: N_3  and  C_14
REMARK    2  A    between atoms: N_6  and  C_22
REMARK    3  A    between atoms: C_8  and  C_15
REMARK    4  A    between atoms: C_9  and  C_14
REMARK    5  A    between atoms: C_17  and  C_20
REMARK    6  A    between atoms: C_18  and  C_21
REMARK    7  A    between atoms: C_22  and  C_27
REMARK                            x       y       z     vdW  Elec       q    Type
REMARK                         _______ _______ _______ _____ _____    ______ ____
ROOT
ATOM      2  N   UNL     1      -3.820  -1.357  25.832  0.00  0.00    -0.297 NA
ATOM      7  C   UNL     1      -2.514  -1.951  23.658  0.00  0.00    +0.002 C 
ATOM      8  C   UNL     1      -1.555  -1.349  24.721  0.00  0.00    +0.055 C 
ATOM      9  C   UNL     1      -4.518  -0.790  24.648  0.00  0.00    +0.074 C 
ATOM     10  C   UNL     1      -3.657  -0.952  23.377  0.00  0.00    +0.024 C 
ATOM     11  C   UNL     1      -3.153  -3.204  24.293  0.00  0.00    +0.019 C 
ATOM     12  C   UNL     1      -2.432  -0.838  25.900  0.00  0.00    +0.094 C 
ATOM     13  C   UNL     1      -3.755  -2.828  25.659  0.00  0.00    +0.085 C 
ENDROOT
BRANCH   8  15
ATOM      4  N   UNL     1      -1.002   0.935  24.039  0.00  0.00    -0.237 NA
ATOM      5  N   UNL     1       1.240   1.590  23.445  0.00  0.00    -0.232 NA
ATOM     15  C   UNL     1      -0.538  -0.312  24.266  0.00  0.00    +0.050 A 
ATOM     16  C   UNL     1       0.783  -0.680  24.107  0.00  0.00    +0.052 A 
ATOM     17  C   UNL     1       1.636   0.323  23.690  0.00  0.00    +0.075 A 
ATOM     18  C   UNL     1      -0.072   1.823  23.636  0.00  0.00    +0.127 A 
ATOM     21  C   UNL     1      -0.548   3.211  23.374  0.00  0.00    +0.088 C 
BRANCH  17  20
ATOM     20  C   UNL     1       3.042   0.068  23.485  0.00  0.00    +0.000 A 
ATOM     23  C   UNL     1       3.590  -1.158  23.861  0.00  0.00    +0.010 A 
ATOM     24  C   UNL     1       3.851   1.048  22.911  0.00  0.00    +0.010 A 
ATOM     25  C   UNL     1       4.949  -1.404  23.662  0.00  0.00    +0.001 A 
ATOM     26  C   UNL     1       5.210   0.802  22.714  0.00  0.00    +0.001 A 
ATOM     28  C   UNL     1       5.759  -0.425  23.089  0.00  0.00    +0.000 A 
ENDBRANCH  17  20
ENDBRANCH   8  15
BRANCH   9  14
ATOM     14  C   UNL     1      -4.948   0.662  24.865  0.00  0.00    +0.124 C 
BRANCH  14   3
ATOM      1  O   UNL     1      -4.950   3.432  25.672  0.00  0.00    -0.253 OA
ATOM      3  N   UNL     1      -3.809   1.511  25.037  0.00  0.00    -0.298 N 
ATOM      6  N   UNL     1      -2.634   3.442  25.521  0.00  0.00    -0.300 N 
ATOM     19  C   UNL     1      -3.892   2.851  25.433  0.00  0.00    +0.300 C 
ATOM     29  H   UNL     1      -2.888   1.121  24.857  0.00  0.00    +0.150 HD
ATOM     30  H   UNL     1      -1.817   2.885  25.292  0.00  0.00    +0.150 HD
BRANCH   6  22
ATOM     22  C   UNL     1      -2.442   4.819  25.909  0.00  0.00    +0.102 C 
ATOM     27  C   UNL     1      -1.366   5.485  25.077  0.00  0.00    +0.024 C 
ENDBRANCH   6  22
ENDBRANCH  14   3
ENDBRANCH   9  14
TORSDOF 5
ENDMDL
MODEL 4
REMARK VINA RESULT:       0.1      2.179      5.797
REMARK  Name = 26742380
REMARK  7 active torsions:
REMARK  status: ('A' for Active; 'I' for Inactive)
REMARK    1  A    between atoms: N_3  and  C_14
REMARK    2  A    between atoms: N_6  and  C_22
REMARK    3  A    between atoms: C_8  and  C_15
REMARK    4  A    between atoms: C_9  and  C_14
REMARK    5  A    between atoms: C_17  and  C_20
REMARK    6  A    between atoms: C_18  and  C_21
REMARK    7  A    between atoms: C_22  and  C_27
REMARK                            x       y       z     vdW  Elec       q    Type
REMARK                         _______ _______ _______ _____ _____    ______ ____
ROOT
ATOM      2  N   UNL     1      -5.101   2.995  24.066  0.00  0.00    -0.297 NA
ATOM      7  C   UNL     1      -3.787   3.914  26.118  0.00  0.00    +0.002 C 
ATOM      8  C   UNL     1      -2.829   3.681  24.918  0.00  0.00    +0.055 C 
ATOM      9  C   UNL     1      -5.432   2.200  25.279  0.00  0.00    +0.074 C 
ATOM     10  C   UNL     1      -4.513   2.594  26.455  0.00  0.00    +0.024 C 
ATOM     11  C   UNL     1      -4.863   4.914  25.642  0.00  0.00    +0.019 C 
ATOM     12  C   UNL     1      -3.641   2.950  23.811  0.00  0.00    +0.094 C 
ATOM     13  C   UNL     1      -5.482   4.404  24.329  0.00  0.00    +0.085 C 
ENDROOT
BRANCH   8  15
ATOM      4  N   UNL     1      -1.008   3.104  26.446  0.00  0.00    -0.237 NA
ATOM      5  N   UNL     1       0.914   1.836  25.732  0.00  0.00    -0.232 NA
ATOM     15  C   UNL     1      -1.488   3.013  25.188  0.00  0.00    +0.050 A 
ATOM     16  C   UNL     1      -0.836   2.359  24.162  0.00  0.00    +0.052 A 
ATOM     17  C   UNL     1       0.374   1.783  24.495  0.00  0.00    +0.075 A 
ATOM     18  C   UNL     1       0.181   2.501  26.644  0.00  0.00    +0.127 A 
ATOM     21  C   UNL     1       0.745   2.582  28.022  0.00  0.00    +0.088 C 
BRANCH  17  20
ATOM     20  C   UNL     1       1.157   1.072  23.513  0.00  0.00    +0.000 A 
ATOM     23  C   UNL     1       2.527   1.315  23.405  0.00  0.00    +0.010 A 
ATOM     24  C   UNL     1       0.544   0.144  22.673  0.00  0.00    +0.010 A 
ATOM     25  C   UNL     1       3.283   0.627  22.456  0.00  0.00    +0.001 A 
ATOM     26  C   UNL     1       1.301  -0.542  21.723  0.00  0.00    +0.001 A 
ATOM     28  C   UNL     1       2.671  -0.301  21.615  0.00  0.00    +0.000 A 
ENDBRANCH  17  20
ENDBRANCH   8  15
BRANCH   9  14
ATOM     14  C   UNL     1      -5.406   0.694  25.013  0.00  0.00    +0.124 C 
BRANCH  14   3
ATOM      1  O   UNL     1      -3.997  -1.424  23.652  0.00  0.00    -0.253 OA
ATOM      3  N   UNL     1      -4.138   0.135  25.369  0.00  0.00    -0.298 N 
ATOM      6  N   UNL     1      -2.293  -1.250  25.219  0.00  0.00    -0.300 N 
ATOM     19  C   UNL     1      -3.517  -0.897  24.655  0.00  0.00    +0.300 C 
ATOM     29  H   UNL     1      -3.664   0.502  26.189  0.00  0.00    +0.150 HD
ATOM     30  H   UNL     1      -1.984  -0.765  26.055  0.00  0.00    +0.150 HD
BRANCH   6  22
ATOM     22  C   UNL     1      -1.451  -2.287  24.673  0.00  0.00    +0.102 C 
ATOM     27  C   UNL     1      -0.039  -2.198  25.214  0.00  0.00    +0.024 C 
ENDBRANCH   6  22
ENDBRANCH  14   3
ENDBRANCH   9  14
TORSDOF 5
ENDMDL
MODEL 5
REMARK VINA RESULT:       0.4      2.112      5.397
REMARK  Name = 26742380
REMARK  7 active torsions:
REMARK  status: ('A' for Active; 'I' for Inactive)
REMARK    1  A    between atoms: N_3  and  C_14
REMARK    2  A    between atoms: N_6  and  C_22
REMARK    3  A    between atoms: C_8  and  C_15
REMARK    4  A    between atoms: C_9  and  C_14
REMARK    5  A    between atoms: C_17  and  C_20
REMARK    6  A    between atoms: C_18  and  C_21
REMARK    7  A    between atoms: C_22  and  C_27
REMARK                            x       y       z     vdW  Elec       q    Type
REMARK                         _______ _______ _______ _____ _____    ______ ____
ROOT
ATOM      2  N   UNL     1      -3.430  -2.210  25.842  0.00  0.00    -0.297 NA
ATOM      7  C   UNL     1      -2.327  -2.139  23.484  0.00  0.00    +0.002 C 
ATOM      8  C   UNL     1      -1.331  -1.638  24.566  0.00  0.00    +0.055 C 
ATOM      9  C   UNL     1      -4.328  -1.517  24.881  0.00  0.00    +0.074 C 
ATOM     10  C   UNL     1      -3.609  -1.281  23.536  0.00  0.00    +0.024 C 
ATOM     11  C   UNL     1      -2.727  -3.577  23.877  0.00  0.00    +0.019 C 
ATOM     12  C   UNL     1      -2.119  -1.519  25.902  0.00  0.00    +0.094 C 
ATOM     13  C   UNL     1      -3.205  -3.587  25.340  0.00  0.00    +0.085 C 
ENDROOT
BRANCH   8  15
ATOM      4  N   UNL     1       0.690  -0.582  23.680  0.00  0.00    -0.237 NA
ATOM      5  N   UNL     1       1.008   1.807  23.708  0.00  0.00    -0.232 NA
ATOM     15  C   UNL     1      -0.510  -0.392  24.267  0.00  0.00    +0.050 A 
ATOM     16  C   UNL     1      -1.013   0.849  24.601  0.00  0.00    +0.052 A 
ATOM     17  C   UNL     1      -0.202   1.924  24.295  0.00  0.00    +0.075 A 
ATOM     18  C   UNL     1       1.386   0.544  23.432  0.00  0.00    +0.127 A 
ATOM     21  C   UNL     1       2.718   0.373  22.785  0.00  0.00    +0.088 C 
BRANCH  17  20
ATOM     20  C   UNL     1      -0.611   3.275  24.594  0.00  0.00    +0.000 A 
ATOM     23  C   UNL     1      -1.508   3.518  25.634  0.00  0.00    +0.010 A 
ATOM     24  C   UNL     1      -0.109   4.337  23.842  0.00  0.00    +0.010 A 
ATOM     25  C   UNL     1      -1.904   4.824  25.923  0.00  0.00    +0.001 A 
ATOM     26  C   UNL     1      -0.505   5.644  24.132  0.00  0.00    +0.001 A 
ATOM     28  C   UNL     1      -1.402   5.887  25.172  0.00  0.00    +0.000 A 
ENDBRANCH  17  20
ENDBRANCH   8  15
BRANCH   9  14
ATOM     14  C   UNL     1      -4.905  -0.221  25.455  0.00  0.00    +0.124 C 
BRANCH  14   3
ATOM      1  O   UNL     1      -5.430   2.562  26.003  0.00  0.00    -0.253 OA
ATOM      3  N   UNL     1      -4.556   0.899  24.636  0.00  0.00    -0.298 N 
ATOM      6  N   UNL     1      -4.397   3.116  24.000  0.00  0.00    -0.300 N 
ATOM     19  C   UNL     1      -4.847   2.227  24.973  0.00  0.00    +0.300 C 
ATOM     29  H   UNL     1      -4.075   0.723  23.759  0.00  0.00    +0.150 HD
ATOM     30  H   UNL     1      -3.935   2.745  23.176  0.00  0.00    +0.150 HD
BRANCH   6  22
ATOM     22  C   UNL     1      -4.572   4.545  24.105  0.00  0.00    +0.102 C 
ATOM     27  C   UNL     1      -5.518   4.907  25.232  0.00  0.00    +0.024 C 
ENDBRANCH   6  22
ENDBRANCH  14   3
ENDBRANCH   9  14
TORSDOF 5
ENDMDL
