MODEL 1
REMARK VINA RESULT:       1.4      0.000      0.000
REMARK  Name = 26743464
REMARK  13 active torsions:
REMARK  status: ('A' for Active; 'I' for Inactive)
REMARK    1  A    between atoms: S_1  and  C_23
REMARK    2  A    between atoms: S_1  and  C_27
REMARK    3  A    between atoms: O_3  and  C_15
REMARK    4  A    between atoms: O_5  and  C_20
REMARK    5  A    between atoms: O_5  and  C_28
REMARK    6  A    between atoms: O_6  and  C_24
REMARK    7  A    between atoms: O_6  and  C_31
REMARK    8  A    between atoms: O_7  and  C_26
REMARK    9  A    between atoms: O_7  and  C_32
REMARK   10  A    between atoms: N_10  and  C_17
REMARK   11  A    between atoms: C_13  and  C_18
REMARK   12  A    between atoms: C_17  and  C_19
REMARK   13  A    between atoms: C_21  and  C_23
REMARK                            x       y       z     vdW  Elec       q    Type
REMARK                         _______ _______ _______ _____ _____    ______ ____
ROOT
ATOM     10  N   UNL     1      -3.984  -0.848  23.916  0.00  0.00    -0.284 NA
ATOM     13  C   UNL     1      -3.102  -0.917  25.099  0.00  0.00    +0.149 C 
ATOM     14  C   UNL     1      -2.801  -2.417  25.280  0.00  0.00    +0.061 C 
ATOM     15  C   UNL     1      -3.594  -3.113  24.181  0.00  0.00    +0.130 C 
ATOM     16  C   UNL     1      -4.697  -2.124  23.856  0.00  0.00    +0.116 C 
ENDROOT
BRANCH  13  18
ATOM      4  O   UNL     1      -1.586   0.812  25.930  0.00  0.00    -0.336 OA
ATOM     11  N   UNL     1      -0.963  -0.091  23.977  0.00  0.00    -0.193 NA
ATOM     12  N   UNL     1      -0.397   1.455  25.566  0.00  0.00    -0.060 NA
ATOM     18  C   UNL     1      -1.848  -0.083  24.941  0.00  0.00    +0.245 A 
ATOM     21  C   UNL     1      -0.092   0.868  24.404  0.00  0.00    +0.193 A 
BRANCH  21  23
ATOM     23  C   UNL     1       1.104   1.236  23.639  0.00  0.00    +0.251 C 
BRANCH  23   1
ATOM      1  S   UNL     1       1.714  -0.207  22.812  0.00  0.00    +0.004 S 
ATOM      8  O   UNL     1       1.574   0.014  21.385  0.00  0.00    -0.169 OA
ATOM      9  O   UNL     1       1.130  -1.379  23.437  0.00  0.00    -0.169 OA
BRANCH   1  27
ATOM      2  F   UNL     1       7.469  -0.253  24.094  0.00  0.00    -0.205 F 
ATOM     27  C   UNL     1       3.438  -0.220  23.198  0.00  0.00    +0.089 A 
ATOM     29  C   UNL     1       4.216   0.914  22.960  0.00  0.00    +0.030 A 
ATOM     30  C   UNL     1       4.024  -1.365  23.738  0.00  0.00    +0.030 A 
ATOM     33  C   UNL     1       5.577   0.903  23.262  0.00  0.00    +0.040 A 
ATOM     34  C   UNL     1       5.385  -1.376  24.041  0.00  0.00    +0.040 A 
ATOM     35  C   UNL     1       6.161  -0.243  23.804  0.00  0.00    +0.124 A 
ENDBRANCH   1  27
ENDBRANCH  23   1
ENDBRANCH  21  23
ENDBRANCH  13  18
BRANCH  15   3
ATOM      3  O   UNL     1      -4.113  -4.346  24.640  0.00  0.00    -0.390 OA
ATOM     36  H   UNL     1      -3.570  -5.054  24.254  0.00  0.00    +0.210 HD
ENDBRANCH  15   3
BRANCH  10  17
ATOM     17  C   UNL     1      -4.895   0.289  23.943  0.00  0.00    +0.124 C 
BRANCH  17  19
ATOM     19  C   UNL     1      -4.159   1.592  24.102  0.00  0.00    +0.012 A 
ATOM     20  C   UNL     1      -4.361   2.394  25.226  0.00  0.00    +0.170 A 
ATOM     22  C   UNL     1      -3.266   1.996  23.109  0.00  0.00    +0.012 A 
ATOM     24  C   UNL     1      -3.670   3.599  25.356  0.00  0.00    +0.204 A 
ATOM     25  C   UNL     1      -2.575   3.201  23.240  0.00  0.00    +0.050 A 
ATOM     26  C   UNL     1      -2.778   4.002  24.363  0.00  0.00    +0.165 A 
BRANCH  20   5
ATOM      5  O   UNL     1      -5.233   2.003  26.198  0.00  0.00    -0.491 OA
ATOM     28  C   UNL     1      -6.614   2.286  25.980  0.00  0.00    +0.277 C 
ENDBRANCH  20   5
BRANCH  24   6
ATOM      6  O   UNL     1      -3.867   4.384  26.454  0.00  0.00    -0.488 OA
ATOM     31  C   UNL     1      -3.014   4.156  27.573  0.00  0.00    +0.277 C 
ENDBRANCH  24   6
BRANCH  26   7
ATOM      7  O   UNL     1      -2.096   5.176  24.479  0.00  0.00    -0.491 OA
ATOM     32  C   UNL     1      -0.702   5.090  24.770  0.00  0.00    +0.277 C 
ENDBRANCH  26   7
ENDBRANCH  17  19
ENDBRANCH  10  17
TORSDOF 10
ENDMDL
MODEL 2
REMARK VINA RESULT:       2.3      1.158      2.118
REMARK  Name = 26743464
REMARK  13 active torsions:
REMARK  status: ('A' for Active; 'I' for Inactive)
REMARK    1  A    between atoms: S_1  and  C_23
REMARK    2  A    between atoms: S_1  and  C_27
REMARK    3  A    between atoms: O_3  and  C_15
REMARK    4  A    between atoms: O_5  and  C_20
REMARK    5  A    between atoms: O_5  and  C_28
REMARK    6  A    between atoms: O_6  and  C_24
REMARK    7  A    between atoms: O_6  and  C_31
REMARK    8  A    between atoms: O_7  and  C_26
REMARK    9  A    between atoms: O_7  and  C_32
REMARK   10  A    between atoms: N_10  and  C_17
REMARK   11  A    between atoms: C_13  and  C_18
REMARK   12  A    between atoms: C_17  and  C_19
REMARK   13  A    between atoms: C_21  and  C_23
REMARK                            x       y       z     vdW  Elec       q    Type
REMARK                         _______ _______ _______ _____ _____    ______ ____
ROOT
ATOM     10  N   UNL     1      -3.242  -1.080  23.974  0.00  0.00    -0.284 NA
ATOM     13  C   UNL     1      -2.677  -0.468  25.194  0.00  0.00    +0.149 C 
ATOM     14  C   UNL     1      -2.446  -1.648  26.157  0.00  0.00    +0.061 C 
ATOM     15  C   UNL     1      -2.954  -2.874  25.407  0.00  0.00    +0.130 C 
ATOM     16  C   UNL     1      -3.933  -2.296  24.403  0.00  0.00    +0.116 C 
ENDROOT
BRANCH  13  18
ATOM      4  O   UNL     1      -1.116   1.314  25.797  0.00  0.00    -0.336 OA
ATOM     11  N   UNL     1      -0.548   0.187  23.946  0.00  0.00    -0.193 NA
ATOM     12  N   UNL     1       0.076   1.890  25.340  0.00  0.00    -0.060 NA
ATOM     18  C   UNL     1      -1.413   0.319  24.920  0.00  0.00    +0.245 A 
ATOM     21  C   UNL     1       0.347   1.172  24.246  0.00  0.00    +0.193 A 
BRANCH  21  23
ATOM     23  C   UNL     1       1.533   1.429  23.422  0.00  0.00    +0.251 C 
BRANCH  23   1
ATOM      1  S   UNL     1       2.070  -0.100  22.708  0.00  0.00    +0.004 S 
ATOM      8  O   UNL     1       2.032   0.052  21.266  0.00  0.00    -0.169 OA
ATOM      9  O   UNL     1       1.357  -1.187  23.352  0.00  0.00    -0.169 OA
BRANCH   1  27
ATOM      2  F   UNL     1       7.717  -0.528  24.348  0.00  0.00    -0.205 F 
ATOM     27  C   UNL     1       3.762  -0.228  23.201  0.00  0.00    +0.089 A 
ATOM     29  C   UNL     1       4.612   0.871  23.069  0.00  0.00    +0.030 A 
ATOM     30  C   UNL     1       4.249  -1.427  23.720  0.00  0.00    +0.030 A 
ATOM     33  C   UNL     1       5.948   0.769  23.456  0.00  0.00    +0.040 A 
ATOM     34  C   UNL     1       5.584  -1.528  24.107  0.00  0.00    +0.040 A 
ATOM     35  C   UNL     1       6.434  -0.430  23.976  0.00  0.00    +0.124 A 
ENDBRANCH   1  27
ENDBRANCH  23   1
ENDBRANCH  21  23
ENDBRANCH  13  18
BRANCH  15   3
ATOM      3  O   UNL     1      -3.583  -3.779  26.293  0.00  0.00    -0.390 OA
ATOM     36  H   UNL     1      -4.301  -3.300  26.739  0.00  0.00    +0.210 HD
ENDBRANCH  15   3
BRANCH  10  17
ATOM     17  C   UNL     1      -4.119  -0.182  23.234  0.00  0.00    +0.124 C 
BRANCH  17  19
ATOM     19  C   UNL     1      -4.421   1.072  24.010  0.00  0.00    +0.012 A 
ATOM     20  C   UNL     1      -3.647   2.220  23.841  0.00  0.00    +0.170 A 
ATOM     22  C   UNL     1      -5.490   1.077  24.907  0.00  0.00    +0.012 A 
ATOM     24  C   UNL     1      -3.942   3.373  24.568  0.00  0.00    +0.204 A 
ATOM     25  C   UNL     1      -5.784   2.230  25.634  0.00  0.00    +0.050 A 
ATOM     26  C   UNL     1      -5.010   3.378  25.465  0.00  0.00    +0.165 A 
BRANCH  20   5
ATOM      5  O   UNL     1      -2.602   2.218  22.965  0.00  0.00    -0.491 OA
ATOM     28  C   UNL     1      -2.918   2.369  21.582  0.00  0.00    +0.277 C 
ENDBRANCH  20   5
BRANCH  24   6
ATOM      6  O   UNL     1      -3.186   4.496  24.404  0.00  0.00    -0.488 OA
ATOM     31  C   UNL     1      -2.074   4.662  25.281  0.00  0.00    +0.277 C 
ENDBRANCH  24   6
BRANCH  26   7
ATOM      7  O   UNL     1      -5.309   4.498  26.181  0.00  0.00    -0.491 OA
ATOM     32  C   UNL     1      -6.295   5.372  25.635  0.00  0.00    +0.277 C 
ENDBRANCH  26   7
ENDBRANCH  17  19
ENDBRANCH  10  17
TORSDOF 10
ENDMDL
MODEL 3
REMARK VINA RESULT:       2.4      1.668      4.707
REMARK  Name = 26743464
REMARK  13 active torsions:
REMARK  status: ('A' for Active; 'I' for Inactive)
REMARK    1  A    between atoms: S_1  and  C_23
REMARK    2  A    between atoms: S_1  and  C_27
REMARK    3  A    between atoms: O_3  and  C_15
REMARK    4  A    between atoms: O_5  and  C_20
REMARK    5  A    between atoms: O_5  and  C_28
REMARK    6  A    between atoms: O_6  and  C_24
REMARK    7  A    between atoms: O_6  and  C_31
REMARK    8  A    between atoms: O_7  and  C_26
REMARK    9  A    between atoms: O_7  and  C_32
REMARK   10  A    between atoms: N_10  and  C_17
REMARK   11  A    between atoms: C_13  and  C_18
REMARK   12  A    between atoms: C_17  and  C_19
REMARK   13  A    between atoms: C_21  and  C_23
REMARK                            x       y       z     vdW  Elec       q    Type
REMARK                         _______ _______ _______ _____ _____    ______ ____
ROOT
ATOM     10  N   UNL     1      -4.663   1.709  25.282  0.00  0.00    -0.284 NA
ATOM     13  C   UNL     1      -3.978   2.583  24.308  0.00  0.00    +0.149 C 
ATOM     14  C   UNL     1      -4.415   4.011  24.685  0.00  0.00    +0.061 C 
ATOM     15  C   UNL     1      -5.379   3.833  25.851  0.00  0.00    +0.130 C 
ATOM     16  C   UNL     1      -5.880   2.411  25.685  0.00  0.00    +0.116 C 
ENDROOT
BRANCH  13  18
ATOM      4  O   UNL     1      -1.873   2.440  25.542  0.00  0.00    -0.336 OA
ATOM     11  N   UNL     1      -1.649   2.231  23.323  0.00  0.00    -0.193 NA
ATOM     12  N   UNL     1      -0.504   2.263  25.304  0.00  0.00    -0.060 NA
ATOM     18  C   UNL     1      -2.474   2.408  24.323  0.00  0.00    +0.245 A 
ATOM     21  C   UNL     1      -0.452   2.147  23.974  0.00  0.00    +0.193 A 
BRANCH  21  23
ATOM     23  C   UNL     1       0.813   1.943  23.260  0.00  0.00    +0.251 C 
BRANCH  23   1
ATOM      1  S   UNL     1       1.061   0.205  23.030  0.00  0.00    +0.004 S 
ATOM      8  O   UNL     1       0.706  -0.111  21.659  0.00  0.00    -0.169 OA
ATOM      9  O   UNL     1       0.437  -0.501  24.133  0.00  0.00    -0.169 OA
BRANCH   1  27
ATOM      2  F   UNL     1       6.887  -0.488  23.607  0.00  0.00    -0.205 F 
ATOM     27  C   UNL     1       2.807  -0.002  23.204  0.00  0.00    +0.089 A 
ATOM     29  C   UNL     1       3.668   1.055  22.910  0.00  0.00    +0.030 A 
ATOM     30  C   UNL     1       3.325  -1.224  23.634  0.00  0.00    +0.030 A 
ATOM     33  C   UNL     1       5.046   0.891  23.046  0.00  0.00    +0.040 A 
ATOM     34  C   UNL     1       4.703  -1.387  23.770  0.00  0.00    +0.040 A 
ATOM     35  C   UNL     1       5.564  -0.330  23.477  0.00  0.00    +0.124 A 
ENDBRANCH   1  27
ENDBRANCH  23   1
ENDBRANCH  21  23
ENDBRANCH  13  18
BRANCH  15   3
ATOM      3  O   UNL     1      -6.433   4.773  25.779  0.00  0.00    -0.390 OA
ATOM     36  H   UNL     1      -6.332   5.385  26.528  0.00  0.00    +0.210 HD
ENDBRANCH  15   3
BRANCH  10  17
ATOM     17  C   UNL     1      -4.944   0.377  24.760  0.00  0.00    +0.124 C 
BRANCH  17  19
ATOM     19  C   UNL     1      -3.806  -0.575  25.011  0.00  0.00    +0.012 A 
ATOM     20  C   UNL     1      -3.638  -1.712  24.219  0.00  0.00    +0.170 A 
ATOM     22  C   UNL     1      -2.912  -0.310  26.048  0.00  0.00    +0.012 A 
ATOM     24  C   UNL     1      -2.577  -2.583  24.466  0.00  0.00    +0.204 A 
ATOM     25  C   UNL     1      -1.851  -1.182  26.295  0.00  0.00    +0.050 A 
ATOM     26  C   UNL     1      -1.684  -2.318  25.503  0.00  0.00    +0.165 A 
BRANCH  20   5
ATOM      5  O   UNL     1      -4.510  -1.974  23.204  0.00  0.00    -0.491 OA
ATOM     28  C   UNL     1      -5.209  -3.216  23.257  0.00  0.00    +0.277 C 
ENDBRANCH  20   5
BRANCH  24   6
ATOM      6  O   UNL     1      -2.413  -3.695  23.693  0.00  0.00    -0.488 OA
ATOM     31  C   UNL     1      -1.298  -3.705  22.805  0.00  0.00    +0.277 C 
ENDBRANCH  24   6
BRANCH  26   7
ATOM      7  O   UNL     1      -0.643  -3.160  25.754  0.00  0.00    -0.491 OA
ATOM     32  C   UNL     1       0.671  -2.622  25.627  0.00  0.00    +0.277 C 
ENDBRANCH  26   7
ENDBRANCH  17  19
ENDBRANCH  10  17
TORSDOF 10
ENDMDL
MODEL 4
REMARK VINA RESULT:       2.8      2.882      6.436
REMARK  Name = 26743464
REMARK  13 active torsions:
REMARK  status: ('A' for Active; 'I' for Inactive)
REMARK    1  A    between atoms: S_1  and  C_23
REMARK    2  A    between atoms: S_1  and  C_27
REMARK    3  A    between atoms: O_3  and  C_15
REMARK    4  A    between atoms: O_5  and  C_20
REMARK    5  A    between atoms: O_5  and  C_28
REMARK    6  A    between atoms: O_6  and  C_24
REMARK    7  A    between atoms: O_6  and  C_31
REMARK    8  A    between atoms: O_7  and  C_26
REMARK    9  A    between atoms: O_7  and  C_32
REMARK   10  A    between atoms: N_10  and  C_17
REMARK   11  A    between atoms: C_13  and  C_18
REMARK   12  A    between atoms: C_17  and  C_19
REMARK   13  A    between atoms: C_21  and  C_23
REMARK                            x       y       z     vdW  Elec       q    Type
REMARK                         _______ _______ _______ _____ _____    ______ ____
ROOT
ATOM     10  N   UNL     1      -2.916  -1.448  25.549  0.00  0.00    -0.284 NA
ATOM     13  C   UNL     1      -3.091  -1.031  24.143  0.00  0.00    +0.149 C 
ATOM     14  C   UNL     1      -3.877  -2.182  23.486  0.00  0.00    +0.061 C 
ATOM     15  C   UNL     1      -4.056  -3.217  24.590  0.00  0.00    +0.130 C 
ATOM     16  C   UNL     1      -2.925  -2.910  25.553  0.00  0.00    +0.116 C 
ENDROOT
BRANCH  13  18
ATOM      4  O   UNL     1      -3.170   1.245  23.254  0.00  0.00    -0.336 OA
ATOM     11  N   UNL     1      -4.925   0.701  24.535  0.00  0.00    -0.193 NA
ATOM     12  N   UNL     1      -3.995   2.377  23.286  0.00  0.00    -0.060 NA
ATOM     18  C   UNL     1      -3.792   0.305  24.014  0.00  0.00    +0.245 A 
ATOM     21  C   UNL     1      -5.008   1.978  24.061  0.00  0.00    +0.193 A 
BRANCH  21  23
ATOM     23  C   UNL     1      -6.136   2.859  24.380  0.00  0.00    +0.251 C 
BRANCH  23   1
ATOM      1  S   UNL     1      -5.742   3.780  25.841  0.00  0.00    +0.004 S 
ATOM      8  O   UNL     1      -5.707   2.846  26.951  0.00  0.00    -0.169 OA
ATOM      9  O   UNL     1      -6.594   4.952  25.891  0.00  0.00    -0.169 OA
BRANCH   1  27
ATOM      2  F   UNL     1      -0.245   5.682  24.880  0.00  0.00    -0.205 F 
ATOM     27  C   UNL     1      -4.094   4.348  25.552  0.00  0.00    +0.089 A 
ATOM     29  C   UNL     1      -3.072   4.004  26.436  0.00  0.00    +0.030 A 
ATOM     30  C   UNL     1      -3.816   5.145  24.441  0.00  0.00    +0.030 A 
ATOM     33  C   UNL     1      -1.772   4.454  26.210  0.00  0.00    +0.040 A 
ATOM     34  C   UNL     1      -2.516   5.595  24.215  0.00  0.00    +0.040 A 
ATOM     35  C   UNL     1      -1.494   5.250  25.098  0.00  0.00    +0.124 A 
ENDBRANCH   1  27
ENDBRANCH  23   1
ENDBRANCH  21  23
ENDBRANCH  13  18
BRANCH  15   3
ATOM      3  O   UNL     1      -3.960  -4.528  24.068  0.00  0.00    -0.390 OA
ATOM     36  H   UNL     1      -3.368  -5.033  24.651  0.00  0.00    +0.210 HD
ENDBRANCH  15   3
BRANCH  10  17
ATOM     17  C   UNL     1      -1.711  -0.905  26.164  0.00  0.00    +0.124 C 
BRANCH  17  19
ATOM     19  C   UNL     1      -0.677  -0.532  25.135  0.00  0.00    +0.012 A 
ATOM     20  C   UNL     1      -0.223   0.782  25.023  0.00  0.00    +0.170 A 
ATOM     22  C   UNL     1      -0.171  -1.520  24.289  0.00  0.00    +0.012 A 
ATOM     24  C   UNL     1       0.736   1.109  24.064  0.00  0.00    +0.204 A 
ATOM     25  C   UNL     1       0.788  -1.193  23.330  0.00  0.00    +0.050 A 
ATOM     26  C   UNL     1       1.241   0.122  23.218  0.00  0.00    +0.165 A 
BRANCH  20   5
ATOM      5  O   UNL     1      -0.714   1.749  25.848  0.00  0.00    -0.491 OA
ATOM     28  C   UNL     1       0.156   2.230  26.871  0.00  0.00    +0.277 C 
ENDBRANCH  20   5
BRANCH  24   6
ATOM      6  O   UNL     1       1.181   2.393  23.952  0.00  0.00    -0.488 OA
ATOM     31  C   UNL     1       0.280   3.343  23.388  0.00  0.00    +0.277 C 
ENDBRANCH  24   6
BRANCH  26   7
ATOM      7  O   UNL     1       2.179   0.427  22.278  0.00  0.00    -0.491 OA
ATOM     32  C   UNL     1       3.535   0.497  22.714  0.00  0.00    +0.277 C 
ENDBRANCH  26   7
ENDBRANCH  17  19
ENDBRANCH  10  17
TORSDOF 10
ENDMDL
MODEL 5
REMARK VINA RESULT:       4.0      2.923      6.323
REMARK  Name = 26743464
REMARK  13 active torsions:
REMARK  status: ('A' for Active; 'I' for Inactive)
REMARK    1  A    between atoms: S_1  and  C_23
REMARK    2  A    between atoms: S_1  and  C_27
REMARK    3  A    between atoms: O_3  and  C_15
REMARK    4  A    between atoms: O_5  and  C_20
REMARK    5  A    between atoms: O_5  and  C_28
REMARK    6  A    between atoms: O_6  and  C_24
REMARK    7  A    between atoms: O_6  and  C_31
REMARK    8  A    between atoms: O_7  and  C_26
REMARK    9  A    between atoms: O_7  and  C_32
REMARK   10  A    between atoms: N_10  and  C_17
REMARK   11  A    between atoms: C_13  and  C_18
REMARK   12  A    between atoms: C_17  and  C_19
REMARK   13  A    between atoms: C_21  and  C_23
REMARK                            x       y       z     vdW  Elec       q    Type
REMARK                         _______ _______ _______ _____ _____    ______ ____
ROOT
ATOM     10  N   UNL     1      -3.006  -1.621  25.704  0.00  0.00    -0.284 NA
ATOM     13  C   UNL     1      -3.510  -0.904  24.515  0.00  0.00    +0.149 C 
ATOM     14  C   UNL     1      -4.156  -1.995  23.641  0.00  0.00    +0.061 C 
ATOM     15  C   UNL     1      -3.924  -3.296  24.399  0.00  0.00    +0.130 C 
ATOM     16  C   UNL     1      -2.723  -2.990  25.273  0.00  0.00    +0.116 C 
ENDROOT
BRANCH  13  18
ATOM      4  O   UNL     1      -5.711   0.140  24.310  0.00  0.00    -0.336 OA
ATOM     11  N   UNL     1      -4.296   1.245  25.649  0.00  0.00    -0.193 NA
ATOM     12  N   UNL     1      -6.412   1.259  24.777  0.00  0.00    -0.060 NA
ATOM     18  C   UNL     1      -4.475   0.208  24.871  0.00  0.00    +0.245 A 
ATOM     21  C   UNL     1      -5.511   1.860  25.560  0.00  0.00    +0.193 A 
BRANCH  21  23
ATOM     23  C   UNL     1      -5.812   3.104  26.278  0.00  0.00    +0.251 C 
BRANCH  23   1
ATOM      1  S   UNL     1      -4.737   4.379  25.680  0.00  0.00    +0.004 S 
ATOM      8  O   UNL     1      -3.686   4.563  26.663  0.00  0.00    -0.169 OA
ATOM      9  O   UNL     1      -5.548   5.502  25.250  0.00  0.00    -0.169 OA
BRANCH   1  27
ATOM      2  F   UNL     1      -2.322   2.033  20.840  0.00  0.00    -0.205 F 
ATOM     27  C   UNL     1      -4.013   3.677  24.229  0.00  0.00    +0.089 A 
ATOM     29  C   UNL     1      -4.617   3.865  22.986  0.00  0.00    +0.030 A 
ATOM     30  C   UNL     1      -2.837   2.933  24.326  0.00  0.00    +0.030 A 
ATOM     33  C   UNL     1      -4.046   3.311  21.841  0.00  0.00    +0.040 A 
ATOM     34  C   UNL     1      -2.266   2.378  23.182  0.00  0.00    +0.040 A 
ATOM     35  C   UNL     1      -2.870   2.567  21.939  0.00  0.00    +0.124 A 
ENDBRANCH   1  27
ENDBRANCH  23   1
ENDBRANCH  21  23
ENDBRANCH  13  18
BRANCH  15   3
ATOM      3  O   UNL     1      -3.664  -4.359  23.503  0.00  0.00    -0.390 OA
ATOM     36  H   UNL     1      -4.033  -5.168  23.894  0.00  0.00    +0.210 HD
ENDBRANCH  15   3
BRANCH  10  17
ATOM     17  C   UNL     1      -1.844  -0.984  26.309  0.00  0.00    +0.124 C 
BRANCH  17  19
ATOM     19  C   UNL     1      -0.842  -0.547  25.275  0.00  0.00    +0.012 A 
ATOM     20  C   UNL     1      -0.339   0.754  25.273  0.00  0.00    +0.170 A 
ATOM     22  C   UNL     1      -0.417  -1.460  24.309  0.00  0.00    +0.012 A 
ATOM     24  C   UNL     1       0.589   1.143  24.306  0.00  0.00    +0.204 A 
ATOM     25  C   UNL     1       0.511  -1.072  23.343  0.00  0.00    +0.050 A 
ATOM     26  C   UNL     1       1.013   0.230  23.341  0.00  0.00    +0.165 A 
BRANCH  20   5
ATOM      5  O   UNL     1      -0.752   1.649  26.215  0.00  0.00    -0.491 OA
ATOM     28  C   UNL     1       0.261   2.268  27.006  0.00  0.00    +0.277 C 
ENDBRANCH  20   5
BRANCH  24   6
ATOM      6  O   UNL     1       1.081   2.414  24.303  0.00  0.00    -0.488 OA
ATOM     31  C   UNL     1       0.211   3.444  23.838  0.00  0.00    +0.277 C 
ENDBRANCH  24   6
BRANCH  26   7
ATOM      7  O   UNL     1       1.919   0.595  22.392  0.00  0.00    -0.491 OA
ATOM     32  C   UNL     1       3.298   0.431  22.715  0.00  0.00    +0.277 C 
ENDBRANCH  26   7
ENDBRANCH  17  19
ENDBRANCH  10  17
TORSDOF 10
ENDMDL
MODEL 6
REMARK VINA RESULT:       4.9      3.297      7.393
REMARK  Name = 26743464
REMARK  13 active torsions:
REMARK  status: ('A' for Active; 'I' for Inactive)
REMARK    1  A    between atoms: S_1  and  C_23
REMARK    2  A    between atoms: S_1  and  C_27
REMARK    3  A    between atoms: O_3  and  C_15
REMARK    4  A    between atoms: O_5  and  C_20
REMARK    5  A    between atoms: O_5  and  C_28
REMARK    6  A    between atoms: O_6  and  C_24
REMARK    7  A    between atoms: O_6  and  C_31
REMARK    8  A    between atoms: O_7  and  C_26
REMARK    9  A    between atoms: O_7  and  C_32
REMARK   10  A    between atoms: N_10  and  C_17
REMARK   11  A    between atoms: C_13  and  C_18
REMARK   12  A    between atoms: C_17  and  C_19
REMARK   13  A    between atoms: C_21  and  C_23
REMARK                            x       y       z     vdW  Elec       q    Type
REMARK                         _______ _______ _______ _____ _____    ______ ____
ROOT
ATOM     10  N   UNL     1      -0.530   2.766  24.728  0.00  0.00    -0.284 NA
ATOM     13  C   UNL     1      -0.943   3.985  25.454  0.00  0.00    +0.149 C 
ATOM     14  C   UNL     1      -0.695   5.137  24.463  0.00  0.00    +0.061 C 
ATOM     15  C   UNL     1      -0.100   4.473  23.227  0.00  0.00    +0.130 C 
ATOM     16  C   UNL     1       0.489   3.183  23.765  0.00  0.00    +0.116 C 
ENDROOT
BRANCH  13  18
ATOM      4  O   UNL     1      -2.593   4.183  27.247  0.00  0.00    -0.336 OA
ATOM     11  N   UNL     1      -3.465   3.644  25.256  0.00  0.00    -0.193 NA
ATOM     12  N   UNL     1      -3.974   4.062  27.447  0.00  0.00    -0.060 NA
ATOM     18  C   UNL     1      -2.379   3.921  25.931  0.00  0.00    +0.245 A 
ATOM     21  C   UNL     1      -4.418   3.743  26.227  0.00  0.00    +0.193 A 
BRANCH  21  23
ATOM     23  C   UNL     1      -5.841   3.513  25.954  0.00  0.00    +0.251 C 
BRANCH  23   1
ATOM      1  S   UNL     1      -6.018   1.948  25.144  0.00  0.00    +0.004 S 
ATOM      8  O   UNL     1      -7.306   1.944  24.475  0.00  0.00    -0.169 OA
ATOM      9  O   UNL     1      -5.674   0.899  26.086  0.00  0.00    -0.169 OA
BRANCH   1  27
ATOM      2  F   UNL     1      -1.817   2.004  21.008  0.00  0.00    -0.205 F 
ATOM     27  C   UNL     1      -4.758   1.966  23.906  0.00  0.00    +0.089 A 
ATOM     29  C   UNL     1      -4.526   3.123  23.162  0.00  0.00    +0.030 A 
ATOM     30  C   UNL     1      -3.996   0.821  23.669  0.00  0.00    +0.030 A 
ATOM     33  C   UNL     1      -3.533   3.137  22.184  0.00  0.00    +0.040 A 
ATOM     34  C   UNL     1      -3.003   0.835  22.691  0.00  0.00    +0.040 A 
ATOM     35  C   UNL     1      -2.771   1.992  21.948  0.00  0.00    +0.124 A 
ENDBRANCH   1  27
ENDBRANCH  23   1
ENDBRANCH  21  23
ENDBRANCH  13  18
BRANCH  15   3
ATOM      3  O   UNL     1       0.888   5.298  22.641  0.00  0.00    -0.390 OA
ATOM     36  H   UNL     1       1.167   4.875  21.812  0.00  0.00    +0.210 HD
ENDBRANCH  15   3
BRANCH  10  17
ATOM     17  C   UNL     1      -0.052   1.707  25.609  0.00  0.00    +0.124 C 
BRANCH  17  19
ATOM     19  C   UNL     1      -0.894   0.465  25.498  0.00  0.00    +0.012 A 
ATOM     20  C   UNL     1      -0.452  -0.634  24.760  0.00  0.00    +0.170 A 
ATOM     22  C   UNL     1      -2.130   0.419  26.144  0.00  0.00    +0.012 A 
ATOM     24  C   UNL     1      -1.245  -1.778  24.668  0.00  0.00    +0.204 A 
ATOM     25  C   UNL     1      -2.923  -0.725  26.052  0.00  0.00    +0.050 A 
ATOM     26  C   UNL     1      -2.481  -1.823  25.314  0.00  0.00    +0.165 A 
BRANCH  20   5
ATOM      5  O   UNL     1       0.755  -0.593  24.127  0.00  0.00    -0.491 OA
ATOM     28  C   UNL     1       0.748  -0.248  22.744  0.00  0.00    +0.277 C 
ENDBRANCH  20   5
BRANCH  24   6
ATOM      6  O   UNL     1      -0.815  -2.852  23.947  0.00  0.00    -0.488 OA
ATOM     31  C   UNL     1      -1.774  -3.499  23.115  0.00  0.00    +0.277 C 
ENDBRANCH  24   6
BRANCH  26   7
ATOM      7  O   UNL     1      -3.265  -2.934  25.234  0.00  0.00    -0.491 OA
ATOM     32  C   UNL     1      -4.320  -2.915  24.275  0.00  0.00    +0.277 C 
ENDBRANCH  26   7
ENDBRANCH  17  19
ENDBRANCH  10  17
TORSDOF 10
ENDMDL
MODEL 7
REMARK VINA RESULT:       5.1      2.976      6.568
REMARK  Name = 26743464
REMARK  13 active torsions:
REMARK  status: ('A' for Active; 'I' for Inactive)
REMARK    1  A    between atoms: S_1  and  C_23
REMARK    2  A    between atoms: S_1  and  C_27
REMARK    3  A    between atoms: O_3  and  C_15
REMARK    4  A    between atoms: O_5  and  C_20
REMARK    5  A    between atoms: O_5  and  C_28
REMARK    6  A    between atoms: O_6  and  C_24
REMARK    7  A    between atoms: O_6  and  C_31
REMARK    8  A    between atoms: O_7  and  C_26
REMARK    9  A    between atoms: O_7  and  C_32
REMARK   10  A    between atoms: N_10  and  C_17
REMARK   11  A    between atoms: C_13  and  C_18
REMARK   12  A    between atoms: C_17  and  C_19
REMARK   13  A    between atoms: C_21  and  C_23
REMARK                            x       y       z     vdW  Elec       q    Type
REMARK                         _______ _______ _______ _____ _____    ______ ____
ROOT
ATOM     10  N   UNL     1       2.309   1.129  23.556  0.00  0.00    -0.284 NA
ATOM     13  C   UNL     1       1.972  -0.148  22.894  0.00  0.00    +0.149 C 
ATOM     14  C   UNL     1       3.295  -0.936  22.861  0.00  0.00    +0.061 C 
ATOM     15  C   UNL     1       4.326  -0.003  23.484  0.00  0.00    +0.130 C 
ATOM     16  C   UNL     1       3.725   1.375  23.284  0.00  0.00    +0.116 C 
ENDROOT
BRANCH  13  18
ATOM      4  O   UNL     1       1.228  -1.648  24.676  0.00  0.00    -0.336 OA
ATOM     11  N   UNL     1      -0.417  -0.934  23.333  0.00  0.00    -0.193 NA
ATOM     12  N   UNL     1       0.051  -2.237  25.154  0.00  0.00    -0.060 NA
ATOM     18  C   UNL     1       0.863  -0.897  23.603  0.00  0.00    +0.245 A 
ATOM     21  C   UNL     1      -0.874  -1.769  24.311  0.00  0.00    +0.193 A 
BRANCH  21  23
ATOM     23  C   UNL     1      -2.290  -2.131  24.432  0.00  0.00    +0.251 C 
BRANCH  23   1
ATOM      1  S   UNL     1      -3.047  -1.071  25.632  0.00  0.00    +0.004 S 
ATOM      8  O   UNL     1      -2.029  -0.708  26.600  0.00  0.00    -0.169 OA
ATOM      9  O   UNL     1      -4.291  -1.678  26.065  0.00  0.00    -0.169 OA
BRANCH   1  27
ATOM      2  F   UNL     1      -4.454   3.766  22.569  0.00  0.00    -0.205 F 
ATOM     27  C   UNL     1      -3.469   0.378  24.713  0.00  0.00    +0.089 A 
ATOM     29  C   UNL     1      -2.701   0.754  23.610  0.00  0.00    +0.030 A 
ATOM     30  C   UNL     1      -4.569   1.147  25.091  0.00  0.00    +0.030 A 
ATOM     33  C   UNL     1      -3.033   1.898  22.886  0.00  0.00    +0.040 A 
ATOM     34  C   UNL     1      -4.901   2.292  24.367  0.00  0.00    +0.040 A 
ATOM     35  C   UNL     1      -4.134   2.667  23.264  0.00  0.00    +0.124 A 
ENDBRANCH   1  27
ENDBRANCH  23   1
ENDBRANCH  21  23
ENDBRANCH  13  18
BRANCH  15   3
ATOM      3  O   UNL     1       5.576  -0.131  22.835  0.00  0.00    -0.390 OA
ATOM     36  H   UNL     1       6.147  -0.671  23.406  0.00  0.00    +0.210 HD
ENDBRANCH  15   3
BRANCH  10  17
ATOM     17  C   UNL     1       1.466   2.238  23.127  0.00  0.00    +0.124 C 
BRANCH  17  19
ATOM     19  C   UNL     1       0.464   2.620  24.183  0.00  0.00    +0.012 A 
ATOM     20  C   UNL     1      -0.409   3.690  23.985  0.00  0.00    +0.170 A 
ATOM     22  C   UNL     1       0.413   1.889  25.370  0.00  0.00    +0.012 A 
ATOM     24  C   UNL     1      -1.332   4.030  24.974  0.00  0.00    +0.204 A 
ATOM     25  C   UNL     1      -0.510   2.229  26.359  0.00  0.00    +0.050 A 
ATOM     26  C   UNL     1      -1.382   3.300  26.161  0.00  0.00    +0.165 A 
BRANCH  20   5
ATOM      5  O   UNL     1      -0.362   4.406  22.825  0.00  0.00    -0.491 OA
ATOM     28  C   UNL     1       0.683   5.368  22.702  0.00  0.00    +0.277 C 
ENDBRANCH  20   5
BRANCH  24   6
ATOM      6  O   UNL     1      -2.185   5.076  24.782  0.00  0.00    -0.488 OA
ATOM     31  C   UNL     1      -1.673   6.383  25.029  0.00  0.00    +0.277 C 
ENDBRANCH  24   6
BRANCH  26   7
ATOM      7  O   UNL     1      -2.279   3.620  27.135  0.00  0.00    -0.491 OA
ATOM     32  C   UNL     1      -3.577   4.033  26.711  0.00  0.00    +0.277 C 
ENDBRANCH  26   7
ENDBRANCH  17  19
ENDBRANCH  10  17
TORSDOF 10
ENDMDL
MODEL 8
REMARK VINA RESULT:       5.2      3.020      7.675
REMARK  Name = 26743464
REMARK  13 active torsions:
REMARK  status: ('A' for Active; 'I' for Inactive)
REMARK    1  A    between atoms: S_1  and  C_23
REMARK    2  A    between atoms: S_1  and  C_27
REMARK    3  A    between atoms: O_3  and  C_15
REMARK    4  A    between atoms: O_5  and  C_20
REMARK    5  A    between atoms: O_5  and  C_28
REMARK    6  A    between atoms: O_6  and  C_24
REMARK    7  A    between atoms: O_6  and  C_31
REMARK    8  A    between atoms: O_7  and  C_26
REMARK    9  A    between atoms: O_7  and  C_32
REMARK   10  A    between atoms: N_10  and  C_17
REMARK   11  A    between atoms: C_13  and  C_18
REMARK   12  A    between atoms: C_17  and  C_19
REMARK   13  A    between atoms: C_21  and  C_23
REMARK                            x       y       z     vdW  Elec       q    Type
REMARK                         _______ _______ _______ _____ _____    ______ ____
ROOT
ATOM     10  N   UNL     1      -0.484   1.803  24.582  0.00  0.00    -0.284 NA
ATOM     13  C   UNL     1      -0.805   0.657  25.457  0.00  0.00    +0.149 C 
ATOM     14  C   UNL     1      -0.436   1.130  26.876  0.00  0.00    +0.061 C 
ATOM     15  C   UNL     1       0.125   2.534  26.690  0.00  0.00    +0.130 C 
ATOM     16  C   UNL     1       0.588   2.544  25.246  0.00  0.00    +0.116 C 
ENDROOT
BRANCH  13  18
ATOM      4  O   UNL     1      -2.575  -0.963  25.922  0.00  0.00    -0.336 OA
ATOM     11  N   UNL     1      -3.254   0.825  24.757  0.00  0.00    -0.193 NA
ATOM     12  N   UNL     1      -3.943  -1.149  25.685  0.00  0.00    -0.060 NA
ATOM     18  C   UNL     1      -2.251   0.223  25.343  0.00  0.00    +0.245 A 
ATOM     21  C   UNL     1      -4.271  -0.054  24.993  0.00  0.00    +0.193 A 
BRANCH  21  23
ATOM     23  C   UNL     1      -5.638   0.186  24.518  0.00  0.00    +0.251 C 
BRANCH  23   1
ATOM      1  S   UNL     1      -6.237   1.685  25.246  0.00  0.00    +0.004 S 
ATOM      8  O   UNL     1      -6.500   1.418  26.647  0.00  0.00    -0.169 OA
ATOM      9  O   UNL     1      -7.276   2.229  24.393  0.00  0.00    -0.169 OA
BRANCH   1  27
ATOM      2  F   UNL     1      -1.631   5.352  24.921  0.00  0.00    -0.205 F 
ATOM     27  C   UNL     1      -4.858   2.785  25.148  0.00  0.00    +0.089 A 
ATOM     29  C   UNL     1      -4.357   3.168  23.903  0.00  0.00    +0.030 A 
ATOM     30  C   UNL     1      -4.268   3.269  26.315  0.00  0.00    +0.030 A 
ATOM     33  C   UNL     1      -3.268   4.035  23.826  0.00  0.00    +0.040 A 
ATOM     34  C   UNL     1      -3.178   4.136  26.238  0.00  0.00    +0.040 A 
ATOM     35  C   UNL     1      -2.678   4.519  24.994  0.00  0.00    +0.124 A 
ENDBRANCH   1  27
ENDBRANCH  23   1
ENDBRANCH  21  23
ENDBRANCH  13  18
BRANCH  15   3
ATOM      3  O   UNL     1       1.194   2.770  27.586  0.00  0.00    -0.390 OA
ATOM     36  H   UNL     1       1.809   2.021  27.511  0.00  0.00    +0.210 HD
ENDBRANCH  15   3
BRANCH  10  17
ATOM     17  C   UNL     1      -0.120   1.407  23.227  0.00  0.00    +0.124 C 
BRANCH  17  19
ATOM     19  C   UNL     1       1.337   1.043  23.122  0.00  0.00    +0.012 A 
ATOM     20  C   UNL     1       1.749  -0.287  23.214  0.00  0.00    +0.170 A 
ATOM     22  C   UNL     1       2.279   2.053  22.931  0.00  0.00    +0.012 A 
ATOM     24  C   UNL     1       3.103  -0.606  23.114  0.00  0.00    +0.204 A 
ATOM     25  C   UNL     1       3.633   1.734  22.831  0.00  0.00    +0.050 A 
ATOM     26  C   UNL     1       4.045   0.404  22.923  0.00  0.00    +0.165 A 
BRANCH  20   5
ATOM      5  O   UNL     1       0.830  -1.277  23.400  0.00  0.00    -0.491 OA
ATOM     28  C   UNL     1       0.633  -1.732  24.738  0.00  0.00    +0.277 C 
ENDBRANCH  20   5
BRANCH  24   6
ATOM      6  O   UNL     1       3.507  -1.905  23.203  0.00  0.00    -0.488 OA
ATOM     31  C   UNL     1       4.627  -2.178  24.042  0.00  0.00    +0.277 C 
ENDBRANCH  24   6
BRANCH  26   7
ATOM      7  O   UNL     1       5.370   0.107  22.823  0.00  0.00    -0.491 OA
ATOM     32  C   UNL     1       6.203   0.475  23.920  0.00  0.00    +0.277 C 
ENDBRANCH  26   7
ENDBRANCH  17  19
ENDBRANCH  10  17
TORSDOF 10
ENDMDL
MODEL 9
REMARK VINA RESULT:       5.2      1.661      4.684
REMARK  Name = 26743464
REMARK  13 active torsions:
REMARK  status: ('A' for Active; 'I' for Inactive)
REMARK    1  A    between atoms: S_1  and  C_23
REMARK    2  A    between atoms: S_1  and  C_27
REMARK    3  A    between atoms: O_3  and  C_15
REMARK    4  A    between atoms: O_5  and  C_20
REMARK    5  A    between atoms: O_5  and  C_28
REMARK    6  A    between atoms: O_6  and  C_24
REMARK    7  A    between atoms: O_6  and  C_31
REMARK    8  A    between atoms: O_7  and  C_26
REMARK    9  A    between atoms: O_7  and  C_32
REMARK   10  A    between atoms: N_10  and  C_17
REMARK   11  A    between atoms: C_13  and  C_18
REMARK   12  A    between atoms: C_17  and  C_19
REMARK   13  A    between atoms: C_21  and  C_23
REMARK                            x       y       z     vdW  Elec       q    Type
REMARK                         _______ _______ _______ _____ _____    ______ ____
ROOT
ATOM     10  N   UNL     1      -4.646   1.981  25.092  0.00  0.00    -0.284 NA
ATOM     13  C   UNL     1      -4.195   2.688  23.876  0.00  0.00    +0.149 C 
ATOM     14  C   UNL     1      -4.196   4.178  24.263  0.00  0.00    +0.061 C 
ATOM     15  C   UNL     1      -4.706   4.212  25.699  0.00  0.00    +0.130 C 
ATOM     16  C   UNL     1      -5.491   2.921  25.828  0.00  0.00    +0.116 C 
ENDROOT
BRANCH  13  18
ATOM      4  O   UNL     1      -2.822   1.553  22.202  0.00  0.00    -0.336 OA
ATOM     11  N   UNL     1      -1.668   2.332  23.957  0.00  0.00    -0.193 NA
ATOM     12  N   UNL     1      -1.483   1.212  21.971  0.00  0.00    -0.060 NA
ATOM     18  C   UNL     1      -2.842   2.210  23.392  0.00  0.00    +0.245 A 
ATOM     21  C   UNL     1      -0.866   1.705  23.049  0.00  0.00    +0.193 A 
BRANCH  21  23
ATOM     23  C   UNL     1       0.583   1.578  23.241  0.00  0.00    +0.251 C 
BRANCH  23   1
ATOM      1  S   UNL     1       1.084  -0.040  22.726  0.00  0.00    +0.004 S 
ATOM      8  O   UNL     1       0.914  -0.114  21.286  0.00  0.00    -0.169 OA
ATOM      9  O   UNL     1       0.453  -1.017  23.592  0.00  0.00    -0.169 OA
BRANCH   1  27
ATOM      2  F   UNL     1       6.861  -0.169  23.897  0.00  0.00    -0.205 F 
ATOM     27  C   UNL     1       2.815  -0.080  23.075  0.00  0.00    +0.089 A 
ATOM     29  C   UNL     1       3.394  -1.232  23.609  0.00  0.00    +0.030 A 
ATOM     30  C   UNL     1       3.604   1.042  22.820  0.00  0.00    +0.030 A 
ATOM     33  C   UNL     1       4.760  -1.262  23.886  0.00  0.00    +0.040 A 
ATOM     34  C   UNL     1       4.970   1.012  23.098  0.00  0.00    +0.040 A 
ATOM     35  C   UNL     1       5.549  -0.140  23.630  0.00  0.00    +0.124 A 
ENDBRANCH   1  27
ENDBRANCH  23   1
ENDBRANCH  21  23
ENDBRANCH  13  18
BRANCH  15   3
ATOM      3  O   UNL     1      -5.521   5.347  25.915  0.00  0.00    -0.390 OA
ATOM     36  H   UNL     1      -5.977   5.223  26.764  0.00  0.00    +0.210 HD
ENDBRANCH  15   3
BRANCH  10  17
ATOM     17  C   UNL     1      -5.338   0.730  24.806  0.00  0.00    +0.124 C 
BRANCH  17  19
ATOM     19  C   UNL     1      -4.380  -0.424  24.684  0.00  0.00    +0.012 A 
ATOM     20  C   UNL     1      -3.212  -0.467  25.447  0.00  0.00    +0.170 A 
ATOM     22  C   UNL     1      -4.671  -1.460  23.796  0.00  0.00    +0.012 A 
ATOM     24  C   UNL     1      -2.336  -1.545  25.321  0.00  0.00    +0.204 A 
ATOM     25  C   UNL     1      -3.794  -2.538  23.670  0.00  0.00    +0.050 A 
ATOM     26  C   UNL     1      -2.627  -2.580  24.433  0.00  0.00    +0.165 A 
BRANCH  20   5
ATOM      5  O   UNL     1      -2.925   0.543  26.317  0.00  0.00    -0.491 OA
ATOM     28  C   UNL     1      -1.579   1.015  26.336  0.00  0.00    +0.277 C 
ENDBRANCH  20   5
BRANCH  24   6
ATOM      6  O   UNL     1      -1.195  -1.588  26.066  0.00  0.00    -0.488 OA
ATOM     31  C   UNL     1      -0.066  -2.235  25.483  0.00  0.00    +0.277 C 
ENDBRANCH  24   6
BRANCH  26   7
ATOM      7  O   UNL     1      -1.781  -3.639  24.301  0.00  0.00    -0.491 OA
ATOM     32  C   UNL     1      -1.599  -4.165  22.988  0.00  0.00    +0.277 C 
ENDBRANCH  26   7
ENDBRANCH  17  19
ENDBRANCH  10  17
TORSDOF 10
ENDMDL
